#------------------------------------------------------------------------------
#$Date: 2019-11-10 19:51:53 +0200 (Sun, 10 Nov 2019) $
#$Revision: 226094 $
#$URL: file:///home/coder/svn-repositories/cod/cif/4/51/60/4516076.cif $
#------------------------------------------------------------------------------
#
# This file is available in the Crystallography Open Database (COD),
# http://www.crystallography.net/
#
# All data on this site have been placed in the public domain by the
# contributors.
#
data_4516076
loop_
_publ_author_name
'Saraiah, Bonagiri'
'Gautam, Vibha'
'Acharya, Anand'
'Pasha, Mohamed Afzal'
'Ila, Hiriyakkanavar'
_publ_section_title
;
 One-Pot Synthesis of 2-(Het)aryl/alkyl-3-cyanobenzofurans from
 2-(2-Bromoaryl)-3-(het)aryl-3-(methylthio)acrylonitriles and Benzyl
 Carbamate.
;
_journal_issue                   7
_journal_name_full               'ACS omega'
_journal_page_first              8355
_journal_page_last               8364
_journal_paper_doi               10.1021/acsomega.8b01172
_journal_volume                  3
_journal_year                    2018
_chemical_formula_moiety         'C16 H10 F N O2'
_chemical_formula_sum            'C16 H10 F N O2'
_chemical_formula_weight         267.25
_space_group_crystal_system      triclinic
_space_group_IT_number           2
_space_group_name_Hall           '-P 1'
_space_group_name_H-M_alt        'P -1'
_atom_sites_solution_hydrogens   geom
_audit_creation_date             2016-02-29
_audit_creation_method
;
Olex2 1.2-beta
(compiled 2015.01.19 svn.r3143 for OlexSys, GUI svn.r4992)
;
_cell_angle_alpha                87.5870(10)
_cell_angle_beta                 76.7180(10)
_cell_angle_gamma                67.6650(10)
_cell_formula_units_Z            2
_cell_length_a                   7.9674(2)
_cell_length_b                   8.6081(3)
_cell_length_c                   10.2555(3)
_cell_measurement_reflns_used    9997
_cell_measurement_temperature    299
_cell_measurement_theta_max      33.408
_cell_measurement_theta_min      2.841
_cell_volume                     632.40(3)
_computing_cell_refinement       'SAINT v8.34A (Bruker, 2013)'
_computing_data_reduction        'SAINT v8.34A (Bruker, 2013)'
_computing_molecular_graphics    'Olex2 (Dolomanov et al., 2009)'
_computing_publication_material  'Olex2 (Dolomanov et al., 2009)'
_computing_structure_refinement  'ShelXL (Sheldrick, 2008)'
_diffrn_ambient_temperature      299.25
_diffrn_measured_fraction_theta_full 0.995
_diffrn_measured_fraction_theta_max 0.949
_diffrn_measurement_device_type  'D8 Venture'
_diffrn_radiation_type           MoK\a
_diffrn_radiation_wavelength     0.71073
_diffrn_reflns_av_R_equivalents  0.0366
_diffrn_reflns_av_unetI/netI     0.0383
_diffrn_reflns_Laue_measured_fraction_full 0.995
_diffrn_reflns_Laue_measured_fraction_max 0.949
_diffrn_reflns_limit_h_max       12
_diffrn_reflns_limit_h_min       -11
_diffrn_reflns_limit_k_max       13
_diffrn_reflns_limit_k_min       -13
_diffrn_reflns_limit_l_max       16
_diffrn_reflns_limit_l_min       -15
_diffrn_reflns_number            29883
_diffrn_reflns_point_group_measured_fraction_full 0.995
_diffrn_reflns_point_group_measured_fraction_max 0.949
_diffrn_reflns_theta_full        26.000
_diffrn_reflns_theta_max         33.765
_diffrn_reflns_theta_min         2.841
_exptl_absorpt_coefficient_mu    0.103
_exptl_absorpt_correction_T_max  0.7467
_exptl_absorpt_correction_T_min  0.6972
_exptl_absorpt_correction_type   multi-scan
_exptl_absorpt_process_details
;
SADABS-2014/5 (Bruker,2014/5) was used for absorption correction.
wR2(int) was 0.0785 before and 0.0479 after correction.
The Ratio of minimum to maximum transmission is 0.9337.
The \l/2 correction factor is Not present.
;
_exptl_crystal_colour            'clear white'
_exptl_crystal_colour_lustre     clear
_exptl_crystal_colour_primary    white
_exptl_crystal_density_diffrn    1.403
_exptl_crystal_description       block
_exptl_crystal_F_000             276
_exptl_crystal_size_max          0.2
_exptl_crystal_size_mid          0.06
_exptl_crystal_size_min          0.04
_refine_diff_density_max         0.295
_refine_diff_density_min         -0.258
_refine_diff_density_rms         0.041
_refine_ls_extinction_method     none
_refine_ls_goodness_of_fit_ref   1.037
_refine_ls_hydrogen_treatment    constr
_refine_ls_matrix_type           full
_refine_ls_number_parameters     182
_refine_ls_number_reflns         4823
_refine_ls_number_restraints     0
_refine_ls_restrained_S_all      1.037
_refine_ls_R_factor_all          0.1023
_refine_ls_R_factor_gt           0.0598
_refine_ls_shift/su_max          0.000
_refine_ls_shift/su_mean         0.000
_refine_ls_structure_factor_coef Fsqd
_refine_ls_weighting_details
'w=1/[\s^2^(Fo^2^)+(0.0673P)^2^+0.1419P] where P=(Fo^2^+2Fc^2^)/3'
_refine_ls_weighting_scheme      calc
_refine_ls_wR_factor_gt          0.1402
_refine_ls_wR_factor_ref         0.1579
_reflns_Friedel_coverage         0.000
_reflns_number_gt                3137
_reflns_number_total             4823
_reflns_threshold_expression     'I > 2\s(I)'
_cod_data_source_file            ao8b01172_si_002.cif
_cod_data_source_block           compound_7b
_cod_database_code               4516076
_shelx_space_group_comment
;
The symmetry employed for this shelxl refinement is uniquely defined
by the following loop, which should always be used as a source of
symmetry information in preference to the above space-group names.
They are only intended as comments.
;
_olex2_refinement_description
;
1. Fixed Uiso
 At 1.2 times of:
  All C(H) groups
 At 1.5 times of:
  All C(H,H,H) groups
2.a Aromatic/amide H refined with riding coordinates:
 C009(H009), C00D(H00D), C00E(H00E), C00F(H00F), C00G(H00G), C00I(H00I),
 C00J(H00J)
2.b Idealised Me refined as rotating group:
 C00K(H00A,H00B,H00C)
;
_shelx_res_file
;
    svk_725_a.res created by SHELXL-2014/7

TITL SVK_725_a.res in P-1
REM Old TITL SVK_725 in P-1
REM SHELXT solution in P-1
REM R1 0.161, Rweak 0.010, Alpha 0.082, Orientation as input
REM Formula found by SHELXT: C16 N O3
CELL 0.71073 7.9674 8.6081 10.2555 87.587 76.718 67.665
ZERR 2 0.0002 0.0003 0.0003 0.001 0.001 0.001
LATT 1
SFAC C H F N O
UNIT 32 20 2 2 4

L.S. 40
PLAN  20
TEMP 26.1
BOND $H
LIST 6
MORE -1
CONF
fmap 2
acta 52
REM <olex2.extras>
REM <HklSrc "%.\\SVK_725_a.hkl">
REM </olex2.extras>

WGHT    0.067300    0.141900
FVAR       2.16075
O001  5    0.396199    0.286288    0.494677    11.00000    0.04638    0.02827 =
         0.04373   -0.00365   -0.01812   -0.00795
F002  3   -0.023439    0.687867    0.065463    11.00000    0.09897    0.07633 =
         0.06450    0.02478   -0.05204   -0.03606
O003  5    0.602036    0.232062    0.972361    11.00000    0.06386    0.05617 =
         0.04488    0.00384   -0.02591   -0.00808
C004  1    0.392978    0.394721    0.694398    11.00000    0.03121    0.02859 =
         0.03691   -0.00015   -0.00656   -0.01105
C005  1    0.183452    0.696232    0.669236    11.00000    0.04785    0.03258 =
         0.04172   -0.00304   -0.01445   -0.00667
C006  1    0.279171    0.525315    0.622770    11.00000    0.03289    0.02843 =
         0.03580   -0.00086   -0.00713   -0.01001
C007  1    0.462093    0.250929    0.610535    11.00000    0.03858    0.03061 =
         0.04093   -0.00080   -0.01416   -0.01026
C008  1    0.200771    0.516505    0.390929    11.00000    0.03395    0.03270 =
         0.03603    0.00229   -0.00840   -0.01471
C009  1    0.441846    0.387395    0.817076    11.00000    0.03832    0.03588 =
         0.03489   -0.00138   -0.00751   -0.01252
AFIX  43
H009  2    0.397649    0.482485    0.874305    11.00000   -1.20000
AFIX   0
N00A  4    0.109219    0.832110    0.710130    11.00000    0.08602    0.03853 =
         0.07620   -0.01600   -0.03093    0.00066
C00B  1    0.558897    0.232980    0.850721    11.00000    0.03783    0.04265 =
         0.03985    0.00485   -0.01266   -0.01403
C00C  1    0.284623    0.453958    0.504014    11.00000    0.03233    0.02788 =
         0.03784   -0.00140   -0.00693   -0.00996
C00D  1    0.243829    0.408747    0.279080    11.00000    0.04836    0.03779 =
         0.04071   -0.00129   -0.01275   -0.01477
AFIX  43
H00D  2    0.325237    0.297427    0.278309    11.00000   -1.20000
AFIX   0
C00E  1    0.078593    0.683155    0.390062    11.00000    0.04803    0.03485 =
         0.04451    0.00097   -0.01573   -0.01375
AFIX  43
H00E  2    0.048216    0.756253    0.463685    11.00000   -1.20000
AFIX   0
C00F  1    0.627964    0.089737    0.763784    11.00000    0.04707    0.03441 =
         0.05712    0.00473   -0.02226   -0.00715
AFIX  43
H00F  2    0.707210   -0.011888    0.788724    11.00000   -1.20000
AFIX   0
C00G  1    0.580107    0.097215    0.641595    11.00000    0.05323    0.02960 =
         0.05687   -0.00394   -0.02280   -0.00700
AFIX  43
H00G  2    0.625482    0.002961    0.583309    11.00000   -1.20000
AFIX   0
C00H  1    0.048934    0.630636    0.173483    11.00000    0.05607    0.05320 =
         0.04643    0.01679   -0.02511   -0.02949
C00I  1    0.167291    0.465311    0.170148    11.00000    0.06056    0.05148 =
         0.04045    0.00020   -0.01656   -0.02491
AFIX  43
H00I  2    0.195087    0.393358    0.096268    11.00000   -1.20000
AFIX   0
C00J  1    0.002447    0.740370    0.280740    11.00000    0.05329    0.03895 =
         0.05794    0.01202   -0.02411   -0.01637
AFIX  43
H00J  2   -0.078932    0.851425    0.279992    11.00000   -1.20000
AFIX   0
C00K  1    0.725768    0.078727    1.011619    11.00000    0.06644    0.06375 =
         0.05850    0.01571   -0.03416   -0.01498
AFIX 137
H00A  2    0.842832    0.041255    0.946671    11.00000   -1.50000
H00B  2    0.672456   -0.005002    1.016925    11.00000   -1.50000
H00C  2    0.745490    0.096479    1.097745    11.00000   -1.50000
AFIX   0
HKLF 4

REM  SVK_725_a.res in P-1
REM R1 =  0.0598 for    3137 Fo > 4sig(Fo)  and  0.1023 for all    4823 data
REM    182 parameters refined using      0 restraints

END

WGHT      0.0673      0.1419

REM Highest difference peak  0.295,  deepest hole -0.258,  1-sigma level  0.041
Q1    1   0.2615  0.4993  0.5694  11.00000  0.05    0.29
Q2    1   0.4155  0.3103  0.6623  11.00000  0.05    0.27
Q3    1   0.3380  0.4653  0.6634  11.00000  0.05    0.27
Q4    1   0.4279  0.3827  0.7521  11.00000  0.05    0.26
Q5    1   0.2339  0.6053  0.6452  11.00000  0.05    0.25
Q6    1   0.5001  0.3086  0.8254  11.00000  0.05    0.23
Q7    1   0.2342  0.4775  0.3186  11.00000  0.05    0.23
Q8    1   0.2413  0.4893  0.4441  11.00000  0.05    0.23
Q9    1   0.0148  0.6618  0.2442  11.00000  0.05    0.22
Q10   1   0.1046  0.5547  0.1840  11.00000  0.05    0.22
Q11   1   0.0511  0.6946  0.3289  11.00000  0.05    0.21
Q12   1   0.6182  0.1647  0.7993  11.00000  0.05    0.20
Q13   1   0.5756  0.1720  0.7983  11.00000  0.05    0.20
Q14   1   0.1407  0.6067  0.4061  11.00000  0.05    0.19
Q15   1   0.6335  0.1179  0.6823  11.00000  0.05    0.17
Q16   1   0.5082  0.1714  0.6410  11.00000  0.05    0.17
Q17   1   0.3380  0.3687  0.4983  11.00000  0.05    0.16
Q18   1   0.0893  0.7464  0.7209  11.00000  0.05    0.15
Q19   1   0.5135  0.1913  0.9872  11.00000  0.05    0.15
Q20   1   0.0750  0.6926  0.2005  11.00000  0.05    0.15
;
_shelx_res_checksum              25337
_shelx_hkl_file
;
  -1   0   0 1089.49   19.90
  -1   0   0 1078.79   19.80
  -1   0   0 1085.79   19.90
  -1   0   0 1078.59   19.90
  -1   0   0 1095.09   20.00
   1   0   0 1095.29   19.80
   1   0   0 1101.09   20.00
   1   0   0 1021.70   19.90
   1   0   0 1066.29   19.80
  -2   0   0 1077.39   21.00
  -2   0   0 1091.39   21.00
  -2   0   0 1139.49   21.70
  -2   0   0 1088.59   21.20
  -2   0   0 1114.59   21.10
  -2   0   0 1119.69   21.00
   2   0   0 1101.79   21.20
   2   0   0 1092.19   21.10
   2   0   0 1079.49   21.00
   2   0   0 1107.59   21.00
  -3   0   0  756.42   15.60
  -3   0   0  727.93   15.70
  -3   0   0  769.32   16.40
  -3   0   0  733.53   15.50
  -3   0   0  766.82   15.60
  -3   0   0  753.22   15.60
   3   0   0  760.22   15.60
   3   0   0  753.52   16.00
   3   0   0  739.63   15.70
   3   0   0  725.33   15.80
   3   0   0  753.62   15.40
  -4   0   0    5.90    1.90
  -4   0   0    2.90    2.10
  -4   0   0    6.70    2.10
  -4   0   0    6.70    1.80
  -4   0   0    6.20    1.80
  -4   0   0    4.90    1.80
   4   0   0    7.30    2.00
   4   0   0    4.10    1.80
   4   0   0    6.10    2.30
   4   0   0    3.90    1.80
   4   0   0    7.40    1.90
  -5   0   0 1393.46   29.10
  -5   0   0 1424.56   28.90
  -5   0   0 1401.36   29.90
  -5   0   0 1386.86   28.80
  -5   0   0 1388.96   28.80
  -5   0   0 1397.26   29.00
   5   0   0 1433.06   28.90
   5   0   0 1427.66   29.80
   5   0   0 1401.36   29.20
   5   0   0 1326.27   30.50
   5   0   0 1402.26   28.70
  -6   0   0  535.05   14.40
  -6   0   0  512.45   13.90
  -6   0   0  518.95   15.30
  -6   0   0  515.35   14.20
  -6   0   0  525.95   14.30
  -6   0   0  525.65   14.00
   6   0   0  531.45   15.20
   6   0   0  538.55   14.90
   6   0   0  488.55   15.70
   6   0   0  534.25   14.20
   6   0   0  527.85   14.70
   6   0   0  538.65   14.10
  -7   0   0  200.78   10.10
  -7   0   0  186.18    8.60
  -7   0   0  182.28    8.90
  -7   0   0  159.28    9.50
   7   0   0  172.98   10.00
   7   0   0  158.18    9.60
   7   0   0  187.38    8.70
   7   0   0  161.18    9.30
  -8   0   0   23.10    6.60
  -8   0   0   17.40    6.50
  -8   0   0   16.20    5.70
  -8   0   0   17.50    5.60
  -8   0   0   14.40    5.50
  -8   0   0   15.90    5.30
   8   0   0   28.00    6.30
   8   0   0    3.90    5.30
   8   0   0   26.10    6.60
   8   0   0    9.20    6.90
   8   0   0   15.90    6.00
   8   0   0   18.30    6.30
  -9   0   0   38.10    6.80
  -9   0   0   38.70    9.00
  -9   0   0   48.00    7.90
  -9   0   0   55.99    8.70
  -9   0   0   47.70    8.40
  -9   0   0   57.59    8.20
   9   0   0   36.70    9.80
   9   0   0   49.50    8.90
   9   0   0   40.30    9.10
  10   0   0    5.10    7.40
  10   0   0   -1.10   20.20
  11   0   0   12.60    9.80
  10  -1   0    8.50    7.40
   9  -1   0   54.79   10.20
   9  -1   0  101.39   12.30
  -9   1   0   58.19    8.00
  -9   1   0   74.89    9.80
  -9   1   0   71.39   10.10
  -9   1   0   56.19    9.70
   8  -1   0   14.50    9.70
   8  -1   0   28.20    7.80
   8  -1   0   27.40    6.80
   8  -1   0   26.60    7.10
   8  -1   0   25.50    8.00
   8  -1   0   27.40    7.80
  -8   1   0   17.50    5.20
  -8   1   0   31.30    6.90
  -8   1   0   24.50    5.90
  -8   1   0   22.10    5.90
  -8   1   0   32.30    7.90
  -8   1   0   29.30    8.40
   7  -1   0   12.80    4.50
   7  -1   0    8.80    5.30
   7  -1   0    8.40    5.50
   7  -1   0   23.00    5.90
   7  -1   0   20.60    5.00
   7  -1   0    4.90    5.40
  -7   1   0    8.10    5.20
  -7   1   0   16.10    4.40
  -7   1   0   16.30    4.90
  -7   1   0   11.10    4.20
  -7   1   0   11.20    4.50
  -7   1   0   10.70    5.00
   6  -1   0   -1.40    3.20
   6  -1   0    2.10    3.30
   6  -1   0   -0.70    3.30
   6  -1   0   -0.80    3.80
   6  -1   0   -2.10    3.40
   6  -1   0    1.50    3.40
  -6   1   0   -2.50    4.10
  -6   1   0   -1.50    2.50
  -6   1   0    3.60    2.90
  -6   1   0    1.90    2.90
  -6   1   0    0.70    3.50
  -6   1   0   -2.20    3.10
   5  -1   0   20.50    3.50
   5  -1   0   23.80    3.50
   5  -1   0   20.70    3.80
   5  -1   0   26.70    5.10
   5  -1   0   22.10    4.00
   5  -1   0   22.20    3.60
  -5   1   0   20.20    3.30
  -5   1   0   22.80    3.30
  -5   1   0   21.30    3.20
  -5   1   0   26.70    3.70
  -5   1   0   23.20    3.50
  -5   1   0   24.20    4.40
   4  -1   0  850.21   18.10
   4  -1   0  845.52   20.10
   4  -1   0  798.82   20.90
   4  -1   0  855.31   18.80
   4  -1   0  840.62   18.80
   4  -1   0  856.31   18.10
  -4   1   0  835.62   18.40
  -4   1   0  833.42   18.30
  -4   1   0  835.42   18.30
  -4   1   0  822.82   18.10
  -4   1   0  825.32   18.40
   3  -1   0   86.19    3.60
   3  -1   0   84.29    4.00
   3  -1   0   85.99    4.60
   3  -1   0   80.09    4.00
   3  -1   0   79.69    3.80
   3  -1   0   85.09    3.60
  -3   1   0   81.89    3.70
  -3   1   0   87.59    3.80
  -3   1   0   82.09    3.60
  -3   1   0   87.09    3.80
  -3   1   0   84.79    3.70
   2  -1   0  108.69    3.50
   2  -1   0  111.39    3.60
   2  -1   0  115.19    4.40
   2  -1   0  109.89    3.90
   2  -1   0  107.39    3.50
  -2   1   0  110.59    3.50
  -2   1   0  112.19    3.60
  -2   1   0  109.79    3.60
  -2   1   0  107.39    3.60
   1  -1   0 4900.41   88.59
  -1  -1   0    3.80    0.60
  -1  -1   0    4.90    0.90
  -1  -1   0    5.00    0.80
  -1  -1   0    4.40    0.60
  -1  -1   0    4.40    0.60
  -1  -1   0    3.70    0.70
   1   1   0    3.70    0.80
   1   1   0    3.80    0.70
   1   1   0    4.10    0.60
   1   1   0    3.40    0.50
   1   1   0    4.70    0.70
   1   1   0    5.10    0.80
   1   1   0    5.60    0.50
   2   1   0 4647.33   83.09
  -3  -1   0  927.41   18.90
  -3  -1   0  935.61   18.90
  -3  -1   0  959.00   19.20
  -3  -1   0  942.91   19.00
  -3  -1   0  938.51   18.90
  -3  -1   0  919.41   19.00
   3   1   0  940.61   19.30
   3   1   0  964.30   19.50
   3   1   0  937.81   18.90
   3   1   0  933.71   19.00
   3   1   0  930.01   19.00
   3   1   0  941.41   19.00
  -4  -1   0  398.46   10.00
  -4  -1   0  407.06    9.90
  -4  -1   0  384.86    9.90
  -4  -1   0  400.46   10.00
  -4  -1   0  396.16   10.10
  -4  -1   0  396.86   10.30
   4   1   0  403.86   10.00
   4   1   0  397.66   10.40
   4   1   0  395.86   10.00
   4   1   0  391.56   10.10
   4   1   0  403.76   10.10
  -5  -1   0  218.28    7.40
  -5  -1   0  209.88    7.40
  -5  -1   0  219.08    7.50
  -5  -1   0  222.18    7.80
  -5  -1   0  222.18    7.50
  -5  -1   0  228.38    7.60
   5   1   0  224.58    8.10
   5   1   0  219.48    7.80
   5   1   0  232.48    7.70
   5   1   0  218.58    7.60
   5   1   0  214.08    7.40
  -6  -1   0   34.20    4.30
  -6  -1   0   31.80    4.50
  -6  -1   0   31.90    4.10
  -6  -1   0   30.00    4.20
  -6  -1   0   29.00    4.00
  -6  -1   0   29.40    3.90
   6   1   0   29.80    4.30
   6   1   0   32.10    4.30
   6   1   0   25.20    4.10
   6   1   0   26.40    4.20
  -7  -1   0   15.40    4.00
  -7  -1   0   12.50    3.70
  -7  -1   0   19.00    4.70
  -7  -1   0   13.80    4.70
  -7  -1   0    4.80    3.60
  -7  -1   0    5.30    4.10
   7   1   0    3.70    4.20
   7   1   0    9.40    4.10
  -8  -1   0   30.70    6.00
  -8  -1   0   19.50    5.70
  -8  -1   0   16.90    4.80
  -8  -1   0   24.60    5.80
  -8  -1   0   27.40    5.70
   8   1   0   30.10    5.90
   8   1   0   29.60    5.90
   8   1   0   26.70    6.40
   8   1   0   21.10    5.90
   8   1   0   15.20    5.90
   8   1   0   30.00    6.30
  -9  -1   0   -6.00    7.00
  -9  -1   0   -0.40    6.20
  -9  -1   0  -12.20    6.30
  -9  -1   0   -1.00    6.70
  -9  -1   0    2.70    5.30
  -9  -1   0   -7.40    6.40
   9   1   0   -0.40    7.50
   9   1   0    4.50    8.10
   9   1   0    1.70    5.10
 -10  -1   0   18.70    9.70
 -10  -1   0   13.50    9.30
 -10  -1   0   26.90   10.30
 -10  -1   0    3.50    7.30
  10   1   0   -0.60    7.10
  10   1   0   33.80   12.20
  11   1   0   18.00    9.10
  10  -2   0   -0.70    8.40
   9  -2   0   23.40    7.70
  -9   2   0   33.80    7.70
  -9   2   0   26.40    9.50
   8  -2   0   14.50    7.80
   8  -2   0   12.30    8.10
   8  -2   0   19.90    8.10
   8  -2   0    9.90    9.10
  -8   2   0   19.70    6.60
  -8   2   0   14.30    6.70
  -8   2   0   12.80    6.90
  -8   2   0   17.20    5.80
  -8   2   0   18.20    9.80
  -8   2   0   27.40   13.50
   7  -2   0  130.59    9.60
   7  -2   0  136.89   11.30
   7  -2   0  138.49    9.10
   7  -2   0  109.59    9.70
   7  -2   0  144.39    8.60
   7  -2   0  128.19   11.10
  -7   2   0  121.89    8.40
  -7   2   0  132.49   11.60
  -7   2   0  115.69    9.70
  -7   2   0  153.28    9.30
  -7   2   0  130.99    9.20
  -7   2   0  129.89    8.50
   6  -2   0   19.30    5.40
   6  -2   0   13.90    4.30
   6  -2   0   16.60    5.10
   6  -2   0   19.40    5.40
  -6   2   0   19.10    4.30
  -6   2   0   15.00    4.00
  -6   2   0   21.90    4.20
  -6   2   0   27.80    6.40
  -6   2   0    9.00    4.50
   5  -2   0  395.26   13.90
   5  -2   0  416.26   11.60
   5  -2   0  413.26   12.40
   5  -2   0  412.46   12.50
   5  -2   0  422.26   11.50
  -5   2   0  396.66   12.10
  -5   2   0  403.26   11.50
  -5   2   0  394.46   11.90
  -5   2   0  417.56   11.60
  -5   2   0  402.96   11.60
   4  -2   0 1057.89   25.30
   4  -2   0 1091.89   23.80
   4  -2   0 1098.09   23.60
   4  -2   0 1079.79   22.90
   4  -2   0 1104.49   23.50
   4  -2   0 1078.49   22.70
  -4   2   0 1081.79   23.00
  -4   2   0 1101.79   23.60
  -4   2   0 1080.89   23.40
  -4   2   0 1079.29   22.70
  -4   2   0 1082.09   23.10
  -4   2   0 1096.39   23.10
   3  -2   0 1103.99   23.50
   3  -2   0 1153.38   22.90
   3  -2   0 1083.19   22.80
   3  -2   0 1153.08   25.10
   3  -2   0 1119.49   23.00
  -3   2   0 1209.08   22.70
  -3   2   0 1113.69   22.70
  -3   2   0 1091.59   23.00
  -3   2   0 1132.09   23.30
  -3   2   0 1109.99   23.30
   2  -2   0 1843.32   35.10
   2  -2   0 1908.61   35.20
   2  -2   0 1893.21   36.70
   2  -2   0 1829.42   35.60
   2  -2   0 1849.42   34.90
  -2   2   0 1850.51   35.40
  -2   2   0 1787.62   35.30
  -2   2   0 1809.02   34.70
  -2   2   0 1804.52   35.30
  -2   2   0 1960.90   34.70
  -2   2   0 1819.92   35.40
   0  -2   0 2642.34   46.70
   0  -2   0 2484.05   46.30
   0  -2   0 2553.74   46.40
   0  -2   0 2482.95   46.20
   0   2   0 2513.25   46.30
   0   2   0 2501.85   46.40
   0   2   0 2496.45   46.30
   0   2   0 2500.15   46.30
  -3  -2   0  407.06    9.50
  -3  -2   0  402.16    9.80
  -3  -2   0  413.56    9.60
  -3  -2   0  414.76    9.80
  -3  -2   0  409.76    9.70
   3   2   0  427.96    8.60
   3   2   0  398.16    9.70
   3   2   0  414.06    9.80
   3   2   0  419.96    9.70
   3   2   0  409.66    9.80
   3   2   0  400.86    9.70
  -4  -2   0  192.78    6.20
  -4  -2   0  183.48    6.20
  -4  -2   0  184.38    6.10
  -4  -2   0  179.28    6.00
   4   2   0  188.48    6.20
   4   2   0  175.28    6.10
   4   2   0  186.98    6.40
   4   2   0  183.38    6.30
   4   2   0  182.88    6.30
   4   2   0  186.38    6.10
  -5  -2   0  233.98    7.80
  -5  -2   0  252.37    8.00
  -5  -2   0  242.98    8.10
  -5  -2   0  245.28    7.90
  -5  -2   0  246.18    7.90
  -5  -2   0  246.38    8.00
   5   2   0  244.78    8.20
   5   2   0  246.58    8.60
   5   2   0  241.18    7.90
   5   2   0  240.48    8.00
   5   2   0  258.87    8.60
   5   2   0  253.97    8.20
  -6  -2   0    4.80    2.40
  -6  -2   0    6.90    2.80
  -6  -2   0    7.10    2.80
  -6  -2   0    4.80    2.90
  -6  -2   0    3.40    2.90
  -6  -2   0    5.30    2.80
   6   2   0    8.50    2.80
   6   2   0    6.20    3.00
   6   2   0    1.30    3.10
  -7  -2   0  171.98    8.40
  -7  -2   0  186.58    9.00
  -7  -2   0  179.78    8.60
  -7  -2   0  183.58    8.70
  -7  -2   0  196.48    9.00
   7   2   0  175.98    9.20
   7   2   0  181.18    8.60
   7   2   0  195.88    9.10
  -8  -2   0   60.39    7.50
  -8  -2   0   43.20    6.40
  -8  -2   0   47.30    6.20
  -8  -2   0   48.50    6.50
  -8  -2   0   52.29    6.80
  -8  -2   0   54.49    7.00
   8   2   0   41.60    6.90
   8   2   0   56.59    7.10
   8   2   0   57.39    7.20
  -9  -2   0   35.40    7.80
  -9  -2   0   24.30    6.80
  -9  -2   0   18.20    6.70
  -9  -2   0   26.20    7.00
  -9  -2   0   39.00    6.70
  -9  -2   0   15.70    5.10
   9   2   0   29.60    8.10
   9   2   0    9.50    7.30
   9   2   0   24.60    7.40
   9   2   0   26.80    8.20
 -10  -2   0    7.70    8.20
 -10  -2   0   -6.80    6.80
 -10  -2   0   -1.40    9.20
 -10  -2   0   14.30    9.80
 -10  -2   0   -5.30    8.30
  10   2   0   18.10   10.80
  10   2   0    1.40    5.00
  11   2   0    1.60    8.70
   9  -3   0   -2.40    8.60
   8  -3   0   22.30   10.00
   8  -3   0    3.40    7.70
  -8   3   0   -0.30    7.70
  -8   3   0    3.50    5.60
  -8   3   0    3.40    7.60
  -8   3   0  -11.60    8.00
   7  -3   0   25.80    7.70
   7  -3   0   19.60    6.50
   7  -3   0   29.70    6.80
   7  -3   0   15.90    7.00
   7  -3   0   27.30    6.60
   7  -3   0   23.70    7.20
  -7   3   0   22.10    6.20
  -7   3   0   26.40    5.20
  -7   3   0   20.60    8.20
  -7   3   0   16.60    6.20
  -7   3   0   37.80    7.10
  -7   3   0   31.50    5.70
   6  -3   0    5.90    5.70
   6  -3   0    5.00    5.20
   6  -3   0   -0.90    5.00
   6  -3   0    6.80    4.50
   6  -3   0    8.70    4.60
  -6   3   0    6.80    4.80
  -6   3   0    4.20    4.40
  -6   3   0    3.80    3.80
  -6   3   0   -0.10    3.50
  -6   3   0   -0.10    4.00
   5  -3   0  125.69    7.90
   5  -3   0  127.09    8.40
   5  -3   0  130.29    6.80
  -5   3   0  115.39    7.20
  -5   3   0  125.79    6.70
  -5   3   0  131.59    6.70
  -5   3   0  140.09    7.70
  -5   3   0  130.69    6.40
   4  -3   0   99.29    7.00
   4  -3   0  101.09    6.20
   4  -3   0  103.29    6.90
   4  -3   0  103.59    5.70
   4  -3   0  117.89    5.90
  -4   3   0   97.89    5.50
  -4   3   0   99.19    5.60
  -4   3   0  110.19    5.10
  -4   3   0  101.19    5.90
  -4   3   0  105.99    5.50
  -4   3   0  105.19    5.90
   3  -3   0  245.28    9.40
   3  -3   0  237.48    7.30
   3  -3   0  236.18    8.10
   3  -3   0  236.48    7.40
   3  -3   0  241.08    7.40
  -3   3   0  243.38    7.80
  -3   3   0  227.08    6.70
  -3   3   0  244.28    7.90
  -3   3   0  264.67    8.20
  -3   3   0  237.98    7.60
  -3   3   0  235.08    7.00
   2  -3   0 2386.36   45.90
   2  -3   0 2463.85   48.00
   2  -3   0 2372.16   45.10
   2  -3   0 2438.76   46.50
   2  -3   0 2387.06   45.70
  -2   3   0 2330.17   44.90
  -2   3   0 2442.16   46.30
  -2   3   0 2524.65   44.90
  -2   3   0 2390.86   46.20
  -2   3   0 2431.86   46.10
  -2   3   0 2425.66   46.40
   1  -3   0  757.32   17.00
   1  -3   0  744.63   15.80
   1  -3   0  756.62   15.00
   1  -3   0  738.73   14.50
   1  -3   0  732.83   15.70
   1  -3   0  733.73   16.00
  -1   3   0  730.03   15.90
  -1   3   0  718.63   15.90
  -1   3   0  739.23   15.90
  -1   3   0  736.53   15.80
   0  -3   0  302.97    7.60
   0  -3   0  290.17    7.50
   0  -3   0  289.47    7.70
   0  -3   0  294.07    8.10
   0  -3   0  287.97    7.60
   0   3   0  290.97    7.60
   0   3   0  322.97    7.80
   0   3   0  314.57    7.70
   0   3   0  292.37    7.70
  -1  -3   0   83.59    3.40
  -1  -3   0   76.99    3.50
  -1  -3   0   82.39    3.40
  -1  -3   0   81.89    3.50
   1   3   0   81.29    3.40
   1   3   0   84.59    3.40
   1   3   0   82.89    3.40
   1   3   0   82.99    3.50
  -2  -3   0 2525.85   47.00
  -2  -3   0 2467.75   46.90
  -2  -3   0 2560.94   46.90
  -2  -3   0 2531.85   47.00
  -2  -3   0 2504.85   46.90
  -2  -3   0 2435.36   45.80
   2   3   0 2555.24   46.90
   2   3   0 2486.95   46.80
   2   3   0 2491.25   46.90
   2   3   0 2462.05   46.80
   2   3   0 2500.35   46.00
   2   3   0 2486.25   47.00
  -3  -3   0 1455.25   28.90
  -3  -3   0 1480.35   28.70
  -3  -3   0 1432.76   28.90
  -3  -3   0 1437.96   28.10
  -3  -3   0 1441.46   28.80
  -3  -3   0 1445.76   28.70
   3   3   0 1451.05   28.50
   3   3   0 1454.75   29.00
   3   3   0 1464.25   28.70
   3   3   0 1527.05   26.80
   3   3   0 1439.76   28.40
   3   3   0 1460.45   28.90
   3   3   0 1415.56   28.70
  -4  -3   0  619.04   14.00
  -4  -3   0  587.54   14.30
  -4  -3   0  612.34   14.30
  -4  -3   0  609.04   14.50
  -4  -3   0  628.34   14.10
  -4  -3   0  622.44   14.60
   4   3   0  617.34   14.30
   4   3   0  603.04   14.40
   4   3   0  634.34   14.30
   4   3   0  625.34   12.50
   4   3   0  590.74   14.60
   4   3   0  615.34   14.50
   4   3   0  601.64   14.40
  -5  -3   0  229.38    8.00
  -5  -3   0  240.18    7.80
  -5  -3   0  236.28    8.00
  -5  -3   0  241.98    8.30
  -5  -3   0  240.88    7.80
  -5  -3   0  248.18    8.40
   5   3   0  250.57    8.40
   5   3   0  231.78    8.30
   5   3   0  236.88    8.00
   5   3   0  229.38    8.10
   5   3   0  240.08    8.20
  -6  -3   0   28.50    4.30
  -6  -3   0   32.40    4.50
  -6  -3   0   35.30    4.40
  -6  -3   0   23.70    3.70
  -6  -3   0   25.30    4.10
  -6  -3   0   28.90    4.00
   6   3   0   18.10    3.80
   6   3   0   22.60    3.80
   6   3   0   26.40    4.00
   6   3   0   25.70    4.40
   6   3   0   25.10    4.20
  -7  -3   0   16.60    4.60
  -7  -3   0   12.40    4.30
  -7  -3   0   10.00    3.70
  -7  -3   0   14.10    4.00
  -7  -3   0   17.60    4.20
  -7  -3   0   17.00    4.60
   7   3   0   12.50    4.40
   7   3   0   14.70    4.50
   7   3   0   11.70    4.20
   7   3   0   14.70    4.50
  -8  -3   0    6.90    5.10
  -8  -3   0   -0.90    4.80
  -8  -3   0    6.70    4.20
  -8  -3   0    3.30    5.20
  -8  -3   0    4.50    5.50
  -8  -3   0    1.20    4.40
   8   3   0    6.60    4.90
   8   3   0    0.50    5.00
   8   3   0   -6.20    4.80
   8   3   0   -2.60    4.80
  -9  -3   0    9.30    6.20
  -9  -3   0   14.80    6.80
  -9  -3   0   11.10    7.30
  -9  -3   0   23.90    6.50
  -9  -3   0   15.20    6.40
  -9  -3   0    9.40    5.10
   9   3   0    4.00    6.90
   9   3   0   22.90    8.10
   9   3   0    4.20    6.80
   9   3   0   17.30    8.40
   9   3   0    5.20    7.30
 -10  -3   0   14.70    7.10
 -10  -3   0   22.20    8.80
 -10  -3   0   16.10    9.40
 -10  -3   0    9.20    7.90
 -10  -3   0    1.30    8.40
 -10  -3   0    0.40   10.50
  10   3   0   10.20    5.60
  11   3   0   36.30   14.80
  11   3   0   -0.80    6.00
   9  -4   0    7.00    9.90
   8  -4   0   10.50    8.90
  -8   4   0   31.60   10.20
   7  -4   0   17.70    8.90
   7  -4   0    1.40    6.80
   7  -4   0   -2.90    6.50
  -7   4   0    4.00    6.60
  -7   4   0   16.00    7.20
  -7   4   0   15.90    6.30
  -7   4   0   15.80    7.30
   6  -4   0   33.60    7.60
   6  -4   0   35.10    7.30
   6  -4   0   26.60    5.80
   6  -4   0   33.50    5.90
  -6   4   0   20.40    5.50
  -6   4   0   37.20    5.50
  -6   4   0   30.20    6.20
  -6   4   0   21.70    5.70
   5  -4   0   13.80    5.20
   5  -4   0   -6.60    3.70
   5  -4   0    7.90    5.10
  -5   4   0    5.40    4.90
  -5   4   0    3.80    4.00
  -5   4   0    1.90    4.00
  -5   4   0    6.30    3.00
  -5   4   0    5.40    3.60
   4  -4   0   90.49    7.50
   4  -4   0   92.89    6.80
   4  -4   0   82.99    5.70
   4  -4   0   87.39    5.90
  -4   4   0   83.39    4.80
  -4   4   0   86.69    6.60
  -4   4   0   83.69    6.10
  -4   4   0   89.99    6.40
   3  -4   0   98.59    4.80
   3  -4   0   79.09    5.60
   3  -4   0   93.89    5.40
   3  -4   0   82.09    6.80
   3  -4   0   74.49    6.00
  -3   4   0   87.59    5.40
  -3   4   0   96.09    5.70
  -3   4   0   92.19    5.30
  -3   4   0   92.09    4.50
  -3   4   0   89.39    5.50
   2  -4   0   70.29    4.70
   2  -4   0   70.69    4.30
   2  -4   0   72.59    5.60
   2  -4   0   74.29    4.40
   2  -4   0   70.69    3.60
  -2   4   0   68.79    4.50
  -2   4   0   71.69    4.50
  -2   4   0   74.49    4.40
  -2   4   0   76.09    4.60
   1  -4   0 1146.59   23.60
   1  -4   0 1159.78   24.10
   1  -4   0 1148.09   25.20
   1  -4   0 1128.09   23.70
   1  -4   0 1137.79   21.80
   1  -4   0 1165.48   22.80
  -1   4   0 1120.59   24.00
  -1   4   0 1135.79   24.00
  -1   4   0 1140.19   23.90
  -1   4   0 1134.19   23.90
   0  -4   0  986.80   20.70
   0  -4   0 1002.30   20.80
   0  -4   0 1002.60   20.90
   0  -4   0  888.21   21.30
   0  -4   0  981.60   21.40
   0   4   0 1020.40   20.80
   0   4   0  981.50   20.70
   0   4   0  990.70   21.00
   0   4   0  991.10   20.80
  -1  -4   0  301.87    8.10
  -1  -4   0  289.87    8.10
  -1  -4   0  287.77    8.20
  -1  -4   0  284.67    8.10
   1   4   0  289.67    8.30
   1   4   0  295.17    8.10
   1   4   0  295.47    8.20
   1   4   0  298.47    8.10
  -2  -4   0    0.50    0.90
  -2  -4   0   -0.10    1.50
  -2  -4   0    1.50    1.60
  -2  -4   0    0.80    1.50
  -2  -4   0    0.70    1.60
   2   4   0    2.00    1.40
   2   4   0    2.20    1.50
   2   4   0    1.70    1.50
   2   4   0    0.60    1.50
   2   4   0    1.00    1.80
  -3  -4   0  851.31   18.70
  -3  -4   0  867.11   19.00
  -3  -4   0  858.51   18.70
  -3  -4   0  842.32   17.40
  -3  -4   0  887.71   18.70
  -3  -4   0  862.11   18.90
   3   4   0  846.62   19.00
   3   4   0  861.21   18.90
   3   4   0  842.02   18.70
   3   4   0  844.02   18.60
   3   4   0  861.31   18.40
   3   4   0  838.82   17.80
  -4  -4   0   43.70    4.90
  -4  -4   0   50.19    4.80
  -4  -4   0   43.00    5.00
  -4  -4   0   53.89    5.00
   4   4   0   41.50    4.70
   4   4   0   42.50    5.00
   4   4   0   50.19    4.90
  -5  -4   0   74.79    5.30
  -5  -4   0   71.29    5.10
  -5  -4   0   82.29    5.00
  -5  -4   0   81.69    4.70
  -5  -4   0   77.89    5.30
  -5  -4   0   82.29    5.50
   5   4   0   86.39    3.60
   5   4   0   77.59    5.40
   5   4   0   77.19    6.00
   5   4   0   81.29    5.00
   5   4   0   65.89    5.30
   5   4   0   69.39    5.30
   5   4   0   79.59    5.10
  -6  -4   0  109.19    6.10
  -6  -4   0  101.19    6.50
  -6  -4   0  109.69    5.90
  -6  -4   0  111.59    6.90
  -6  -4   0  105.69    6.40
  -6  -4   0  107.99    6.30
   6   4   0  110.59    6.60
   6   4   0  111.99   12.30
   6   4   0  103.79    6.40
   6   4   0  114.39    7.10
   6   4   0  103.99    6.80
   6   4   0   95.59    6.40
  -7  -4   0   61.29    6.20
  -7  -4   0   66.69   11.10
  -7  -4   0   60.89    6.20
  -7  -4   0   71.59    6.60
  -7  -4   0   60.79    6.70
  -7  -4   0   71.69    7.00
   7   4   0   66.39    7.70
   7   4   0   79.49    7.20
   7   4   0   64.69    6.60
   7   4   0   72.19    6.90
   7   4   0   67.79    7.30
   7   4   0   72.19    7.50
  -8  -4   0   -4.00    4.80
  -8  -4   0    0.20    5.10
  -8  -4   0    6.20    5.60
  -8  -4   0   -1.00    4.60
  -8  -4   0   -2.90    4.90
  -8  -4   0    5.80    4.50
   8   4   0    1.50    5.20
   8   4   0    2.30    5.20
   8   4   0    1.00    4.60
   8   4   0   -1.20    5.10
   8   4   0    6.60    5.20
  -9  -4   0    0.10    6.60
  -9  -4   0    4.60    7.40
  -9  -4   0   -1.70    5.70
  -9  -4   0    7.90    5.40
  -9  -4   0    0.30    5.70
  -9  -4   0    4.60    6.20
   9   4   0    6.00    7.30
   9   4   0   -1.20   13.40
   9   4   0   -1.40    6.40
   9   4   0   11.50    7.50
   9   4   0   11.20    8.30
 -10  -4   0  -20.70    8.80
 -10  -4   0   -9.20    6.50
 -10  -4   0   -3.30    8.40
 -10  -4   0   -2.10    8.10
 -10  -4   0    3.80   10.30
  10   4   0    3.70    9.10
  10   4   0   -1.90    8.70
  11   4   0    4.30    6.30
  12   4   0   -9.80    7.40
   8  -5   0   11.90    8.30
   7  -5   0   11.30    9.00
   7  -5   0   17.80    8.10
  -7   5   0   10.90    8.80
  -7   5   0    6.90    8.90
   6  -5   0   35.40    7.00
   6  -5   0   27.50    8.90
   6  -5   0   34.10    7.60
   6  -5   0   28.50    8.40
   6  -5   0   38.60    7.30
  -6   5   0   52.79    7.70
  -6   5   0   41.30    7.40
  -6   5   0   51.19    7.00
  -6   5   0   39.00    7.50
   5  -5   0   34.10    7.10
   5  -5   0   27.80    5.40
   5  -5   0   22.70    5.40
   5  -5   0   27.80    5.30
   5  -5   0   23.10    6.60
  -5   5   0   26.60    5.50
  -5   5   0   22.60    5.20
  -5   5   0   23.40    5.90
  -5   5   0   32.30    6.00
   4  -5   0   33.90    6.30
   4  -5   0   27.90    5.60
   4  -5   0   29.00    4.60
  -4   5   0   31.40    6.60
  -4   5   0   31.70    5.20
   3  -5   0    6.40    3.50
   3  -5   0    9.00    3.70
   3  -5   0    9.10    2.80
   3  -5   0   12.00    4.80
  -3   5   0   12.60    3.70
  -3   5   0   11.50    3.70
  -3   5   0    7.80    3.70
  -3   5   0    6.70    3.10
   2  -5   0  561.14   14.90
   2  -5   0  560.64   12.60
   2  -5   0  564.84   14.40
   2  -5   0  571.24   13.10
   2  -5   0  534.65   16.10
  -2   5   0  550.24   14.60
  -2   5   0  567.94   14.70
  -2   5   0  550.24   14.70
  -2   5   0  551.74   14.40
   1  -5   0   47.30    4.90
   1  -5   0   47.50    4.40
   1  -5   0   44.80    3.50
   1  -5   0   50.59    4.30
   1  -5   0   40.50    4.30
   1  -5   0   41.40    4.10
  -1   5   0   52.09    4.50
  -1   5   0   50.19    4.30
  -1   5   0   48.60    4.20
  -1   5   0   42.30    4.20
   0  -5   0 1369.06   27.00
   0  -5   0 1351.26   28.20
   0  -5   0 1340.37   28.10
   0  -5   0 1352.76   28.00
   0   5   0 1360.06   28.40
   0   5   0 1347.17   28.00
   0   5   0 1332.57   28.00
   0   5   0 1308.37   28.00
  -1  -5   0  489.95   12.60
  -1  -5   0  497.65   12.70
  -1  -5   0  497.75   12.60
  -1  -5   0  486.75   12.40
   1   5   0  477.05   12.40
   1   5   0  485.65   12.50
   1   5   0  489.75   12.70
   1   5   0  502.45   13.00
  -2  -5   0  317.77    9.30
  -2  -5   0  307.57    9.10
  -2  -5   0  320.97    9.50
  -2  -5   0  307.57    9.20
   2   5   0  312.07    9.30
   2   5   0  309.57    9.10
   2   5   0  301.67    9.40
   2   5   0  306.87    9.10
   2   5   0  315.17    9.60
  -3  -5   0  212.98    7.60
  -3  -5   0  206.28    5.70
  -3  -5   0  197.28    7.10
  -3  -5   0  199.68    7.30
  -3  -5   0  203.08    7.50
   3   5   0  200.78    7.70
   3   5   0  198.18    7.20
   3   5   0  199.28    7.20
   3   5   0  205.18    7.50
   3   5   0  198.98    7.10
  -4  -5   0  145.39    5.50
  -4  -5   0  146.89    6.50
  -4  -5   0  147.99    6.60
  -4  -5   0  156.78    6.90
  -4  -5   0  160.78    7.20
  -4  -5   0  146.49    6.70
   4   5   0  150.18    6.00
   4   5   0  146.99    6.50
   4   5   0  157.68    7.00
   4   5   0  159.88    6.90
   4   5   0  160.38    6.30
   4   5   0  156.48    7.20
  -5  -5   0  144.69    7.10
  -5  -5   0  137.69    6.90
  -5  -5   0  136.19    6.00
  -5  -5   0  138.79    7.00
  -5  -5   0  144.09    6.70
  -5  -5   0  138.19    7.50
   5   5   0  135.99    7.00
   5   5   0  131.89    7.20
   5   5   0  133.69    6.80
   5   5   0  144.79    7.80
   5   5   0  138.69    6.90
   5   5   0  149.09    6.60
  -6  -5   0   31.30    5.90
  -6  -5   0   33.60    4.70
  -6  -5   0   41.80    5.30
  -6  -5   0   41.60    5.40
  -6  -5   0   46.80    4.60
  -6  -5   0   32.80    5.00
   6   5   0   34.70    5.00
   6   5   0   34.60    4.70
   6   5   0   41.90    5.60
   6   5   0   32.70    4.80
   6   5   0   36.80    4.90
   6   5   0   32.80    5.90
  -7  -5   0    9.30    4.00
  -7  -5   0   11.00    3.70
  -7  -5   0    4.80    4.40
  -7  -5   0    8.00    5.00
  -7  -5   0    6.20    4.40
   7   5   0   22.40    4.90
   7   5   0    4.20    5.10
   7   5   0   16.00    4.90
   7   5   0   14.60    4.50
   7   5   0    4.70    5.00
   7   5   0   18.70    4.70
  -8  -5   0    4.40    5.20
  -8  -5   0    1.50    5.30
  -8  -5   0   17.30    6.70
  -8  -5   0   15.10    5.20
  -8  -5   0   12.80    4.50
  -8  -5   0    8.20    4.80
   8   5   0   -2.30    6.30
   8   5   0   18.20    6.30
   8   5   0    8.10    5.70
   8   5   0    8.40    5.80
   8   5   0   10.90    5.60
   8   5   0    6.80    5.90
  -9  -5   0    5.50    6.30
  -9  -5   0    5.70    5.20
  -9  -5   0   12.60    6.90
  -9  -5   0   11.60    6.70
  -9  -5   0   15.00    7.00
  -9  -5   0   21.40   12.50
   9   5   0   19.80    7.90
   9   5   0    8.40    7.30
   9   5   0    8.60    7.70
   9   5   0   -4.80    7.90
   9   5   0   16.60    8.70
 -10  -5   0    2.10    8.60
 -10  -5   0   20.10   10.20
 -10  -5   0   20.70    8.70
 -10  -5   0    3.20    9.20
 -10  -5   0   18.90    8.70
 -10  -5   0    4.10    6.90
  10   5   0   23.40    9.50
  10   5   0    8.30    9.20
 -11  -5   0   17.40   12.80
  11   5   0   14.40   12.10
  12   5   0   -1.20    6.60
   7  -6   0    9.70    9.40
   6  -6   0   32.00    8.30
   6  -6   0   33.00    8.90
   6  -6   0   30.60   10.50
  -6   6   0   48.90    8.80
  -6   6   0   26.90    8.30
   5  -6   0   73.99   10.10
   5  -6   0   68.19    9.60
   5  -6   0   69.59    8.60
   5  -6   0   74.79    9.50
   5  -6   0   82.49   11.70
  -5   6   0   74.39    9.40
  -5   6   0   84.99    9.40
  -5   6   0   75.19    8.50
  -5   6   0   74.09    8.20
   4  -6   0   23.80    7.00
   4  -6   0   29.30    6.60
   4  -6   0   33.40    5.10
   4  -6   0   28.70    7.20
   4  -6   0   28.00    5.70
   4  -6   0   30.50    5.00
  -4   6   0   17.50    4.90
  -4   6   0   24.90    5.70
  -4   6   0   25.10    5.40
   3  -6   0  140.09    8.90
   3  -6   0  137.39    6.50
   3  -6   0  146.99    9.40
  -3   6   0  123.89    8.20
  -3   6   0  146.69    7.90
  -3   6   0  142.09    8.20
   2  -6   0   30.80    4.70
   2  -6   0   31.30    6.00
   2  -6   0   30.50    4.70
   2  -6   0   27.90    4.20
   2  -6   0   29.10    3.50
  -2   6   0   41.10    5.50
  -2   6   0   37.80    5.00
  -2   6   0   32.50    4.90
  -2   6   0   26.60    4.70
   1  -6   0 1383.26   29.30
   1  -6   0 1396.86   29.20
   1  -6   0 1357.86   29.50
   1  -6   0 1302.67   30.70
   1  -6   0 1348.37   29.60
   1  -6   0 1369.26   27.80
  -1   6   0 1351.26   29.30
  -1   6   0 1344.47   29.40
  -1   6   0 1329.57   29.50
  -1   6   0 1342.47   29.40
   0  -6   0  403.56   12.00
   0  -6   0  407.06   10.80
   0  -6   0  401.36   12.00
   0  -6   0  406.86   11.80
   0  -6   0  410.96   12.00
   0   6   0  401.56   12.10
   0   6   0  390.16   11.80
   0   6   0  414.86   11.90
   0   6   0  391.16   11.70
  -1  -6   0 2203.68   43.80
  -1  -6   0 2181.78   43.50
  -1  -6   0 2235.78   44.20
  -1  -6   0 2164.08   43.70
   1   6   0 2179.38   43.70
   1   6   0 2213.18   43.80
   1   6   0 2183.08   44.00
   1   6   0 2149.39   44.20
  -2  -6   0  331.57   10.40
  -2  -6   0  314.67    9.90
  -2  -6   0  311.97   10.40
  -2  -6   0  312.87   10.10
   2   6   0  322.67   10.30
   2   6   0  304.27    9.80
   2   6   0  321.67   10.50
   2   6   0  310.37   10.50
   2   6   0  320.57   10.00
  -3  -6   0   37.00    4.80
  -3  -6   0   40.50    4.60
  -3  -6   0   47.50    4.40
  -3  -6   0   37.00    4.60
   3   6   0   52.59    4.60
   3   6   0   46.40    4.80
   3   6   0   40.80    4.40
   3   6   0   42.10    4.40
   3   6   0   47.60    5.20
  -4  -6   0  102.09    6.10
  -4  -6   0   98.49    6.40
  -4  -6   0   99.09    6.60
  -4  -6   0  100.89    6.10
  -4  -6   0   94.39    4.50
   4   6   0  104.99    6.90
   4   6   0  107.19    6.50
   4   6   0   99.69    6.00
   4   6   0   94.59    6.00
   4   6   0   96.79    5.60
  -5  -6   0  195.38    8.60
  -5  -6   0  198.88    9.10
  -5  -6   0  205.18    7.20
  -5  -6   0  201.88    8.60
  -5  -6   0  180.68    8.50
  -5  -6   0  180.68   10.80
   5   6   0  206.48    8.70
   5   6   0  210.68    9.30
   5   6   0  197.58    8.10
   5   6   0  200.88    9.80
   5   6   0  202.68    7.90
   5   6   0  196.38    8.40
  -6  -6   0  294.27   11.40
  -6  -6   0  265.17   11.90
  -6  -6   0  294.47    9.60
  -6  -6   0  308.57   11.50
  -6  -6   0  295.47   11.00
  -6  -6   0  275.07   11.80
   6   6   0  294.07   10.90
   6   6   0  290.57   12.30
   6   6   0  312.87   10.60
   6   6   0  287.37   11.30
   6   6   0  280.97   11.40
   6   6   0  278.67   12.20
  -7  -6   0   57.39    8.10
  -7  -6   0   54.49    6.70
  -7  -6   0   73.09    8.50
  -7  -6   0   54.99    6.40
  -7  -6   0   51.59    7.30
  -7  -6   0   48.50    7.10
   7   6   0   62.69    7.90
   7   6   0   50.19    6.80
   7   6   0   59.79    7.10
   7   6   0   73.69    9.00
   7   6   0   66.99    7.30
   7   6   0   61.99    7.60
  -8  -6   0    4.20    6.20
  -8  -6   0    3.50    4.80
  -8  -6   0   -1.40    5.20
  -8  -6   0    3.00    4.90
  -8  -6   0   -5.50    6.40
  -8  -6   0    2.90    5.30
   8   6   0   -3.30    5.80
   8   6   0   -3.20    5.50
   8   6   0    1.30    5.40
   8   6   0   -5.00    5.60
   8   6   0   -8.90    6.10
   8   6   0   -1.10    7.00
  -9  -6   0    6.60    6.60
  -9  -6   0    1.70    7.10
  -9  -6   0   -8.30    8.40
  -9  -6   0   -6.00    6.50
  -9  -6   0    0.60    6.40
  -9  -6   0    3.80    5.00
   9   6   0   -1.80    8.50
   9   6   0   13.80    7.00
   9   6   0  -18.10    8.20
   9   6   0   -1.00    8.70
   9   6   0   -0.70    7.00
   9   6   0    4.30    7.80
 -10  -6   0   24.30    9.20
 -10  -6   0   17.20   10.80
 -10  -6   0    1.50    8.50
 -10  -6   0   -7.20    9.70
 -10  -6   0    5.20    9.30
  10   6   0   33.70   10.40
  10   6   0   30.70   10.60
 -11  -6   0  -19.80   12.80
  11   6   0   34.20   13.30
   7  -7   0   21.70   11.10
   6  -7   0    8.40    8.00
   5  -7   0   13.60    7.20
   5  -7   0   22.30    7.40
   5  -7   0   18.60    9.90
  -5   7   0   21.10    8.10
  -5   7   0   12.50   10.80
  -5   7   0   12.80    7.90
   4  -7   0   -4.50    6.90
   4  -7   0    0.90    6.20
   4  -7   0    5.10    7.10
   4  -7   0    0.90    5.30
   4  -7   0    8.40    6.60
  -4   7   0    1.20    5.90
  -4   7   0    3.30    5.60
  -4   7   0   -8.50    5.70
   3  -7   0   -1.40    4.50
   3  -7   0   -2.60    5.60
   3  -7   0   -7.00    6.60
   3  -7   0    2.30    5.80
   3  -7   0   14.40    5.40
  -3   7   0    0.20    5.20
  -3   7   0   -0.40    5.00
  -3   7   0    2.10    4.80
  -3   7   0    2.20    4.70
   2  -7   0   65.99    7.60
   2  -7   0   64.59    7.60
  -2   7   0   70.69    7.40
  -2   7   0   84.49    7.00
  -2   7   0   74.99    7.40
  -2   7   0   70.59    7.30
   1  -7   0    1.40    3.50
   1  -7   0    2.30    3.90
   1  -7   0    2.40    3.80
   1  -7   0   -2.10    4.00
  -1   7   0   -1.30    3.70
  -1   7   0   -0.60    3.60
  -1   7   0   -2.50    3.40
  -1   7   0    3.00    3.80
   0  -7   0    3.40    3.30
   0  -7   0    3.70    3.40
   0  -7   0    1.30    3.60
   0  -7   0    5.40    3.80
   0  -7   0    8.20    3.90
   0   7   0   -0.20    3.90
   0   7   0    3.50    3.20
   0   7   0    7.50    3.60
   0   7   0    3.70    3.50
  -1  -7   0  219.88    9.30
  -1  -7   0  223.88    9.40
  -1  -7   0  224.18    9.50
  -1  -7   0  216.38    9.00
   1   7   0  212.58    8.80
   1   7   0  214.28    9.00
   1   7   0  215.68    9.40
   1   7   0  215.98    9.00
  -2  -7   0   99.49    7.10
  -2  -7   0   96.89    6.90
  -2  -7   0   95.49    6.40
  -2  -7   0  100.99    6.90
   2   7   0  103.89    6.90
   2   7   0   92.99    7.20
   2   7   0  101.29    6.90
   2   7   0  101.99    6.50
   2   7   0  100.69    6.40
  -3  -7   0    0.60    3.20
  -3  -7   0   -0.70    3.40
  -3  -7   0   -0.30    3.40
   3   7   0    2.10    2.90
   3   7   0    7.10    3.90
   3   7   0   -0.90    2.80
   3   7   0   -3.30    3.00
   3   7   0    2.70    2.80
  -4  -7   0   77.39    6.40
  -4  -7   0   74.39    4.30
  -4  -7   0   84.89    7.10
  -4  -7   0   94.79    6.80
   4   7   0   70.59    6.10
   4   7   0   70.19    6.50
   4   7   0   79.39    7.50
   4   7   0   80.89    6.20
   4   7   0   78.59    6.00
  -5  -7   0   43.90    6.10
  -5  -7   0   41.10    4.40
  -5  -7   0   51.19    7.00
  -5  -7   0   56.29    7.00
  -5  -7   0   43.70    5.50
   5   7   0   45.40    6.00
   5   7   0   45.50    6.10
   5   7   0   50.89   10.90
   5   7   0   53.69    6.50
   5   7   0   50.19    5.60
  -6  -7   0    3.50    4.40
  -6  -7   0   -3.80    4.20
  -6  -7   0   -0.10    3.00
  -6  -7   0    7.10    5.30
  -6  -7   0   -5.30    4.60
  -6  -7   0    1.10    4.20
   6   7   0    6.10    4.40
   6   7   0   -1.80    3.60
   6   7   0   -5.30    4.20
   6   7   0   -0.20    4.80
   6   7   0    2.30    5.10
   6   7   0    3.10    4.60
  -7  -7   0   67.89    9.40
  -7  -7   0   59.29    8.00
  -7  -7   0   77.69    8.90
   7   7   0   55.79    8.50
   7   7   0   65.09    9.00
  -8  -7   0   10.30    5.60
  -8  -7   0   14.20    6.50
  -8  -7   0   -2.20    6.90
  -8  -7   0    0.90    6.90
  -8  -7   0   -2.40    6.00
  -8  -7   0    9.30    5.50
   8   7   0   -2.60    5.80
   8   7   0   16.90    8.00
   8   7   0   12.70    6.10
   8   7   0    6.40    6.20
   8   7   0   10.70    7.30
  -9  -7   0   -8.40    7.00
  -9  -7   0   28.20    7.60
  -9  -7   0   10.40    8.90
  -9  -7   0    2.60    7.80
  -9  -7   0   -1.30    8.20
  -9  -7   0    8.40    6.10
   9   7   0   17.00    9.50
   9   7   0    1.70    7.90
   9   7   0    5.70    8.10
   9   7   0    4.90    7.20
   9   7   0    9.70    8.00
 -10  -7   0    1.70    7.40
 -10  -7   0   -1.20    9.90
 -10  -7   0    0.90   10.30
 -10  -7   0   -5.30    9.40
 -10  -7   0    6.00   11.20
  10   7   0   23.00   10.70
  10   7   0   -4.50   10.60
  10   7   0    3.40   12.30
 -11  -7   0  -12.00   13.60
  11   7   0   13.50   14.40
   6  -8   0    4.80   10.10
   5  -8   0   60.19   11.10
   4  -8   0    5.40    9.70
   4  -8   0   19.10    8.20
  -4   8   0   15.30    8.00
  -4   8   0    0.20    7.80
   3  -8   0   75.79    9.10
   3  -8   0   57.59    8.50
   3  -8   0   73.69   18.10
   3  -8   0   60.99    9.50
  -3   8   0   77.79    9.90
  -3   8   0   67.99    8.20
  -3   8   0   79.79   10.70
  -3   8   0   61.99    8.00
   2  -8   0  128.99    9.60
   2  -8   0  120.79   10.60
   2  -8   0  118.79   10.50
   2  -8   0  108.19    9.20
  -2   8   0  111.49    9.70
  -2   8   0  118.09    9.00
  -2   8   0  114.09    9.30
  -2   8   0  129.99    9.40
   1  -8   0   12.10    5.20
   1  -8   0   17.40    5.40
   1  -8   0    6.40    5.20
   1  -8   0    1.00    4.30
   1  -8   0   -0.10    4.50
  -1   8   0   11.00    4.60
  -1   8   0    7.00    5.50
  -1   8   0   -0.90    4.70
  -1   8   0    5.30    4.50
   0  -8   0   23.30    5.00
   0  -8   0   23.00    4.60
   0   8   0   28.10    5.40
   0   8   0   20.20    5.10
   0   8   0   18.00    4.90
   0   8   0   26.80    6.20
  -1  -8   0 1007.20   22.80
  -1  -8   0  979.50   24.10
  -1  -8   0  918.51   23.70
  -1  -8   0  979.90   23.80
   1   8   0  985.00   27.00
   1   8   0  989.50   24.80
   1   8   0  967.10   24.20
   1   8   0  955.70   26.50
  -2  -8   0 1496.45   33.60
  -2  -8   0 1512.35   33.50
  -2  -8   0 1475.45   32.80
   2   8   0 1461.55   34.50
   2   8   0 1541.75   34.50
   2   8   0 1518.15   33.90
   2   8   0 1503.15   33.30
   2   8   0 1496.65   33.20
  -3  -8   0  264.07   11.40
  -3  -8   0  263.37   10.70
  -3  -8   0  275.77   11.20
   3   8   0  279.47   11.40
   3   8   0  261.27   10.70
   3   8   0  275.37   12.20
   3   8   0  266.47   11.00
   3   8   0  269.77   11.40
  -4  -8   0  214.38   10.10
  -4  -8   0  201.08    9.80
  -4  -8   0  202.48   10.20
   4   8   0  201.48   10.30
   4   8   0  191.28    9.60
   4   8   0  209.98   11.20
   4   8   0  190.28   11.40
   4   8   0  189.48    9.60
  -5  -8   0   11.60    5.70
  -5  -8   0   13.50    5.00
  -5  -8   0    9.30    4.90
  -5  -8   0   10.50    4.70
  -5  -8   0   14.10    3.20
   5   8   0    6.40    4.90
   5   8   0    7.70    5.50
   5   8   0   15.20    5.40
   5   8   0    3.60    4.20
   5   8   0   10.00    4.60
  -6  -8   0   79.39    9.20
  -6  -8   0   72.59    6.40
  -6  -8   0   79.69    9.40
  -6  -8   0   82.39    8.90
  -6  -8   0   73.49    8.40
   6   8   0   80.39    8.80
   6   8   0   74.29    8.40
   6   8   0   59.19    8.00
   6   8   0   81.69    9.30
   6   8   0   69.29    8.80
  -7  -8   0  141.09   12.10
  -7  -8   0  140.29    8.70
  -7  -8   0  157.48   10.90
  -7  -8   0  123.19   11.10
  -7  -8   0  131.59   11.30
   7   8   0  132.09   11.00
   7   8   0  154.88   12.30
   7   8   0  143.99   10.60
   7   8   0  129.19   12.00
  -8  -8   0   43.50    9.20
  -8  -8   0   24.20    8.90
  -8  -8   0   51.29    8.40
  -8  -8   0   40.50    7.80
  -8  -8   0   33.80    6.10
  -8  -8   0   27.50    8.60
   8   8   0   40.70    8.30
   8   8   0   39.10    7.70
   8   8   0   38.20    8.00
   8   8   0   15.40    8.90
   8   8   0   38.40   10.00
  -9  -8   0   30.50    7.40
  -9  -8   0   44.30    8.90
  -9  -8   0   34.40    8.70
  -9  -8   0   14.30   10.30
  -9  -8   0   21.80    8.50
   9   8   0   40.50    9.10
   9   8   0   33.00    9.60
   9   8   0   26.50   10.20
   9   8   0   17.60   11.00
   9   8   0   44.90   10.30
 -10  -8   0   12.90   11.00
 -10  -8   0   -7.60   13.00
 -10  -8   0    5.60   10.70
 -10  -8   0   10.60    8.10
 -10  -8   0   17.80   11.10
  10   8   0    3.20   11.50
  10   8   0   -7.30   11.00
  10   8   0   32.70   12.00
 -11  -8   0    2.00   16.90
   5  -9   0   31.80   11.40
   4  -9   0   -0.80    8.30
  -3   9   0   42.90    9.20
  -3   9   0   38.30    9.00
   2  -9   0    0.60    7.90
   2  -9   0  -10.60    7.90
  -2   9   0    5.60    6.80
  -2   9   0   -6.30    6.60
  -2   9   0    1.30    6.70
  -2   9   0    5.80    8.10
   1  -9   0   -4.40    6.70
   1  -9   0    5.40    6.80
   1  -9   0    0.80    5.40
   1  -9   0   -6.50    6.50
   1  -9   0    2.30    6.30
  -1   9   0    2.70    5.70
  -1   9   0    2.60    6.80
  -1   9   0    6.80    5.70
  -1   9   0    2.50    6.00
   0  -9   0   37.40    7.10
   0  -9   0   34.70    6.30
   0  -9   0   64.59    9.10
   0  -9   0   42.30    7.20
   0  -9   0   45.80    6.70
   0   9   0   45.00    6.60
   0   9   0   32.40    6.40
   0   9   0   41.60    7.70
   0   9   0   44.50    7.10
  -1  -9   0    5.10    5.30
  -1  -9   0    1.20    5.50
  -1  -9   0    3.50    5.60
  -1  -9   0    1.20    4.40
  -1  -9   0   -5.10    5.60
   1   9   0    0.00    4.40
   1   9   0    8.50    5.60
   1   9   0    1.90    6.20
   1   9   0    2.80    5.30
   1   9   0   -8.00    4.70
  -2  -9   0   12.40    5.80
  -2  -9   0    8.50    5.70
  -2  -9   0   13.40    5.80
  -2  -9   0    3.30    4.50
   2   9   0    4.60    5.30
   2   9   0    0.90    5.50
   2   9   0    8.80    4.90
   2   9   0    6.60    5.00
   2   9   0   10.20    6.60
  -3  -9   0   -0.70    5.00
  -3  -9   0    6.90    5.80
  -3  -9   0    8.80    5.50
   3   9   0   13.30    5.40
   3   9   0   11.60    6.00
   3   9   0   14.80    5.90
   3   9   0    6.80    5.10
  -4  -9   0   39.90    6.90
  -4  -9   0   33.80    6.40
  -4  -9   0   39.60    7.30
   4   9   0   32.10    6.80
   4   9   0   46.70    6.70
   4   9   0   38.90    6.90
   4   9   0   33.30    7.20
   4   9   0   22.30    5.80
  -5  -9   0    6.20    5.90
  -5  -9   0   11.70    5.80
  -5  -9   0   -4.60    5.30
  -5  -9   0    5.40    6.10
   5   9   0    2.10    6.30
   5   9   0    5.60    5.20
   5   9   0    3.90    5.30
   5   9   0   10.60    5.80
   5   9   0    7.00    6.10
  -6  -9   0   60.29    7.00
  -6  -9   0   81.69   10.30
  -6  -9   0   75.09    9.80
  -6  -9   0   79.19   10.50
  -6  -9   0   74.69   10.40
   6   9   0   96.59   11.70
   6   9   0   72.09    9.20
   6   9   0   88.49   12.60
   6   9   0   79.79   10.20
   6   9   0   70.69    9.60
  -7  -9   0   -8.80    6.30
  -7  -9   0   -6.30    7.90
  -7  -9   0    6.70    7.00
  -7  -9   0   -6.00    7.70
  -7  -9   0   -5.40    4.30
   7   9   0    1.60    6.20
   7   9   0   -0.40    6.50
   7   9   0   12.70    8.30
   7   9   0    2.20    6.50
   7   9   0  -10.40    8.50
  -8  -9   0    1.90    5.70
  -8  -9   0   -6.50    7.80
   8   9   0   17.20   11.20
   8   9   0    4.80    7.70
   8   9   0    3.30    7.50
   8   9   0    3.40    9.40
   8   9   0    2.10    8.50
  -9  -9   0   25.10   10.30
  -9  -9   0    2.60    9.10
  -9  -9   0    0.10    7.20
  -9  -9   0  -15.30   11.60
   9   9   0  -21.80    9.50
   9   9   0    6.70    9.60
   9   9   0   14.80   12.80
   9   9   0    7.90    9.50
 -10  -9   0   16.70   11.60
 -10  -9   0    4.20    8.80
  10   9   0    5.40   12.40
  10   9   0    6.10   15.40
  10   9   0  -22.70   13.00
  -2  10   0    6.90    8.70
   1 -10   0    4.50    9.10
  -1  10   0    0.00   11.70
  -1  10   0    9.50    7.90
  -1  10   0  -14.80    7.20
   0 -10   0   61.39    8.00
   0 -10   0   46.30    9.70
   0 -10   0   36.90   13.70
   0  10   0   51.39   11.90
   0  10   0   44.20    8.30
   0  10   0   62.39    9.50
   0  10   0   60.39    8.70
   0  10   0   61.89    8.40
  -1 -10   0   69.89    9.20
  -1 -10   0   60.49    9.00
  -1 -10   0   57.59    8.70
  -1 -10   0   36.60    9.30
   1  10   0   43.70    8.00
   1  10   0   47.60    7.90
   1  10   0   76.39    9.50
   1  10   0   42.50    8.40
   1  10   0   79.49   11.10
  -2 -10   0   74.79   10.20
  -2 -10   0   80.09    9.50
  -2 -10   0   68.29    9.20
  -2 -10   0   85.79   11.30
   2  10   0   65.09    8.20
   2  10   0   73.19   10.50
   2  10   0   65.89    8.80
   2  10   0   56.99    9.70
   2  10   0   63.99    7.90
  -3 -10   0  106.39   11.20
  -3 -10   0  105.69   11.60
  -3 -10   0   95.69   11.40
  -3 -10   0   96.99   10.50
   3  10   0  106.69   10.20
   3  10   0  110.39    9.80
   3  10   0  101.59   10.30
   3  10   0   95.99   11.00
   3  10   0  111.09   13.50
  -4 -10   0  243.18   14.30
  -4 -10   0  224.98   14.40
  -4 -10   0  231.78   13.40
  -4 -10   0  232.08   14.40
   4  10   0  259.07   15.00
   4  10   0  227.68   12.10
   4  10   0  241.68   15.50
   4  10   0  233.68   13.10
   4  10   0  240.78   13.00
  -5 -10   0  104.49   10.90
  -5 -10   0   86.99   12.70
  -5 -10   0  113.29   12.80
  -5 -10   0   88.89   12.90
   5  10   0   83.89   10.50
   5  10   0   98.49   11.20
   5  10   0  108.09   13.90
   5  10   0   75.39   10.20
   5  10   0  102.59   10.50
  -6 -10   0   87.19   10.50
  -6 -10   0   76.99    9.60
  -6 -10   0   95.99   13.10
   6  10   0   93.69   11.70
   6  10   0   87.89   11.10
   6  10   0   86.49   10.60
   6  10   0   60.29    8.80
   6  10   0   82.19   12.30
  -7 -10   0   37.90   10.00
  -7 -10   0   46.30   10.00
  -7 -10   0   59.19    9.50
  -7 -10   0   32.80    5.90
   7  10   0   36.50    8.90
   7  10   0   25.20   11.00
   7  10   0   20.00   10.10
   7  10   0   46.60    8.90
   7  10   0   40.00    9.20
  -8 -10   0    4.40    9.40
  -8 -10   0    4.30    6.60
  -8 -10   0    7.20    9.50
   8  10   0    5.20   11.40
   8  10   0  -11.70    9.70
   8  10   0   -2.20    8.60
   8  10   0   -0.20    9.20
  -9 -10   0   14.90    8.20
  -9 -10   0    6.30   10.80
  -9 -10   0   24.20   11.60
   9  10   0   18.70   15.30
   9  10   0  -10.70   11.20
   9  10   0   -3.80   10.80
 -10 -10   0    9.50   10.80
 -10 -10   0   10.00   16.60
  10  10   0   20.90   15.00
  10  10   0   24.50   14.00
   0 -11   0    8.70    8.80
   0  11   0   26.50   10.10
  -1 -11   0   -1.50    6.90
  -1 -11   0   19.50    9.30
   1  11   0  -10.30    8.50
   1  11   0   13.00    8.90
   1  11   0  -19.60    7.60
   1  11   0    3.70   10.80
  -2 -11   0   14.90    7.80
  -2 -11   0   20.10    9.50
   2  11   0   17.30    8.10
   2  11   0   40.00   17.30
   2  11   0   16.30    7.50
   2  11   0    2.00   10.40
   2  11   0   16.70    8.50
  -3 -11   0    3.80    5.60
  -3 -11   0    9.10    9.40
  -3 -11   0    1.90    8.10
   3  11   0   15.60    7.70
   3  11   0   11.20    8.00
   3  11   0   12.70    8.90
   3  11   0   17.40    8.30
   3  11   0  -10.60   10.20
  -4 -11   0   -4.20    8.40
  -4 -11   0   -3.30    9.00
   4  11   0   17.80    9.70
   4  11   0  -10.70   10.40
   4  11   0   10.30    6.90
   4  11   0    9.70    7.40
   4  11   0   -9.10    7.80
  -5 -11   0   -2.00    8.50
  -5 -11   0   -2.00    9.20
   5  11   0   15.20    8.10
   5  11   0    5.30    7.60
   5  11   0   18.10    9.30
   5  11   0  -17.20   10.80
   5  11   0    4.30   11.40
  -6 -11   0   11.70    9.90
  -6 -11   0    2.60    9.00
   6  11   0    2.30   12.30
   6  11   0   15.50   11.30
   6  11   0    8.60    8.70
   6  11   0    4.10    8.80
   6  11   0    5.80    8.20
  -7 -11   0  143.79   16.50
  -7 -11   0   84.39   12.70
   7  11   0   74.89   11.80
   7  11   0  118.19   14.30
   7  11   0  119.39   16.00
   7  11   0  109.59   15.00
  -8 -11   0    4.60   18.80
  -8 -11   0   -4.80   11.60
   8  11   0   15.30   11.30
   8  11   0  -11.80   10.90
   9  11   0   -8.60   14.00
   9  11   0  -13.80   14.50
  -1 -12   0   14.20   10.50
  -2 -12   0   -2.50    8.10
  -3 -12   0   -3.10    7.60
  -3 -12   0    2.80   11.60
  -4 -12   0    3.70   11.20
   4  12   0    3.60   17.90
   4  12   0   -1.90   11.10
   5  12   0   22.20   15.60
   5  12   0   20.00   11.20
   5  12   0  -10.60   10.10
  -6 -12   0   42.30   12.40
   6  12   0    5.30   13.30
   6  12   0   12.20   11.20
  -7 -12   0   33.50   13.40
   7  12   0    2.70   12.40
  -2 -13   0   25.50   12.10
  -3 -13   0    2.50   10.90
  -4 -13   0  -22.30    9.20
  -5 -13   1    6.90    8.50
  -4 -13   1    7.80    9.90
  -3 -13   1   -0.90   10.80
  -2 -13   1   -9.90   11.80
  -7 -12   1   19.00   13.10
  -6 -12   1    3.40   12.30
   5  12  -1    0.30   12.70
  -5 -12   1   27.40   12.00
  -4 -12   1   50.29   12.40
  -4 -12   1    8.80    7.30
  -3 -12   1   -2.40    7.80
  -2 -12   1   -6.80    8.40
  -1 -12   1   -1.50    9.60
   0 -12   1   -9.60   12.40
   8  11  -1   36.30   12.20
   8  11  -1   16.00   12.40
  -8 -11   1   14.80   12.30
   7  11  -1    8.50    9.60
   7  11  -1   36.90   10.50
  -7 -11   1   40.60   10.90
   6  11  -1  114.89   14.40
   6  11  -1  126.59   15.30
   6  11  -1  180.68   14.60
   6  11  -1  160.18   14.50
   6  11  -1  178.08   23.80
  -6 -11   1  144.69   17.10
  -6 -11   1  192.48   16.00
   5  11  -1  108.19   14.20
   5  11  -1  109.99   13.30
   5  11  -1   89.19   13.10
   5  11  -1  108.19   13.10
   5  11  -1   95.79   12.40
  -5 -11   1  116.29   14.50
  -5 -11   1   91.69   11.70
   4  11  -1   31.60    7.90
   4  11  -1   25.70    9.90
   4  11  -1   22.40    8.90
   4  11  -1   32.80   11.80
   4  11  -1   27.40    9.00
  -4 -11   1   24.10    9.00
   3  11  -1   19.20    8.00
   3  11  -1    1.10   10.20
   3  11  -1    3.80    8.80
   3  11  -1   22.60    8.90
   3  11  -1   17.90    6.90
  -3 -11   1   27.20    8.60
  -3 -11   1   16.00    9.00
  -3 -11   1   12.90    6.10
   2  11  -1   34.60    8.50
   2  11  -1   54.09    9.50
   2  11  -1   44.20   10.90
   2  11  -1   50.29    8.70
  -2 -11   1   40.90    8.30
  -2 -11   1   65.49   10.20
   1  11  -1   20.00    9.80
   1  11  -1   15.70    8.00
   1  11  -1   -7.90    7.40
  -1 -11   1   26.20    9.90
  -1 -11   1   14.70    7.80
   0  11  -1   16.70    8.60
   0 -11   1    3.60    8.60
  10  10  -1  -29.80   16.20
 -10 -10   1   31.90   17.00
   9  10  -1    0.10   12.00
   9  10  -1    4.80   12.40
  -9 -10   1   -4.30    8.90
  -9 -10   1    3.70   13.40
  -9 -10   1  -11.30   11.50
   8  10  -1   32.00   12.20
   8  10  -1   22.80   10.00
   8  10  -1   20.20   10.40
   8  10  -1   31.10    9.50
  -8 -10   1   22.20   10.60
  -8 -10   1   31.20    7.40
   7  10  -1    0.00    7.40
   7  10  -1   31.40    8.30
   7  10  -1    3.70    8.60
   7  10  -1  -13.80   10.20
   7  10  -1    4.60   11.00
  -7 -10   1    3.80    8.50
  -7 -10   1    5.00    5.40
  -7 -10   1   14.50    9.20
   6  10  -1   -2.50    6.90
   6  10  -1   11.70   11.80
   6  10  -1    4.30    7.40
   6  10  -1   11.60    6.70
   6  10  -1   -1.00    9.20
  -6 -10   1   18.40    8.70
  -6 -10   1  -14.20    7.90
  -6 -10   1   -3.40    7.50
   5  10  -1   -3.20    5.90
   5  10  -1   13.80    6.70
   5  10  -1   15.30    8.60
   5  10  -1    4.90    6.60
   5  10  -1   -7.00    7.90
  -5 -10   1    9.90    7.00
  -5 -10   1   -3.50    9.10
  -5 -10   1  -16.40    7.30
  -5 -10   1   -5.60    8.90
   4  10  -1   39.50    7.40
   4  10  -1   40.90    7.30
   4  10  -1   30.80    7.60
   4  10  -1   23.60    7.00
   4  10  -1   30.70    9.00
  -4 -10   1   42.80    8.60
  -4 -10   1   37.50    7.70
  -4 -10   1   22.30    7.30
  -4 -10   1   18.00    7.90
   3  10  -1    1.80    6.00
   3  10  -1   10.50    5.80
   3  10  -1    1.60    8.00
   3  10  -1    4.30    6.60
   3  10  -1    6.10    5.50
  -3 -10   1   14.50    7.40
  -3 -10   1    0.40    5.60
  -3 -10   1    2.50    7.40
  -3 -10   1    0.10    6.70
   2  10  -1   13.30    5.60
   2  10  -1    3.10    5.60
   2  10  -1    9.30    6.40
   2  10  -1   -0.50    9.50
   2  10  -1   -8.90    6.30
  -2 -10   1    2.70    6.50
  -2 -10   1   -6.00    5.00
  -2 -10   1    6.90    7.60
  -2 -10   1   -1.60    5.90
  -2 -10   1    1.70    7.30
   1  10  -1    7.80    5.50
   1  10  -1  -10.80    7.80
   1  10  -1    2.10    7.20
   1  10  -1   -8.10    5.70
   1  10  -1  -13.70    6.40
  -1 -10   1    5.30    5.40
  -1 -10   1    6.50    7.30
  -1 -10   1  -10.40    6.70
  -1 -10   1   -7.00    7.70
   0  10  -1   -3.80    8.30
   0  10  -1   -3.90    6.20
   0  10  -1    3.00    7.10
   0  10  -1    8.20    6.20
   0  10  -1   -0.70    7.00
   0 -10   1   -2.10    7.40
   0 -10   1    4.70    7.20
   0 -10   1   -7.30    6.50
  -1  10  -1   16.10    8.80
  -1  10  -1   10.80    7.50
  -1  10  -1   17.90   11.60
  -1  10  -1    4.50    7.20
   1 -10   1    5.20    8.80
   1 -10   1   21.30    8.00
  -2  10  -1   -2.80    8.10
  10   9  -1   -8.70   13.10
  10   9  -1   -1.10   13.20
 -10  -9   1  -15.40   13.20
 -10  -9   1    2.40    9.80
   9   9  -1   16.20   11.30
   9   9  -1   38.20   10.50
   9   9  -1   29.50   14.00
   9   9  -1   48.20   10.50
   9   9  -1   14.10   11.00
  -9  -9   1   15.70   10.50
  -9  -9   1   23.90    9.80
  -9  -9   1   18.90    7.90
   8   9  -1   46.20   10.80
   8   9  -1    0.00    8.40
   8   9  -1   12.90    8.60
   8   9  -1   34.50   11.80
   8   9  -1   20.00    9.20
  -8  -9   1   26.20    8.90
  -8  -9   1    6.80    6.40
  -8  -9   1   26.90    9.90
  -8  -9   1    2.40    8.60
   7   9  -1   -7.40    5.70
   7   9  -1    6.80    8.50
   7   9  -1    1.30    6.50
   7   9  -1    8.80    7.10
   7   9  -1    3.20    9.00
  -7  -9   1    6.70    6.50
  -7  -9   1   -7.80    6.50
  -7  -9   1   23.80    9.70
  -7  -9   1   -5.60    7.30
  -7  -9   1    4.10    4.80
   6   9  -1   57.29    7.90
   6   9  -1   51.79    7.40
   6   9  -1   38.60    9.10
   6   9  -1   34.80    6.90
   6   9  -1   52.99    9.30
  -6  -9   1   40.10    7.80
  -6  -9   1   34.20    4.70
  -6  -9   1   40.50    8.50
  -6  -9   1   34.00   10.20
  -6  -9   1   39.00    7.80
   5   9  -1  161.88   10.20
   5   9  -1  159.88   11.40
   5   9  -1  149.99   10.20
   5   9  -1  154.28   12.40
   5   9  -1  147.29   10.40
  -5  -9   1  150.78   11.30
  -5  -9   1  142.29   11.00
  -5  -9   1  167.98   10.70
  -5  -9   1  165.68   10.90
   4   9  -1  376.56   14.90
   4   9  -1  401.56   16.20
   4   9  -1  387.56   14.30
   4   9  -1  383.56   14.10
   4   9  -1  371.26   14.90
  -4  -9   1  381.46   15.00
  -4  -9   1  360.96   14.90
  -4  -9   1  405.56   14.50
  -4  -9   1  396.86   14.20
   3   9  -1  716.03   19.70
   3   9  -1  694.23   20.40
   3   9  -1  730.93   21.60
   3   9  -1  660.73   19.20
   3   9  -1  705.53   21.10
  -3  -9   1  674.83   19.10
  -3  -9   1  675.73   20.30
  -3  -9   1  704.53   19.80
  -3  -9   1  711.63   20.40
   2   9  -1   27.60    6.00
   2   9  -1   26.10    6.30
   2   9  -1   53.39    8.20
   2   9  -1   25.50    5.20
   2   9  -1   24.10    5.60
  -2  -9   1   36.60    6.40
  -2  -9   1   32.20    6.10
  -2  -9   1   29.10    6.40
  -2  -9   1   37.90    6.70
   1   9  -1   10.90    4.80
   1   9  -1   18.70    6.40
   1   9  -1   14.00    4.70
   1   9  -1   15.70    5.50
   1   9  -1   15.90    5.50
  -1  -9   1   16.50    6.00
  -1  -9   1   12.90    5.10
  -1  -9   1   18.00    5.80
  -1  -9   1   14.30    5.60
   0   9  -1   -2.80    4.90
   0   9  -1    7.20    5.70
   0   9  -1   10.30    5.20
   0   9  -1    0.30    4.90
   0   9  -1    1.40    6.10
   0  -9   1    6.50    5.20
   0  -9   1   -2.90    5.80
   0  -9   1    3.70    5.70
   0  -9   1    5.60    5.60
  -1   9  -1  102.49    9.80
  -1   9  -1  113.79   10.40
  -1   9  -1  119.79    9.30
  -1   9  -1  104.69    9.30
   1  -9   1  125.49    9.10
   1  -9   1  113.19   10.20
   1  -9   1  108.99    9.80
   1  -9   1  108.79   10.40
   1  -9   1  116.09   10.90
  -2   9  -1   14.20    6.40
  -2   9  -1   11.50    6.90
  -2   9  -1   29.30    7.10
  -2   9  -1   20.80    7.10
   2  -9   1   26.30    7.90
   2  -9   1   28.90    8.00
   2  -9   1   16.00    7.20
  -3   9  -1  103.09   11.90
  -3   9  -1  112.19   12.40
  -4   9  -1   39.50   10.90
   4  -9   1   28.80    8.80
   5  -9   1   -2.30    9.10
 -11  -8   1  -41.00   21.00
  10   8  -1   -1.30   12.50
  10   8  -1   11.30   13.30
  10   8  -1   23.90   12.40
 -10  -8   1    6.50    8.50
 -10  -8   1   -0.10   11.50
 -10  -8   1  -14.70   13.60
   9   8  -1  -14.90   11.40
   9   8  -1   15.60    9.90
   9   8  -1   23.30   10.20
   9   8  -1   17.40   10.00
   9   8  -1   -8.60    9.60
  -9  -8   1  -10.50    8.20
  -9  -8   1  -14.80   10.30
  -9  -8   1   -4.30    8.30
  -9  -8   1   17.90    8.90
  -9  -8   1   13.00    7.30
   8   8  -1   -4.70    6.90
   8   8  -1   14.60    7.50
   8   8  -1   17.40    7.80
   8   8  -1  -13.80    7.00
   8   8  -1  -18.80    9.10
  -8  -8   1   -7.30    7.40
  -8  -8   1   -4.10    8.80
  -8  -8   1   14.50    8.40
  -8  -8   1    6.40    6.90
  -8  -8   1  -10.60    6.90
  -8  -8   1    6.80    5.40
   7   8  -1   28.10    6.80
   7   8  -1   22.40    6.80
   7   8  -1   17.10    6.10
   7   8  -1   29.70    8.10
   7   8  -1   28.40    6.90
   7   8  -1   24.70    7.70
  -7  -8   1   13.20    4.50
  -7  -8   1   30.30    7.20
  -7  -8   1   17.70    6.70
  -7  -8   1   20.60    7.40
  -7  -8   1   19.50    6.60
  -7  -8   1   14.10    7.10
   6   8  -1    6.40    6.50
   6   8  -1    3.30    5.40
   6   8  -1    0.70    7.00
   6   8  -1   -1.90    5.40
   6   8  -1    9.00    6.00
  -6  -8   1   -1.40    6.30
  -6  -8   1    3.50    5.60
  -6  -8   1   -7.20    5.30
  -6  -8   1    4.60    3.50
  -6  -8   1    3.50    5.60
   5   8  -1   16.80    5.30
   5   8  -1   22.70    5.50
   5   8  -1   17.20    4.70
   5   8  -1   29.80    5.70
   5   8  -1   30.10    6.80
  -5  -8   1   22.60    3.40
  -5  -8   1   26.70    5.40
  -5  -8   1   34.40    6.00
  -5  -8   1   33.20    6.00
   4   8  -1  197.08    9.90
   4   8  -1  198.08   10.00
   4   8  -1  198.98   10.90
   4   8  -1  194.98    9.40
  -4  -8   1  196.68    9.70
  -4  -8   1  202.88   10.20
  -4  -8   1  178.48    9.30
   3   8  -1    9.70    4.20
   3   8  -1    2.40    4.00
   3   8  -1    5.90    4.00
   3   8  -1    8.40    4.10
   3   8  -1    5.00    4.90
  -3  -8   1   12.50    4.60
  -3  -8   1   10.20    4.70
  -3  -8   1    6.70    3.70
   2   8  -1   27.90    5.30
   2   8  -1   11.40    4.40
   2   8  -1   14.00    4.80
   2   8  -1   17.70    4.40
   2   8  -1   15.80    4.60
  -2  -8   1   19.40    5.70
  -2  -8   1   17.40    4.90
  -2  -8   1   24.70    5.00
  -2  -8   1   19.10    4.60
   1   8  -1    9.20    4.30
   1   8  -1    8.40    4.20
   1   8  -1    0.90    4.50
  -1  -8   1    7.90    4.30
  -1  -8   1   11.50    4.10
   0   8  -1   78.79    7.10
   0   8  -1   93.69    7.80
   0   8  -1   88.39    7.30
   0   8  -1   93.99    8.10
   0  -8   1   78.49    7.80
   0  -8   1   95.69    7.00
  -1   8  -1   27.60    5.30
  -1   8  -1   26.70    5.30
  -1   8  -1   23.90    5.50
  -1   8  -1   27.40    5.10
   1  -8   1   29.00    5.30
   1  -8   1   21.00    5.40
   1  -8   1   21.30    5.20
   1  -8   1   25.10    5.50
   1  -8   1   26.90    5.10
  -2   8  -1   26.70    5.90
  -2   8  -1   35.80    6.20
  -2   8  -1   44.00    6.40
  -2   8  -1   26.80    5.70
   2  -8   1   33.20    6.40
   2  -8   1   33.00    6.00
   2  -8   1   40.40    6.10
   2  -8   1   45.50    7.20
   2  -8   1   29.70    7.80
   2  -8   1   41.20    6.10
  -3   8  -1    4.30    5.70
  -3   8  -1    7.00    6.00
  -3   8  -1   -3.30    5.70
  -3   8  -1   -5.90    5.90
   3  -8   1    1.70    6.10
   3  -8   1   -4.20    6.10
   3  -8   1    2.00    6.30
  -4   8  -1   11.00    7.40
  -4   8  -1    9.50    7.50
   4  -8   1   18.70    7.90
  -5   8  -1   25.80    9.20
   5  -8   1    0.70    8.30
   6  -8   1   65.09   11.80
 -11  -7   1   19.90   16.30
  10   7  -1    1.50   11.50
  10   7  -1    8.90   11.00
  10   7  -1   11.60   12.00
 -10  -7   1   -1.70   10.90
 -10  -7   1    8.00    7.90
 -10  -7   1   10.80   10.80
 -10  -7   1   -1.30   11.90
   9   7  -1   -3.90    8.80
   9   7  -1    1.30    9.80
   9   7  -1   22.60    8.80
   9   7  -1    9.60    9.70
   9   7  -1   17.20    8.30
  -9  -7   1   14.80    9.80
  -9  -7   1    7.40    8.40
  -9  -7   1   17.00    7.50
  -9  -7   1   20.60    9.20
  -9  -7   1    6.60    8.60
  -9  -7   1   14.50    6.40
   8   7  -1   11.10    7.90
   8   7  -1   -1.30    6.80
   8   7  -1    6.70    6.50
   8   7  -1   -9.40    8.30
   8   7  -1   -3.90    6.80
   8   7  -1  -15.40    7.20
  -8  -7   1   -5.00    4.90
  -8  -7   1   -0.50    7.10
  -8  -7   1   -9.60    6.00
  -8  -7   1   -5.70    5.90
  -8  -7   1   -7.40    5.90
   7   7  -1   -3.30    5.30
   7   7  -1    5.50    6.20
   7   7  -1   -4.00    5.20
   7   7  -1   -5.20    5.40
   7   7  -1    3.60    6.20
   7   7  -1    1.30    6.30
  -7  -7   1   -3.10    5.70
  -7  -7   1   -3.20    3.80
  -7  -7   1   -9.10    5.70
  -7  -7   1   -8.10    5.80
  -7  -7   1    3.30    5.20
  -7  -7   1   -6.90    4.60
   6   7  -1   23.00    6.10
   6   7  -1   29.50    5.20
   6   7  -1   19.50    5.00
   6   7  -1   24.40    6.30
   6   7  -1   22.60    5.20
  -6  -7   1   21.00    5.50
  -6  -7   1   31.40    6.20
  -6  -7   1   23.10    5.20
  -6  -7   1   30.20    4.10
  -6  -7   1   27.30    5.80
  -6  -7   1   30.30    6.50
   5   7  -1    9.90    4.70
   5   7  -1   10.50    6.50
   5   7  -1   15.40    3.80
   5   7  -1   20.40    4.80
   5   7  -1   17.20    4.50
   5   7  -1   11.50    3.60
  -5  -7   1   11.70    3.00
  -5  -7   1   21.40    4.60
  -5  -7   1   13.80    4.80
  -5  -7   1   19.40    5.00
  -5  -7   1   14.90    4.10
   4   7  -1   53.69    6.30
   4   7  -1   52.09    7.00
   4   7  -1   50.29    5.70
   4   7  -1   57.39    5.60
   4   7  -1   47.50    5.50
  -4  -7   1   47.80    3.60
  -4  -7   1   59.89    5.70
  -4  -7   1   59.49    9.10
  -4  -7   1   54.09    6.00
  -4  -7   1   55.29    6.40
   3   7  -1  754.12   19.50
   3   7  -1  744.23   18.50
   3   7  -1  735.53   19.00
   3   7  -1  746.33   19.50
   3   7  -1  733.33   18.50
  -3  -7   1  736.13   19.00
  -3  -7   1  732.23   18.60
  -3  -7   1  742.53   18.40
  -3  -7   1  761.42   19.40
   2   7  -1    6.10    3.90
   2   7  -1    8.50    3.20
   2   7  -1    4.30    2.80
   2   7  -1    7.60    3.50
   2   7  -1    7.10    3.30
  -2  -7   1    0.00    3.10
  -2  -7   1    3.10    3.70
  -2  -7   1    4.80    3.10
  -2  -7   1    7.10    3.80
   1   7  -1  400.16   12.40
   1   7  -1  402.36   13.60
   1   7  -1  392.26   11.90
   1   7  -1  405.46   12.10
   1   7  -1  420.36   13.00
  -1  -7   1  410.46   12.30
  -1  -7   1  409.46   12.00
  -1  -7   1  402.36   12.70
  -1  -7   1  405.96   12.50
   0   7  -1  168.68    7.80
   0   7  -1  172.08    7.90
   0   7  -1  170.98    7.90
   0   7  -1  181.78    8.30
   0  -7   1  158.78    7.90
   0  -7   1  165.68    7.70
   0  -7   1  181.58    8.40
  -1   7  -1  144.59    7.70
  -1   7  -1  135.79    7.60
  -1   7  -1  139.39    7.70
  -1   7  -1  126.39    7.30
   1  -7   1  137.39    7.50
   1  -7   1  132.29    7.00
   1  -7   1  143.59    7.70
   1  -7   1  140.69    7.60
  -2   7  -1  123.49    7.80
  -2   7  -1  114.39    7.80
  -2   7  -1  116.49    7.60
   2  -7   1  123.19    9.20
   2  -7   1  125.99    7.80
   2  -7   1  132.79    7.30
   2  -7   1  136.99    8.10
  -3   7  -1   77.59    7.50
  -3   7  -1   59.09    7.50
  -3   7  -1   57.19    7.20
  -3   7  -1   58.69    7.40
   3  -7   1   56.09    7.40
   3  -7   1   57.89    7.90
   3  -7   1   58.59    7.30
   3  -7   1   67.49    7.80
   3  -7   1   63.69    9.00
  -4   7  -1   49.50    7.00
  -4   7  -1   56.19    7.30
  -4   7  -1   57.29    7.30
   4  -7   1   49.40    7.20
   4  -7   1   51.79    6.80
   4  -7   1   64.99    8.00
   4  -7   1   66.29    8.40
  -5   7  -1   16.60    9.20
  -5   7  -1    6.70    7.30
  -5   7  -1   13.50    7.80
   5  -7   1    8.20    9.40
   5  -7   1    5.50    6.90
   5  -7   1    7.00    7.10
  -6   7  -1   37.80    9.70
   6  -7   1   21.10    8.80
   7  -7   1   31.30    9.90
  11   6  -1  -31.40   14.50
 -11  -6   1  -29.20   12.80
  10   6  -1  -15.80   15.20
  10   6  -1   -4.70    9.60
 -10  -6   1   -6.20   12.00
 -10  -6   1   -0.80   10.40
 -10  -6   1    9.80   10.40
 -10  -6   1    1.70   10.00
   9   6  -1    6.80    7.90
   9   6  -1   -9.40   11.90
   9   6  -1    4.70    7.80
   9   6  -1   -1.20    8.80
   9   6  -1   -1.10    8.30
   9   6  -1  -10.20    7.90
  -9  -6   1   -2.90    8.30
  -9  -6   1    3.70    8.10
  -9  -6   1   11.20    7.50
  -9  -6   1   -2.00    8.20
  -9  -6   1   -1.10    5.80
  -9  -6   1   20.70    7.60
   8   6  -1   21.20    7.10
   8   6  -1   34.20    8.40
   8   6  -1   24.90    7.40
   8   6  -1   41.50    7.50
   8   6  -1   28.00    7.70
   8   6  -1   23.00    6.40
  -8  -6   1   26.50    7.00
  -8  -6   1   27.50    5.40
  -8  -6   1   34.00    7.90
  -8  -6   1   22.90    6.80
  -8  -6   1   33.20    7.00
  -8  -6   1   37.10    7.00
   7   6  -1   42.80    6.30
   7   6  -1   55.69    6.80
   7   6  -1   54.99    7.50
   7   6  -1   44.40    7.60
   7   6  -1   52.29    7.20
  -7  -6   1   50.39    7.70
  -7  -6   1   52.79    7.10
  -7  -6   1   39.90    8.10
  -7  -6   1   61.79    6.50
  -7  -6   1   48.00    7.10
  -7  -6   1   57.49    7.00
   6   6  -1  186.78   10.90
   6   6  -1  178.78    9.30
   6   6  -1  205.58    9.50
   6   6  -1  186.58   10.20
   6   6  -1  208.28    9.20
   6   6  -1  173.88    9.50
  -6  -6   1  191.18    9.50
  -6  -6   1  198.08    9.70
  -6  -6   1  182.18   10.20
  -6  -6   1  183.98   12.10
  -6  -6   1  192.68    9.40
  -6  -6   1  196.98    7.90
   5   6  -1    5.10    4.00
   5   6  -1   10.80    3.70
   5   6  -1    5.60    3.50
   5   6  -1   14.70    3.50
   5   6  -1   12.30    4.40
   5   6  -1   12.80    3.50
  -5  -6   1   12.10    3.70
  -5  -6   1   16.00    3.10
  -5  -6   1   12.90    4.30
  -5  -6   1   11.80    3.60
  -5  -6   1   16.80    4.80
  -5  -6   1   13.50    3.90
   4   6  -1   37.00    4.60
   4   6  -1   41.10    4.60
   4   6  -1   41.40    5.40
   4   6  -1   36.80    4.30
   4   6  -1   38.00    3.80
   4   6  -1   44.10    5.20
  -4  -6   1   35.60    3.30
  -4  -6   1   38.50    5.00
  -4  -6   1   43.90    5.60
  -4  -6   1   34.80    4.40
  -4  -6   1   30.60    4.60
  -4  -6   1   35.20    5.50
   3   6  -1  362.16   10.70
   3   6  -1  340.57   11.10
   3   6  -1  358.46   10.80
   3   6  -1  357.56   11.10
   3   6  -1  351.56   11.10
  -3  -6   1  344.77   10.70
  -3  -6   1  379.06   11.40
  -3  -6   1  361.36   11.30
  -3  -6   1  358.46   11.10
   2   6  -1 1398.36   29.30
   2   6  -1 1408.26   29.80
   2   6  -1 1384.16   29.90
   2   6  -1 1392.76   30.50
   2   6  -1 1371.06   29.20
  -2  -6   1 1405.56   29.30
  -2  -6   1 1402.56   29.70
  -2  -6   1 1388.16   29.30
  -2  -6   1 1443.96   30.00
   1   6  -1   11.00    2.90
   1   6  -1    6.50    3.10
   1   6  -1   12.30    3.00
   1   6  -1    6.80    3.00
   1   6  -1   12.60    2.80
  -1  -6   1    7.80    3.10
  -1  -6   1   12.80    3.50
  -1  -6   1   15.70    3.20
   0   6  -1  413.16   12.10
   0   6  -1  408.76   11.60
   0   6  -1  422.76   11.90
   0   6  -1  420.36   11.60
   0  -6   1  422.46   12.10
   0  -6   1  427.56   11.70
   0  -6   1  430.56   11.90
   0  -6   1  419.56   11.80
  -1   6  -1  149.88    6.70
  -1   6  -1  146.59    6.70
  -1   6  -1  153.58    6.90
  -1   6  -1  141.49    6.90
   1  -6   1  152.38    6.80
   1  -6   1  138.79    7.90
   1  -6   1  137.39    6.70
   1  -6   1  145.69    7.10
   1  -6   1  144.59    6.60
   1  -6   1  145.19    6.80
  -2   6  -1    1.60    3.20
  -2   6  -1    0.90    3.10
  -2   6  -1    6.70    3.20
  -2   6  -1    5.80    3.40
   2  -6   1    4.30    3.40
   2  -6   1    3.40    3.20
   2  -6   1    4.40    3.10
   2  -6   1   -2.30    3.80
   2  -6   1   -2.50    3.10
  -3   6  -1   35.00    4.80
  -3   6  -1   29.70    4.80
  -3   6  -1   30.90    4.90
  -3   6  -1   31.90    4.70
   3  -6   1   31.20    4.70
   3  -6   1   24.20    5.60
   3  -6   1   27.50    4.80
   3  -6   1   31.30    4.30
   3  -6   1   33.90    4.70
  -4   6  -1   44.80    6.10
  -4   6  -1   39.20    6.30
  -4   6  -1   46.00    6.20
   4  -6   1   48.80    6.30
   4  -6   1   25.20    6.80
   4  -6   1   43.30    6.20
   4  -6   1   49.30    6.20
   4  -6   1   31.60    5.20
   4  -6   1   40.90    5.60
  -5   6  -1   16.00    5.50
  -5   6  -1   10.20    5.50
  -5   6  -1   11.30    5.70
  -5   6  -1   18.10    5.70
   5  -6   1   13.80    6.50
   5  -6   1   -0.20    5.40
   5  -6   1   -0.80    5.80
   5  -6   1    6.90    5.70
   5  -6   1   10.70    5.60
  -6   6  -1    1.00    6.80
  -6   6  -1   -3.50    7.20
   6  -6   1    7.80   14.60
   6  -6   1   22.60    8.20
   6  -6   1    0.70    7.00
  -7   6  -1   70.59   12.00
   7  -6   1   52.49   11.20
   8  -6   1   27.70   10.30
  11   5  -1   27.60   14.10
 -11  -5   1    5.80   18.70
  10   5  -1   -7.30    9.30
  10   5  -1    0.40    9.80
 -10  -5   1  -22.00    9.20
 -10  -5   1   -2.20    7.20
 -10  -5   1  -15.70    8.40
 -10  -5   1    8.50   11.90
 -10  -5   1    7.50    9.50
 -10  -5   1    3.80   10.10
   9   5  -1   12.50    8.40
   9   5  -1    1.60    7.80
   9   5  -1   31.50    8.00
   9   5  -1   13.50    9.80
   9   5  -1    5.30    7.00
  -9  -5   1    9.30    7.10
  -9  -5   1   26.40    7.70
  -9  -5   1   11.10    5.70
  -9  -5   1   19.10    7.60
  -9  -5   1    3.60    6.70
  -9  -5   1   19.60    8.80
   8   5  -1   40.20    6.30
   8   5  -1   38.70    7.70
   8   5  -1   37.70    7.50
   8   5  -1   20.30    6.60
   8   5  -1   30.90    6.90
  -8  -5   1   33.30    7.10
  -8  -5   1   27.40    5.70
  -8  -5   1   27.60    5.70
  -8  -5   1   34.50    8.00
  -8  -5   1   28.20    6.70
  -8  -5   1   35.40    6.80
   7   5  -1    3.50    4.50
   7   5  -1    4.80    4.50
   7   5  -1   -1.90    5.20
   7   5  -1   -1.40    5.10
   7   5  -1    4.10    4.70
   7   5  -1    1.10    4.20
  -7  -5   1   -2.00    4.40
  -7  -5   1   -0.20    3.10
  -7  -5   1   -1.50    4.50
  -7  -5   1   -3.80    4.10
  -7  -5   1    7.50    4.40
  -7  -5   1   -1.60    4.50
   6   5  -1  668.03   18.50
   6   5  -1  685.63   18.70
   6   5  -1  715.33   18.40
   6   5  -1  729.83   18.40
   6   5  -1  688.13   19.40
   6   5  -1  703.63   19.10
  -6  -5   1  701.23   17.10
  -6  -5   1  680.73   18.40
  -6  -5   1  699.03   18.50
  -6  -5   1  685.13   19.00
  -6  -5   1  719.83   18.70
  -6  -5   1  692.33   18.90
   5   5  -1  549.85   14.70
   5   5  -1  535.95   14.50
   5   5  -1  541.35   14.70
   5   5  -1  540.85   15.00
   5   5  -1  524.55   15.20
   5   5  -1  544.35   14.10
  -5  -5   1  522.25   14.40
  -5  -5   1  541.05   14.70
  -5  -5   1  541.05   15.00
  -5  -5   1  549.95   15.10
  -5  -5   1  542.35   13.40
   4   5  -1   32.20    4.20
   4   5  -1   29.90    3.90
   4   5  -1   28.60    4.10
   4   5  -1   30.20    3.60
   4   5  -1   35.80    4.50
   4   5  -1   28.20    3.90
  -4  -5   1   27.90    3.70
  -4  -5   1   29.30    4.20
  -4  -5   1   31.30    3.90
  -4  -5   1   28.50    3.80
  -4  -5   1   35.40    3.20
  -4  -5   1   30.80    4.40
   3   5  -1  458.05   10.70
   3   5  -1  458.75   12.40
   3   5  -1  455.65   12.00
   3   5  -1  454.05   11.90
   3   5  -1  466.95   12.30
   3   5  -1  471.65   12.60
  -3  -5   1  458.65   12.80
  -3  -5   1  464.95   12.40
  -3  -5   1  448.36   12.00
  -3  -5   1  456.35   11.80
  -3  -5   1  479.35   12.50
  -3  -5   1  466.35   10.20
   2   5  -1  496.55   12.40
   2   5  -1  477.65   12.90
   2   5  -1  493.55   12.60
   2   5  -1  515.45   12.90
   2   5  -1  482.05   12.20
  -2  -5   1  484.15   12.10
  -2  -5   1  501.65   12.70
  -2  -5   1  493.05   12.50
  -2  -5   1  481.45   12.30
   1   5  -1   13.10    2.60
   1   5  -1   15.10    2.80
   1   5  -1   10.30    2.50
   1   5  -1   10.10    2.50
   1   5  -1   16.40    3.00
  -1  -5   1   14.20    2.70
  -1  -5   1   13.20    2.70
  -1  -5   1   11.90    2.50
  -1  -5   1   14.30    2.80
   0   5  -1  502.75   12.70
   0   5  -1  510.85   12.60
   0   5  -1  489.15   12.30
   0   5  -1  501.05   12.40
   0  -5   1  489.35   12.40
   0  -5   1  504.35   12.60
   0  -5   1  501.45   12.40
   0  -5   1  505.75   12.50
  -1   5  -1  651.33   15.40
  -1   5  -1  644.34   15.50
  -1   5  -1  652.63   15.40
  -1   5  -1  657.13   15.40
   1  -5   1  667.33   15.40
   1  -5   1  633.14   17.20
   1  -5   1  643.04   15.10
   1  -5   1  625.34   15.30
   1  -5   1  655.63   15.10
   1  -5   1  654.43   15.20
  -2   5  -1   38.10    3.90
  -2   5  -1   27.00    3.80
  -2   5  -1   30.80    4.00
  -2   5  -1   29.00    3.90
   2  -5   1   31.80    2.90
   2  -5   1   33.30    4.10
   2  -5   1   38.20    4.30
   2  -5   1   29.00    4.00
   2  -5   1   28.70    3.90
   2  -5   1   27.10    5.50
   2  -5   1   33.00    5.50
  -3   5  -1   68.69    5.40
  -3   5  -1   76.39    5.40
  -3   5  -1   74.79    5.50
  -3   5  -1   66.59    5.30
   3  -5   1   68.69    5.30
   3  -5   1   78.79    5.40
   3  -5   1   77.39    7.20
   3  -5   1   78.19    5.20
   3  -5   1   70.19    5.60
   3  -5   1   68.29    4.60
  -4   5  -1   65.89    6.50
  -4   5  -1   53.39    6.20
   4  -5   1   65.79    5.60
   4  -5   1   68.59    6.60
   4  -5   1   72.29    5.70
   4  -5   1   56.89    7.40
   4  -5   1   64.09    6.10
  -5   5  -1   35.00    5.30
  -5   5  -1   29.60    5.70
  -5   5  -1   28.30    5.50
  -5   5  -1   40.10    5.30
   5  -5   1   30.00    5.00
   5  -5   1   40.50    7.60
   5  -5   1   35.70    5.60
   5  -5   1   43.30    5.80
   5  -5   1   42.90    6.10
   5  -5   1   44.40    5.90
  -6   5  -1   -3.40    5.50
  -6   5  -1    4.10    5.50
  -6   5  -1   -4.70    5.40
  -6   5  -1   -2.10    5.20
   6  -5   1   -6.80    6.60
   6  -5   1   -1.30    5.50
   6  -5   1   -1.80    5.80
   6  -5   1    0.60    6.50
  -7   5  -1   15.80    8.30
  -7   5  -1   -0.90    7.70
   7  -5   1    6.20    7.80
   7  -5   1   10.80    8.10
   8  -5   1   26.70    9.30
  11   4  -1    1.30    6.20
  10   4  -1   13.70    9.90
  10   4  -1   11.30   10.70
 -10  -4   1   10.10   10.60
 -10  -4   1   12.80    9.50
 -10  -4   1    8.50   10.20
 -10  -4   1   15.70   10.00
 -10  -4   1    0.70    7.80
 -10  -4   1   16.50    8.10
   9   4  -1   18.50    9.10
   9   4  -1   18.00    8.00
   9   4  -1    0.30    8.00
   9   4  -1   -1.20    7.00
   9   4  -1   15.20    7.60
  -9  -4   1  -18.30    7.70
  -9  -4   1    4.20    5.80
  -9  -4   1    4.70    6.80
  -9  -4   1   -1.70    6.50
  -9  -4   1    2.10    7.20
  -9  -4   1   -2.50    6.20
   8   4  -1    8.90    5.90
   8   4  -1   17.80    6.20
   8   4  -1   12.40    5.70
   8   4  -1   13.70    6.10
   8   4  -1    7.00    6.00
  -8  -4   1    6.50    5.90
  -8  -4   1   11.50    5.80
  -8  -4   1   -0.90    5.20
  -8  -4   1    2.90    4.20
  -8  -4   1   18.60    6.00
   7   4  -1    3.50    4.10
   7   4  -1   16.00    5.10
   7   4  -1    4.70    4.20
   7   4  -1   -1.10    4.40
   7   4  -1    3.50    4.20
   7   4  -1    5.70    4.20
  -7  -4   1    3.00    3.50
  -7  -4   1    4.70    4.30
  -7  -4   1    9.00    4.70
  -7  -4   1   -1.50    4.10
  -7  -4   1    4.30    4.40
  -7  -4   1   13.90    4.30
   6   4  -1    2.40    4.10
   6   4  -1    4.40    3.60
   6   4  -1   -0.30    3.60
   6   4  -1    3.00    3.50
   6   4  -1    5.70    4.30
   6   4  -1    2.90    3.80
  -6  -4   1    1.30    3.80
  -6  -4   1   -1.60    3.40
  -6  -4   1    1.10    2.60
  -6  -4   1   -1.00    3.00
  -6  -4   1   -3.30    3.20
  -6  -4   1   -0.70    3.20
   5   4  -1   14.70    3.80
   5   4  -1   15.70    3.70
   5   4  -1   18.80    3.50
   5   4  -1   18.60    3.20
   5   4  -1   18.10    3.80
   5   4  -1   21.40    4.00
  -5  -4   1   18.10    3.70
  -5  -4   1   19.50    3.60
  -5  -4   1   16.50    3.50
  -5  -4   1   27.60    3.80
  -5  -4   1   20.80    3.60
  -5  -4   1   19.00    4.00
   4   4  -1 3130.99   59.79
   4   4  -1 3111.39   59.49
   4   4  -1 3176.18   58.89
   4   4  -1 3138.29   59.89
   4   4  -1 3107.79   59.49
   4   4  -1 3139.69   59.59
  -4  -4   1 3158.78   59.79
  -4  -4   1 3036.40   59.19
  -4  -4   1 3064.79   58.39
  -4  -4   1 3138.29   59.69
  -4  -4   1 3115.49   59.49
  -4  -4   1 3148.19   59.79
   3   4  -1  148.19    5.80
   3   4  -1  142.69    5.90
   3   4  -1  144.89    5.60
   3   4  -1  148.79    5.70
   3   4  -1  148.99    5.60
  -3  -4   1  149.19    4.70
  -3  -4   1  143.49    5.80
  -3  -4   1  142.69    5.80
  -3  -4   1  143.99    5.70
  -3  -4   1  145.69    5.50
  -3  -4   1  146.59    5.70
   2   4  -1    9.10    2.00
   2   4  -1    8.80    1.90
   2   4  -1    7.80    1.80
   2   4  -1    5.80    1.70
   2   4  -1    7.70    1.30
   2   4  -1    6.10    1.70
  -2  -4   1    8.10    1.90
  -2  -4   1    3.30    1.60
  -2  -4   1    9.30    1.90
  -2  -4   1    9.20    2.20
  -2  -4   1    9.90    2.00
  -2  -4   1    8.60    1.20
   1   4  -1  765.02   16.30
   1   4  -1  747.63   16.30
   1   4  -1  770.22   17.30
   1   4  -1  751.82   16.60
   1   4  -1  766.52   16.50
  -1  -4   1  745.43   16.30
  -1  -4   1  771.92   16.60
  -1  -4   1  763.22   16.40
  -1  -4   1  766.92   16.20
   0   4  -1 2900.91   54.99
   0   4  -1 2907.91   55.19
   0   4  -1 3016.20   55.19
   0   4  -1 2943.01   54.99
   0  -4   1 2892.01   55.09
   0  -4   1 3002.70   55.19
   0  -4   1 2994.30   56.69
   0  -4   1 2957.40   54.99
   0  -4   1 2873.91   54.89
  -1   4  -1  996.80   20.90
  -1   4  -1 1007.10   20.90
  -1   4  -1  997.50   20.80
  -1   4  -1  993.90   20.80
   1  -4   1  989.90   20.70
   1  -4   1 1003.90   20.60
   1  -4   1  983.80   20.80
   1  -4   1 1002.30   20.80
   1  -4   1  992.70   22.80
   1  -4   1 1011.70   20.60
  -2   4  -1   63.39    2.90
  -2   4  -1   53.89    3.90
  -2   4  -1   60.09    4.00
  -2   4  -1   62.89    4.00
  -2   4  -1   62.19    4.00
   2  -4   1   65.99    3.30
   2  -4   1   58.69    5.30
   2  -4   1   59.79    3.80
   2  -4   1   65.39    4.10
   2  -4   1   55.79    4.10
   2  -4   1   63.89    3.80
   2  -4   1   65.99    4.00
  -3   4  -1  133.89    4.90
  -3   4  -1  140.49    6.10
  -3   4  -1  131.49    5.80
  -3   4  -1  144.39    6.10
  -3   4  -1  141.69    5.90
   3  -4   1  137.39    6.30
   3  -4   1  141.19    7.90
   3  -4   1  135.29    6.00
   3  -4   1  138.59    5.70
   3  -4   1  135.39    5.40
   3  -4   1  134.49    5.60
  -4   4  -1   14.80    3.50
  -4   4  -1    7.90    2.50
  -4   4  -1   16.90    3.20
  -4   4  -1   12.60    3.50
   4  -4   1   11.10    3.10
   4  -4   1   12.60    3.30
   4  -4   1   11.00    3.20
   4  -4   1   14.00    3.50
   4  -4   1   12.00    3.50
   4  -4   1    9.30    4.40
  -5   4  -1  296.47    9.50
  -5   4  -1  270.87   10.60
  -5   4  -1  297.27   10.20
  -5   4  -1  288.87   11.10
  -5   4  -1  283.47    9.80
   5  -4   1  264.77   12.80
   5  -4   1  292.87   10.90
   5  -4   1  298.47    9.90
   5  -4   1  300.57   10.80
  -6   4  -1    6.70    4.90
  -6   4  -1    7.20    4.70
  -6   4  -1    6.40    4.20
  -6   4  -1    0.40    4.00
  -6   4  -1    0.30    4.20
   6  -4   1    5.30    6.20
   6  -4   1    4.00    4.70
   6  -4   1   -0.10    5.50
   6  -4   1    9.60    5.60
   6  -4   1   -0.10    4.40
   6  -4   1    6.80    4.70
  -7   4  -1   -3.80    5.60
  -7   4  -1    2.60    5.50
  -7   4  -1   11.70    5.90
  -7   4  -1    4.10    4.60
  -7   4  -1   10.90    6.60
   7  -4   1    7.20    6.30
   7  -4   1   12.10    6.80
   7  -4   1    3.70    7.30
   7  -4   1   -0.10    6.90
   7  -4   1    2.80    7.40
  -8   4  -1   15.80    9.50
  -8   4  -1    7.50    6.30
   8  -4   1    5.70    7.60
   9  -4   1   11.70    9.90
  11   3  -1   31.20   16.80
  10   3  -1   10.40    6.60
  10   3  -1   24.10   11.60
 -10  -3   1   19.10   10.80
 -10  -3   1   10.00   10.30
 -10  -3   1   15.60    7.70
 -10  -3   1    7.50    8.80
 -10  -3   1   18.70    8.70
   9   3  -1   62.19   10.30
   9   3  -1   47.50    9.50
   9   3  -1   65.99    9.30
   9   3  -1   50.29    8.60
  -9  -3   1   54.49    8.70
  -9  -3   1   67.99    9.70
  -9  -3   1   69.69    8.90
  -9  -3   1   51.69    8.20
  -9  -3   1   69.39    8.50
  -9  -3   1   73.39   10.20
   8   3  -1    3.20    5.70
   8   3  -1   -1.40    5.80
   8   3  -1   12.30    5.40
   8   3  -1   12.40    5.50
   8   3  -1    8.10    5.80
  -8  -3   1   -5.40    5.40
  -8  -3   1    8.90    5.90
  -8  -3   1    9.90    5.00
  -8  -3   1    4.20    5.10
  -8  -3   1    9.10    5.80
  -8  -3   1   10.30    4.50
   7   3  -1   31.60    5.50
   7   3  -1   25.20    5.20
   7   3  -1   33.40    5.40
   7   3  -1   31.90    5.50
   7   3  -1   26.40    5.10
  -7  -3   1   28.40    5.70
  -7  -3   1   28.80    4.50
  -7  -3   1   27.20    4.80
  -7  -3   1   21.00    4.70
  -7  -3   1   22.20    5.00
  -7  -3   1   25.50    4.60
   6   3  -1   10.80    3.70
   6   3  -1   10.20    4.00
   6   3  -1    9.50    3.60
   6   3  -1    6.20    3.70
   6   3  -1   12.80    4.10
   6   3  -1    5.60    3.80
  -6  -3   1   12.70    3.70
  -6  -3   1    7.50    3.20
  -6  -3   1   12.90    3.50
  -6  -3   1    6.70    3.60
  -6  -3   1    7.40    2.60
  -6  -3   1   15.20    3.70
   5   3  -1  116.59    6.10
   5   3  -1  112.39    6.40
   5   3  -1  115.39    6.20
   5   3  -1  113.89    6.10
   5   3  -1  116.59    6.40
   5   3  -1  125.09    6.20
  -5  -3   1  111.99    6.20
  -5  -3   1  118.09    6.10
  -5  -3   1  123.69    5.60
  -5  -3   1  121.09    6.10
  -5  -3   1  116.79    5.90
  -5  -3   1  114.69    6.00
   3   3  -1 1047.90   21.70
   3   3  -1 1037.10   21.60
   3   3  -1 1044.80   21.80
   3   3  -1 1035.20   21.70
   3   3  -1 1043.50   21.10
  -3  -3   1 1043.80   21.60
  -3  -3   1 1052.39   21.70
  -3  -3   1 1037.10   21.80
  -3  -3   1 1045.30   21.50
  -3  -3   1 1069.99   21.80
  -3  -3   1 1040.40   20.80
   2   3  -1 2274.57   43.30
   2   3  -1 2297.37   42.10
   2   3  -1 2268.57   43.10
   2   3  -1 2309.87   43.10
   2   3  -1 2278.57   42.90
   2   3  -1 2321.87   43.10
  -2  -3   1 2271.67   43.10
  -2  -3   1 2303.27   43.10
  -2  -3   1 2243.88   43.40
  -2  -3   1 2320.77   43.00
  -2  -3   1 2224.48   41.80
  -2  -3   1 2301.67   42.90
   1   3  -1 2980.20   55.09
   1   3  -1 3014.60   55.89
   1   3  -1 2964.40   55.19
   1   3  -1 3002.10   54.99
   1   3  -1 2987.00   54.99
  -1  -3   1 2959.80   55.09
  -1  -3   1 2981.50   54.99
  -1  -3   1 3011.30   55.09
   0   3  -1  509.65   11.10
   0   3  -1  505.75   11.20
   0   3  -1  511.25   11.20
   0   3  -1  507.25   11.10
   0  -3   1  511.35   11.10
   0  -3   1  513.25   11.10
   0  -3   1  515.25   11.20
   0  -3   1  523.95   11.40
   0  -3   1  531.95   12.30
  -1   3  -1 4060.49   72.99
  -1   3  -1 3956.80   72.99
  -1   3  -1 3967.10   72.99
  -1   3  -1 3925.01   72.99
   1  -3   1 3919.31   72.99
   1  -3   1 4061.59   73.39
   1  -3   1 3994.20   72.79
   1  -3   1 3946.31   72.89
   1  -3   1 3941.11   72.69
   1  -3   1 4172.18   75.19
  -2   3  -1 3544.95   67.39
  -2   3  -1 3639.24   68.39
  -2   3  -1 3645.74   68.29
  -2   3  -1 3746.43   68.29
  -2   3  -1 3634.74   68.49
  -2   3  -1 4001.40   68.49
   2  -3   1 3742.93   68.29
   2  -3   1 3628.24   67.69
   2  -3   1 3738.53   67.89
   2  -3   1 3691.33   68.09
   2  -3   1 3775.62   68.69
   2  -3   1 3758.12   70.99
   2  -3   1 3640.14   68.49
  -3   3  -1 1329.47   27.60
  -3   3  -1 1366.56   27.50
  -3   3  -1 1383.56   27.70
  -3   3  -1 1395.66   27.40
  -3   3  -1 1321.67   26.80
   3  -3   1 1376.96   26.90
   3  -3   1 1378.46   27.10
   3  -3   1 1367.56   27.60
   3  -3   1 1377.86   27.90
   3  -3   1 1317.87   30.10
   3  -3   1 1372.36   27.30
  -4   3  -1   94.59    5.20
  -4   3  -1   89.79    4.90
  -4   3  -1   97.49    5.10
  -4   3  -1   91.99    4.90
  -4   3  -1   93.29    4.60
   4  -3   1   82.09    6.10
   4  -3   1   88.09    5.30
   4  -3   1   90.79    6.90
   4  -3   1   89.09    5.40
   4  -3   1   93.79    5.20
   4  -3   1   88.29    4.80
  -5   3  -1  323.47   10.70
  -5   3  -1  327.47   10.10
  -5   3  -1  325.37   10.70
  -5   3  -1  322.57   10.10
  -5   3  -1  339.17   10.20
   5  -3   1  331.97   11.00
   5  -3   1  309.27   12.90
   5  -3   1  337.37   10.10
   5  -3   1  329.17   10.90
   5  -3   1  336.87   11.20
  -6   3  -1  122.79    7.20
  -6   3  -1  123.99    7.40
  -6   3  -1  100.29    6.70
  -6   3  -1  120.29    8.10
  -6   3  -1  120.39    8.40
   6  -3   1  121.99    9.70
   6  -3   1  130.49    8.80
   6  -3   1  117.99    8.30
   6  -3   1  113.19    8.30
  -7   3  -1  141.99    8.90
  -7   3  -1  156.68    9.80
  -7   3  -1  151.98    8.90
  -7   3  -1  164.68   10.20
  -7   3  -1  176.68    9.40
  -7   3  -1  157.78   12.80
   7  -3   1  154.48    9.40
   7  -3   1  153.88   11.10
   7  -3   1  152.58   10.60
   7  -3   1  142.59   11.90
   7  -3   1  146.79   11.30
   7  -3   1  145.89    9.50
  -8   3  -1   12.30    6.90
  -8   3  -1   -9.10    7.20
  -8   3  -1   -4.60    5.50
  -8   3  -1   -0.10    6.50
  -8   3  -1   -3.10    7.00
   8  -3   1   10.00    9.00
   8  -3   1    5.10    8.70
   8  -3   1   -1.60    7.10
  -9   3  -1   -9.30    7.30
   9  -3   1   -5.80    7.70
  10  -3   1    5.00   10.00
  11   2  -1   -0.50    8.40
  10   2  -1    0.00    7.10
  10   2  -1    5.90   11.30
 -10  -2   1    6.10   10.60
 -10  -2   1  -11.30    9.20
 -10  -2   1   15.90    7.90
 -10  -2   1   -0.10   10.20
   9   2  -1    8.00    6.00
   9   2  -1    0.70    8.40
   9   2  -1  -10.40    7.50
   9   2  -1   -9.00    7.60
  -9  -2   1   12.50    6.80
  -9  -2   1   14.40    7.80
  -9  -2   1    4.70    7.90
  -9  -2   1   -3.20    6.30
  -9  -2   1   -6.90    6.90
  -9  -2   1    7.20    5.30
   8   2  -1   62.29    9.00
   8   2  -1   55.09    7.80
   8   2  -1   66.39    9.00
  -8  -2   1   77.19    8.60
  -8  -2   1   81.49    9.20
  -8  -2   1   60.59    8.50
  -8  -2   1   88.39    9.00
  -8  -2   1   68.39    7.60
  -8  -2   1   81.19    9.20
   7   2  -1   40.80    5.60
   7   2  -1   34.00    5.60
   7   2  -1   44.80    6.20
  -7  -2   1   45.70    7.20
  -7  -2   1   42.50    6.00
  -7  -2   1   31.40    5.10
  -7  -2   1   37.10    5.40
  -7  -2   1   35.20    5.40
   6   2  -1   27.10    4.60
   6   2  -1   25.10    4.30
   6   2  -1   23.30    4.40
   6   2  -1   22.80    4.10
   6   2  -1   20.10    3.80
  -6  -2   1   26.40    4.00
  -6  -2   1   23.20    4.10
  -6  -2   1   20.60    4.10
  -6  -2   1   29.60    4.20
  -6  -2   1   18.70    3.90
  -6  -2   1   17.50    3.50
   5   2  -1  249.08    8.40
   5   2  -1  255.67    8.70
   5   2  -1  238.68    9.10
   5   2  -1  245.68    8.40
   5   2  -1  248.48    8.30
   5   2  -1  245.68    8.60
  -5  -2   1  254.97    8.40
  -5  -2   1  243.38    8.10
  -5  -2   1  251.87    8.30
  -5  -2   1  234.38    8.40
  -5  -2   1  252.07    8.40
  -5  -2   1  253.37    8.40
   4   2  -1 1384.16   28.30
   4   2  -1 1386.96   28.20
   4   2  -1 1388.76   28.20
   4   2  -1 1414.16   28.30
   4   2  -1 1373.16   28.90
  -4  -2   1 1401.76   28.20
  -4  -2   1 1406.16   28.20
  -4  -2   1 1377.46   28.20
  -4  -2   1 1402.46   28.50
  -4  -2   1 1374.06   27.90
  -4  -2   1 1391.66   28.10
   3   2  -1  838.42   17.60
   3   2  -1  818.72   17.40
   3   2  -1  820.92   17.40
   3   2  -1  832.22   17.40
   3   2  -1  831.42   17.30
   3   2  -1  838.92   17.70
  -3  -2   1  817.92   17.00
  -3  -2   1  811.42   17.30
  -3  -2   1  837.32   17.50
  -3  -2   1  827.42   17.50
  -3  -2   1  813.72   17.30
   0   2  -1    1.10    0.70
   0   2  -1    2.10    0.80
   0   2  -1    1.90    0.80
   0   2  -1    1.40    0.80
   0  -2   1    2.10    0.80
   0  -2   1    2.30    1.30
   0  -2   1    2.30    0.90
   0  -2   1    2.30    0.70
   0  -2   1    2.70    0.80
  -1   2  -1   49.90    2.40
  -1   2  -1   50.09    1.80
  -1   2  -1   54.39    2.30
  -1   2  -1   48.30    2.20
  -1   2  -1   51.59    2.20
  -1   2  -1   49.40    2.20
   1  -2   1   57.39    2.50
   1  -2   1   54.99    2.10
   1  -2   1   52.09    2.20
   1  -2   1   50.89    1.90
   1  -2   1   50.49    2.10
   1  -2   1   52.19    3.30
  -2   2  -1    6.40    1.40
  -2   2  -1    6.30    1.40
  -2   2  -1    4.50    1.30
  -2   2  -1    6.40    1.20
  -2   2  -1    6.30    1.30
  -2   2  -1    8.40    1.90
   2  -2   1    5.70    1.40
   2  -2   1    4.60    1.20
   2  -2   1    4.00    1.30
   2  -2   1    6.30    1.30
   2  -2   1    5.70    2.30
  -3   2  -1   22.60    2.40
  -3   2  -1   22.00    2.30
  -3   2  -1   26.70    3.20
  -3   2  -1   18.70    2.60
  -3   2  -1   22.00    2.40
  -3   2  -1   18.60    2.50
   3  -2   1   20.50    2.80
   3  -2   1   24.40    2.80
   3  -2   1   26.10    4.00
   3  -2   1   24.80    2.60
   3  -2   1   18.60    2.30
   3  -2   1   19.70    2.30
  -4   2  -1    8.30    2.20
  -4   2  -1    4.90    2.10
  -4   2  -1    9.30    2.50
  -4   2  -1    7.70    2.00
  -4   2  -1    6.60    2.20
   4  -2   1    4.80    2.40
   4  -2   1    4.10    2.90
   4  -2   1   11.60    2.40
   4  -2   1    4.70    2.10
   4  -2   1    6.20    2.10
   4  -2   1    6.30    2.60
  -5   2  -1   18.80    3.20
  -5   2  -1   18.40    3.50
  -5   2  -1   21.70    3.40
  -5   2  -1   21.30    3.10
  -5   2  -1   22.80    3.60
   5  -2   1   25.00    3.50
   5  -2   1   25.30    5.10
   5  -2   1   24.10    4.70
   5  -2   1   23.20    4.00
   5  -2   1   20.50    3.60
   5  -2   1   20.70    3.30
  -6   2  -1   36.00    5.60
  -6   2  -1   39.90    5.10
  -6   2  -1   29.80    4.10
  -6   2  -1   26.50    4.00
  -6   2  -1   35.00    4.50
   6  -2   1   37.00    5.50
   6  -2   1   30.80    5.90
   6  -2   1   34.10    5.10
   6  -2   1   29.10    4.40
  -7   2  -1  163.38    8.90
  -7   2  -1  156.38    9.20
  -7   2  -1  167.58    8.60
  -7   2  -1  172.78   11.60
  -7   2  -1  174.98    9.90
  -7   2  -1  167.38    9.40
   7  -2   1  154.98   10.90
   7  -2   1  174.18   10.90
   7  -2   1  175.68   10.20
   7  -2   1  171.38    9.20
   7  -2   1  173.18    8.60
  -8   2  -1   17.70    5.90
  -8   2  -1   38.30    7.40
  -8   2  -1   18.50    6.30
  -8   2  -1   32.80    8.50
  -8   2  -1   20.60    6.40
  -8   2  -1   21.20    5.10
   8  -2   1   18.20    7.70
   8  -2   1   28.50    8.70
   8  -2   1   15.00    8.00
   8  -2   1   24.10    7.20
   8  -2   1   24.60    7.60
  -9   2  -1    3.50    8.70
  -9   2  -1   -6.70    6.70
  -9   2  -1    2.90    8.10
   9  -2   1    0.00    7.40
  10  -2   1   13.10    9.10
  11   1  -1   12.00    8.30
  10   1  -1    1.80    6.90
  10   1  -1  -11.20   12.50
 -10  -1   1    3.30   11.30
 -10  -1   1    0.00   10.00
   9   1  -1   19.50    6.20
   9   1  -1   29.40    9.50
  -9  -1   1   34.70    8.80
  -9  -1   1   37.80    9.10
  -9  -1   1   32.60    7.00
  -9  -1   1   36.80    7.80
  -9  -1   1   51.89    9.20
  -9  -1   1   37.60    8.00
   8   1  -1  135.39   11.50
   8   1  -1  119.39    9.40
   8   1  -1  133.99   10.10
   8   1  -1  136.29   11.30
   8   1  -1  141.59   11.40
   8   1  -1  140.99   10.00
  -8  -1   1  129.19    9.70
  -8  -1   1  133.49    9.50
  -8  -1   1  137.09   10.70
  -8  -1   1  126.89    9.00
  -8  -1   1  156.78   10.30
  -8  -1   1  111.59    9.60
   7   1  -1  175.68    9.20
   7   1  -1  167.58    9.60
  -7  -1   1  166.58   11.50
  -7  -1   1  190.18   10.00
  -7  -1   1  176.28    8.80
  -7  -1   1  177.08    9.00
  -7  -1   1  170.68    9.20
  -7  -1   1  159.38   10.80
   6   1  -1   43.20    8.00
   6   1  -1   50.29    5.80
   6   1  -1   46.70    5.70
   6   1  -1   52.69    5.60
  -6  -1   1   46.80    5.20
  -6  -1   1   42.80    4.50
  -6  -1   1   41.60    5.40
  -6  -1   1   45.00    4.90
  -6  -1   1   42.30    5.00
  -6  -1   1   40.80    5.10
   5   1  -1  447.26   12.30
   5   1  -1  444.16   12.20
   5   1  -1  437.66   12.40
   5   1  -1  450.25   12.10
   5   1  -1  458.35   12.60
  -5  -1   1  455.85   12.10
  -5  -1   1  452.35   12.20
  -5  -1   1  454.95   12.10
  -5  -1   1  454.65   12.10
  -5  -1   1  451.75   12.10
  -5  -1   1  459.75   12.80
   4   1  -1  468.05   12.00
   4   1  -1  472.05   11.90
   4   1  -1  486.25   12.10
   4   1  -1  483.65   11.70
   4   1  -1  482.65   11.80
  -4  -1   1  486.95   11.80
  -4  -1   1  468.25   11.70
  -4  -1   1  485.25   11.90
  -4  -1   1  480.35   11.80
  -4  -1   1  474.45   12.30
  -4  -1   1  487.15   11.90
   3   1  -1  679.63   14.90
   3   1  -1  697.63   14.90
   3   1  -1  673.23   14.80
   3   1  -1  678.23   14.60
   3   1  -1  691.63   15.50
   3   1  -1  685.03   14.80
  -3  -1   1  699.43   14.80
  -3  -1   1  685.33   15.10
  -3  -1   1  676.73   14.80
  -3  -1   1  691.53   14.70
  -3  -1   1  682.03   14.80
  -3  -1   1  683.83   14.70
   1   1  -1 1590.84   29.30
   1   1  -1 1588.04   29.30
   1   1  -1 1586.64   29.50
   1   1  -1 1629.24   29.30
   1   1  -1 1611.34   29.10
   1   1  -1 1583.04   29.30
  -1  -1   1 1599.54   29.30
  -1  -1   1 1561.44   29.30
  -1  -1   1 1619.54   29.30
  -1  -1   1 1499.85   29.30
  -1  -1   1 1627.84   29.10
  -1  -1   1 1592.74   29.50
   0   1  -1  792.52   14.80
   0   1  -1  800.82   14.80
   0   1  -1  773.42   14.80
   0   1  -1  774.42   14.80
   0   1  -1  791.02   15.50
   0   1  -1  884.81   15.00
   0  -1   1  788.02   14.80
   0  -1   1  842.22   15.70
   0  -1   1  852.11   14.90
   0  -1   1  843.72   15.50
   0  -1   1  788.72   14.80
   0  -1   1  775.12   14.80
   0  -1   1  802.92   15.60
  -1   1  -1  202.48    4.50
  -1   1  -1  224.58    5.30
  -1   1  -1  205.38    4.50
  -1   1  -1  207.78    4.70
   1  -1   1  211.78    4.80
   1  -1   1  216.88    5.10
   1  -1   1  224.98    5.30
   1  -1   1  206.58    4.40
   1  -1   1  222.78    5.80
  -2   1  -1   60.59    2.30
  -2   1  -1   59.19    2.50
  -2   1  -1   70.49    3.00
  -2   1  -1   60.59    2.30
  -2   1  -1   65.99    2.40
  -2   1  -1   64.99    2.40
   2  -1   1   61.89    2.20
   2  -1   1   58.39    2.20
   2  -1   1   64.49    2.40
   2  -1   1   65.19    2.70
   2  -1   1   65.99    3.50
   2  -1   1   62.29    2.50
  -3   1  -1 4274.37   77.39
  -3   1  -1 4206.58   77.49
  -3   1  -1 4544.45   78.29
  -3   1  -1 4230.88   77.89
  -3   1  -1 4353.56   77.49
  -3   1  -1 4175.58   77.29
   3  -1   1 4449.85   79.79
   3  -1   1 3953.30   79.09
   3  -1   1 4233.38   77.09
   3  -1   1 4263.87   78.19
   3  -1   1 4242.38   77.69
   3  -1   1 4111.59   77.19
  -4   1  -1 1226.38   24.80
  -4   1  -1 1265.47   24.90
  -4   1  -1 1230.38   25.20
  -4   1  -1 1178.18   24.50
  -4   1  -1 1229.58   24.60
   4  -1   1 1221.58   24.30
   4  -1   1 1226.38   25.10
   4  -1   1 1241.48   25.60
   4  -1   1 1225.78   24.50
   4  -1   1 1204.88   27.10
  -5   1  -1  657.43   15.90
  -5   1  -1  659.23   15.40
  -5   1  -1  676.23   15.80
  -5   1  -1  666.13   15.40
  -5   1  -1  664.43   15.70
   5  -1   1  677.73   16.70
   5  -1   1  671.63   16.10
   5  -1   1  659.83   18.20
   5  -1   1  660.73   15.40
   5  -1   1  668.43   15.30
  -6   1  -1   21.60    5.50
  -6   1  -1   18.30    3.30
  -6   1  -1   18.80    3.50
  -6   1  -1   19.20    3.80
  -6   1  -1   20.60    3.50
  -6   1  -1   13.60    3.50
   6  -1   1   16.80    3.70
   6  -1   1   16.00    4.80
   6  -1   1   21.70    4.30
   6  -1   1   15.90    4.30
  -7   1  -1   70.29    6.10
  -7   1  -1   70.69    8.60
  -7   1  -1   66.09    7.20
  -7   1  -1   76.19    6.70
  -7   1  -1   67.39    7.00
  -7   1  -1   51.89    9.20
   7  -1   1   59.69    7.20
   7  -1   1   68.59    8.20
  -8   1  -1   37.80    6.20
  -8   1  -1   43.70    7.60
  -8   1  -1   43.50    6.50
  -8   1  -1   23.90    6.10
  -8   1  -1   36.10    5.70
  -8   1  -1   34.40    5.80
   8  -1   1   18.20    7.00
   8  -1   1   42.10    8.10
   8  -1   1   37.10    6.90
   8  -1   1   28.20    8.20
   8  -1   1   40.60    6.90
   8  -1   1   28.30    7.00
  -9   1  -1   81.89   10.10
  -9   1  -1   63.49   10.90
  -9   1  -1   50.29    7.50
  -9   1  -1   69.59    9.10
  -9   1  -1   49.99    8.30
  -9   1  -1   70.19   17.70
   9  -1   1   82.19   12.20
   9  -1   1   46.70   10.00
  10  -1   1   28.80    9.00
  11   0  -1   17.80   10.20
  10   0  -1   30.70   16.10
  10   0  -1    9.00    7.40
   9   0  -1   14.00   10.00
   9   0  -1   10.00    6.80
  -9   0   1   22.20    7.80
  -9   0   1   16.20    7.10
  -9   0   1   29.10    8.60
  -9   0   1   17.20    7.90
  -9   0   1   29.20    8.70
   8   0  -1   -2.30    6.60
   8   0  -1    5.20    5.70
   8   0  -1   -3.40    6.20
   8   0  -1   -4.30    6.70
   8   0  -1   10.00    7.60
   8   0  -1    2.60    6.60
  -8   0   1    6.60    7.00
  -8   0   1    7.10    5.80
  -8   0   1    4.70    4.40
  -8   0   1    2.90    6.00
  -8   0   1    0.60    5.70
  -8   0   1    2.50    6.20
   7   0  -1   -1.60    4.20
   7   0  -1   -0.70    5.10
   7   0  -1   -5.50    4.20
   7   0  -1    3.50    4.00
   7   0  -1    0.00    4.50
  -7   0   1    2.60    4.10
  -7   0   1    1.70    4.40
  -7   0   1   -1.00    4.50
  -7   0   1    4.20    4.80
  -7   0   1   -3.40    4.80
  -7   0   1    1.20    3.30
   6   0  -1  409.36   13.30
   6   0  -1  406.66   13.00
   6   0  -1  395.46   12.20
   6   0  -1  400.26   12.70
   6   0  -1  360.66   13.10
  -6   0   1  375.56   12.40
  -6   0   1  402.56   12.50
  -6   0   1  405.36   12.20
  -6   0   1  405.66   13.50
  -6   0   1  380.86   12.00
  -6   0   1  406.76   12.40
   5   0  -1   46.70    4.80
   5   0  -1   43.40    4.50
   5   0  -1   54.99    5.20
   5   0  -1   48.10    4.70
   5   0  -1   42.70    4.70
   5   0  -1   46.20    5.80
  -5   0   1   47.60    4.20
  -5   0   1   56.09    4.70
  -5   0   1   48.50    4.30
  -5   0   1   43.20    4.40
  -5   0   1   52.69    4.70
  -5   0   1   53.69    5.30
   4   0  -1   20.70    2.90
   4   0  -1   22.50    3.20
   4   0  -1   23.30    3.00
   4   0  -1   22.90    3.10
  -4   0   1   20.90    2.90
  -4   0   1   24.60    3.80
  -4   0   1   22.20    3.10
  -4   0   1   20.50    2.80
  -4   0   1   21.50    3.10
  -4   0   1   22.30    3.10
   3   0  -1  110.69    4.20
   3   0  -1  109.99    4.20
   3   0  -1  115.69    4.40
  -3   0   1  112.39    4.20
  -3   0   1  108.09    4.30
  -3   0   1  115.29    4.90
  -3   0   1  114.19    4.40
  -3   0   1  111.19    4.20
  -3   0   1  111.39    4.20
   2   0  -1  905.91   17.80
   2   0  -1  888.21   17.80
   2   0  -1  901.51   17.90
  -2   0   1  887.81   17.90
  -2   0   1  889.41   17.80
  -2   0   1  912.31   17.90
  -2   0   1  884.71   17.90
  -2   0   1  905.01   17.80
   1   0  -1 2364.86   43.70
   1   0  -1 2367.66   43.20
  -1   0   1 2355.86   43.30
  -1   0   1 2374.76   43.20
  -1   0   1 2416.36   43.60
  -1   0   1 2370.26   43.30
  -1   0  -1    0.80    0.50
  -1   0  -1    0.90    0.80
  -1   0  -1    0.20    0.30
  -1   0  -1    0.30    0.30
  -1   0  -1    0.50    0.30
   1   0   1   -0.60    0.50
   1   0   1    0.50    0.30
   1   0   1    0.20    0.40
   1   0   1    0.60    0.30
   1   0   1    1.00    0.30
   1   0   1    0.80    0.60
  -2   0  -1 1378.26   26.40
  -2   0  -1 1395.26   26.40
  -2   0  -1 1399.66   26.40
  -2   0  -1 1429.26   27.00
  -2   0  -1 1410.66   26.30
   2   0   1 1450.75   27.20
   2   0   1 1554.74   27.70
   2   0   1 1539.85   27.00
   2   0   1 1289.87   26.90
   2   0   1 1400.66   26.40
   2   0   1 1434.16   26.40
  -3   0  -1  415.86    9.20
  -3   0  -1  409.66    9.80
  -3   0  -1  416.36    9.30
  -3   0  -1  417.86    9.20
  -3   0  -1  409.46    9.20
   3   0   1  441.06   10.70
   3   0   1  410.06    9.10
   3   0   1  403.76    9.30
   3   0   1  409.76    9.20
   3   0   1  423.26    9.70
  -4   0  -1   70.99    3.50
  -4   0  -1   70.49    3.90
  -4   0  -1   70.39    4.10
  -4   0  -1   68.89    3.60
  -4   0  -1   73.59    3.60
  -4   0  -1   71.39    3.50
   4   0   1   77.69    3.60
   4   0   1   70.59    3.60
   4   0   1   73.59    4.50
   4   0   1   71.99    3.80
   4   0   1   75.49    4.10
  -5   0  -1   27.00    3.30
  -5   0  -1   19.70    3.00
  -5   0  -1   19.90    3.40
  -5   0  -1   21.70    3.10
  -5   0  -1   20.20    2.90
  -5   0  -1   25.10    3.30
   5   0   1   24.70    3.20
   5   0   1   22.20    3.60
   5   0   1   23.50    4.10
   5   0   1   17.90    3.00
  -6   0  -1   59.09    5.00
  -6   0  -1   56.79    4.80
  -6   0  -1   58.59    4.60
  -6   0  -1   63.59    5.80
  -6   0  -1   64.59    4.80
  -6   0  -1   56.79    5.00
   6   0   1   69.99    5.40
   6   0   1   69.19    6.00
   6   0   1   67.19    5.30
   6   0   1   66.89    6.00
  -7   0  -1   11.80    3.70
  -7   0  -1   15.30    4.80
  -7   0  -1   11.40    6.30
  -7   0  -1    4.10    3.80
  -7   0  -1   10.50    3.70
  -7   0  -1   13.50    4.30
   7   0   1    5.00    3.90
   7   0   1    6.20    4.20
   7   0   1   15.00    5.30
  -8   0  -1    9.80    5.70
  -8   0  -1    6.80    4.50
  -8   0  -1   17.60    5.40
  -8   0  -1    8.50    5.10
  -8   0  -1   15.40    5.00
  -8   0  -1    1.30    5.20
   8   0   1    7.30    5.60
   8   0   1    3.10    6.10
   8   0   1    4.40    5.30
   8   0   1   12.90    6.20
   8   0   1    3.00    5.10
   8   0   1    3.90    4.80
  -9   0  -1   22.50    5.90
  -9   0  -1    5.00    6.80
  -9   0  -1   26.80    8.20
  -9   0  -1   21.20   10.00
  -9   0  -1    8.60    6.40
  -9   0  -1   18.40    6.80
   9   0   1    2.70    8.70
   9   0   1   20.00    7.90
   9   0   1   13.50    6.80
 -10   0  -1   58.79   10.50
 -10   0  -1   37.60    8.30
  10   0   1   53.99   10.20
  11   0   1    5.90    8.90
  10  -1  -1    5.30    8.70
   9  -1  -1   13.60    7.70
  -9   1   1   -5.00    9.10
  -9   1   1   25.20    9.50
  -9   1   1    3.60    7.00
  -9   1   1   22.30    9.30
   8  -1  -1    5.30    7.60
   8  -1  -1    4.40    7.60
   8  -1  -1   13.50    7.60
   8  -1  -1   -3.70    6.80
   8  -1  -1   -7.80    7.30
  -8   1   1    0.80    6.30
  -8   1   1   -9.90    5.70
  -8   1   1   -1.90    4.60
  -8   1   1    8.80    6.10
  -8   1   1   -4.90    7.30
  -8   1   1   -3.40    6.60
   7  -1  -1   65.69    9.60
   7  -1  -1   80.79    8.90
   7  -1  -1   54.99    7.80
   7  -1  -1   61.79    7.10
   7  -1  -1   51.99    6.60
   7  -1  -1   66.79    7.60
  -7   1   1   53.29    6.90
  -7   1   1   67.79    7.60
  -7   1   1   59.99    7.40
  -7   1   1   61.09    7.90
  -7   1   1   48.90    6.80
  -7   1   1   51.39    6.90
   6  -1  -1  147.99    7.90
   6  -1  -1  142.29    8.50
   6  -1  -1  145.19    8.40
   6  -1  -1  128.99    8.50
   6  -1  -1  155.78    9.40
  -6   1   1  150.78    9.40
  -6   1   1  148.49    7.60
  -6   1   1  139.69    8.50
  -6   1   1  146.49    7.60
  -6   1   1  138.29    8.00
  -6   1   1  149.29    8.10
   5  -1  -1    1.00    3.40
   5  -1  -1   -3.30    3.00
   5  -1  -1    4.50    3.10
   5  -1  -1    2.50    2.80
   5  -1  -1   -4.00    2.70
  -5   1   1    3.40    2.70
  -5   1   1    0.50    2.30
  -5   1   1   -1.70    3.20
  -5   1   1    2.80    2.80
  -5   1   1    2.70    2.30
  -5   1   1    1.80    2.60
   4  -1  -1  642.74   16.80
   4  -1  -1  664.23   16.10
   4  -1  -1  679.13   15.70
   4  -1  -1  679.43   16.50
   4  -1  -1  685.13   16.00
   4  -1  -1  680.73   15.60
  -4   1   1  672.33   16.10
  -4   1   1  681.13   16.00
  -4   1   1  687.13   15.90
  -4   1   1  669.53   15.60
  -4   1   1  665.13   17.00
  -4   1   1  679.03   15.80
   3  -1  -1 1529.15   30.90
   3  -1  -1 1589.84   30.70
   3  -1  -1 1533.35   30.50
   3  -1  -1 1561.34   31.20
   3  -1  -1 1565.34   30.50
   3  -1  -1 1580.84   31.60
  -3   1   1 1565.64   30.80
  -3   1   1 1561.54   30.70
  -3   1   1 1528.95   30.40
  -3   1   1 1546.45   30.80
  -3   1   1 1541.05   30.90
   2  -1  -1  514.75   11.50
   2  -1  -1  511.75   12.00
   2  -1  -1  539.25   12.00
   2  -1  -1  538.55   11.50
   2  -1  -1  533.55   11.70
   2  -1  -1  569.34   12.40
  -2   1   1  522.05   11.80
  -2   1   1  521.85   11.80
  -2   1   1  529.95   11.50
  -1  -1  -1  373.26    7.80
  -1  -1  -1  384.36    7.80
  -1  -1  -1  379.36    7.80
  -1  -1  -1  373.66    7.80
   1   1   1  381.06    7.80
   1   1   1  368.96    7.20
   1   1   1  381.76    7.80
   1   1   1  377.46    7.90
   1   1   1  375.06    7.80
  -2  -1  -1 1067.49   19.60
  -2  -1  -1 1041.50   20.10
  -2  -1  -1 1029.30   20.10
  -2  -1  -1 1041.50   20.00
  -2  -1  -1 1038.20   20.10
  -2  -1  -1 1027.60   20.40
   2   1   1 1087.69   20.60
   2   1   1 1035.50   20.20
   2   1   1 1069.99   19.80
   2   1   1 1019.60   20.10
   2   1   1 1055.59   20.20
   2   1   1 1130.09   20.00
  -3  -1  -1 1916.41   36.50
  -3  -1  -1 1922.41   36.50
  -3  -1  -1 1948.51   36.40
  -3  -1  -1 1929.31   36.40
  -3  -1  -1 2011.60   36.40
  -3  -1  -1 1940.51   37.00
   3   1   1 1910.51   36.40
   3   1   1 1918.41   36.70
   3   1   1 2016.30   36.50
   3   1   1 1944.91   37.20
   3   1   1 1925.41   36.50
   3   1   1 1939.71   36.50
  -4  -1  -1   32.50    2.60
  -4  -1  -1   38.10    2.70
  -4  -1  -1   36.50    3.00
  -4  -1  -1   33.60    2.80
  -4  -1  -1   32.10    2.70
  -4  -1  -1   36.60    2.80
   4   1   1   32.70    2.80
   4   1   1   38.20    3.20
   4   1   1   36.30    2.80
   4   1   1   34.00    2.70
   4   1   1   38.00    2.80
   4   1   1   33.90    2.80
  -5  -1  -1   85.99    4.60
  -5  -1  -1   85.09    4.50
  -5  -1  -1   93.49    4.60
  -5  -1  -1   90.19    4.70
  -5  -1  -1   87.59    4.50
  -5  -1  -1   88.99    4.90
   5   1   1   89.89    4.80
   5   1   1   84.79    4.50
   5   1   1   93.09    5.20
   5   1   1   84.99    4.60
   5   1   1   83.39    4.70
  -6  -1  -1  119.19    5.90
  -6  -1  -1  140.29    6.50
  -6  -1  -1  129.39    6.20
  -6  -1  -1  129.99    6.10
  -6  -1  -1  130.09    6.30
  -6  -1  -1  132.39    6.60
   6   1   1  121.79    6.60
   6   1   1  120.49    6.20
  -7  -1  -1   28.30    4.70
  -7  -1  -1   31.00    4.60
  -7  -1  -1   27.40    4.60
  -7  -1  -1   26.00    4.50
  -7  -1  -1   31.70    5.00
  -7  -1  -1   30.50    4.40
   7   1   1   26.20    4.70
   7   1   1   35.80    5.40
   7   1   1   32.70    6.80
   7   1   1   25.10    5.70
   7   1   1   25.10    4.50
   7   1   1   26.60    5.00
  -8  -1  -1    8.90    5.00
  -8  -1  -1    7.90    4.60
  -8  -1  -1   13.20    5.40
  -8  -1  -1    6.60    4.50
  -8  -1  -1    2.70    4.20
  -8  -1  -1   12.00    4.60
   8   1   1    9.20    4.90
   8   1   1   10.60    5.50
   8   1   1    6.70    5.50
   8   1   1   14.70    6.00
   8   1   1    3.80    5.00
  -9  -1  -1    3.60    5.80
  -9  -1  -1    2.50    5.70
  -9  -1  -1   -1.40    5.70
  -9  -1  -1   -2.10    6.20
  -9  -1  -1    8.60    6.90
  -9  -1  -1   12.70    5.70
   9   1   1   -0.50    6.60
   9   1   1   -0.50    7.50
   9   1   1    3.30    8.00
   9   1   1   -8.60    6.50
   9   1   1   -1.20    7.50
   9   1   1   -0.20    5.30
 -10  -1  -1  -18.80    8.70
 -10  -1  -1   -6.30    9.00
 -10  -1  -1   10.30    8.90
 -10  -1  -1    9.60    7.30
 -10  -1  -1   -0.40    8.90
  10   1   1   18.10    7.40
  10   1   1   15.00   10.90
  11   1   1   26.30    8.70
  10  -2  -1    2.50    9.30
   9  -2  -1    2.70    7.30
  -9   2   1  -12.00    8.60
   8  -2  -1    7.00    9.20
   8  -2  -1   -1.70    5.90
   8  -2  -1   10.00    8.30
  -8   2   1    6.80    7.80
  -8   2   1   -2.00    5.70
  -8   2   1   11.50    7.10
  -8   2   1   -1.50    7.20
  -8   2   1    2.90    6.50
   7  -2  -1   21.20    6.70
   7  -2  -1   23.30    6.70
   7  -2  -1   20.60    6.20
   7  -2  -1   14.70    5.70
   7  -2  -1   16.10    6.50
   7  -2  -1   24.70    7.40
  -7   2   1   30.50    7.60
  -7   2   1   17.10    4.90
  -7   2   1   24.50    6.20
  -7   2   1   20.60    5.60
  -7   2   1   19.80    5.90
  -7   2   1   34.60    8.20
   6  -2  -1  182.38    8.90
   6  -2  -1  169.68   10.50
   6  -2  -1  183.58    9.60
   6  -2  -1  158.38    9.80
   6  -2  -1  173.18   10.00
  -6   2   1  202.48   11.40
  -6   2   1  156.58    9.60
  -6   2   1  192.48    9.10
  -6   2   1  172.78    8.70
  -6   2   1  153.88    9.80
  -6   2   1  173.38    8.60
   5  -2  -1   38.30    5.20
   5  -2  -1   38.50    4.90
   5  -2  -1   38.10    6.00
   5  -2  -1   40.50    5.60
   5  -2  -1   37.20    5.60
   5  -2  -1   37.70    5.40
  -5   2   1   29.60    4.80
  -5   2   1   44.40    5.00
  -5   2   1   39.80    5.00
  -5   2   1   40.10    4.60
  -5   2   1   34.50    5.90
  -5   2   1   37.80    4.40
   4  -2  -1  465.65   13.20
   4  -2  -1  472.45   12.20
   4  -2  -1  452.65   13.70
   4  -2  -1  430.66   12.70
   4  -2  -1  474.05   12.40
   4  -2  -1  441.06   12.10
  -4   2   1  449.06   12.70
  -4   2   1  469.05   12.30
  -4   2   1  450.45   12.60
  -4   2   1  469.25   11.10
  -4   2   1  451.25   11.90
  -4   2   1  448.96   12.40
   3  -2  -1  379.66    9.70
   3  -2  -1  363.26    9.70
   3  -2  -1  369.96   10.30
   3  -2  -1  368.66    9.80
   3  -2  -1  373.86   11.00
   3  -2  -1  370.36   10.50
  -3   2   1  367.56   10.20
  -3   2   1  353.36    9.40
  -3   2   1  367.26   10.20
   2  -2  -1  335.67    9.30
   2  -2  -1  316.27    7.90
   2  -2  -1  320.57    8.40
   2  -2  -1  319.47    8.40
   2  -2  -1  305.87    8.50
   2  -2  -1  318.87    8.80
  -2   2   1  313.87    7.90
  -2   2   1  328.17    8.70
  -2   2   1  324.97    8.70
  -2   2   1  323.27    8.50
  -2   2   1  319.77    8.60
   1  -2  -1  119.29    4.20
   1  -2  -1  114.79    4.10
   1  -2  -1  119.09    3.60
   1  -2  -1  126.09    4.50
   1  -2  -1  112.69    4.40
   1  -2  -1  123.09    4.30
  -1   2   1  116.49    4.30
  -1   2   1  122.79    4.30
  -1   2   1  116.29    4.20
  -1   2   1  116.29    4.30
   0  -2  -1  911.71   18.80
   0  -2  -1  947.11   19.00
   0  -2  -1  993.30   18.40
   0  -2  -1  936.61   18.80
   0  -2  -1  950.30   18.80
   0   2   1  938.91   18.80
   0   2   1  927.81   18.80
   0   2   1  944.61   18.90
   0   2   1  927.11   18.70
  -1  -2  -1 2551.24   47.70
  -1  -2  -1 2555.24   47.60
  -1  -2  -1 2646.14   47.60
  -1  -2  -1 2581.64   47.60
   1   2   1 2591.04   47.60
   1   2   1 2537.05   47.60
   1   2   1 2600.44   47.80
   1   2   1 2579.04   47.60
  -2  -2  -1 3897.01   70.99
  -2  -2  -1 3885.21   71.09
  -2  -2  -1 3866.91   70.89
  -2  -2  -1 3834.02   70.99
   2   2   1 3917.81   71.09
   2   2   1 3885.61   70.99
   2   2   1 3866.81   71.19
   2   2   1 3815.62   70.89
   2   2   1 4214.88   70.09
   2   2   1 3808.52   70.99
  -3  -2  -1 1523.05   29.80
  -3  -2  -1 1507.45   29.10
  -3  -2  -1 1562.34   29.90
  -3  -2  -1 1529.65   30.00
  -3  -2  -1 1516.95   29.70
  -3  -2  -1 1537.35   29.90
   3   2   1 1653.13   29.00
   3   2   1 1508.05   29.70
   3   2   1 1550.14   29.20
   3   2   1 1542.05   30.00
   3   2   1 1528.55   29.70
   3   2   1 1559.04   30.20
   3   2   1 1568.54   30.00
  -4  -2  -1   74.29    3.80
  -4  -2  -1   72.09    3.30
  -4  -2  -1   71.19    3.80
  -4  -2  -1   75.79    3.90
  -4  -2  -1   76.19    3.70
  -4  -2  -1   76.99    3.90
   4   2   1   76.59    4.10
   4   2   1   70.09    3.70
   4   2   1   80.09    3.50
   4   2   1   78.89    3.80
   4   2   1   78.39    3.70
   4   2   1   77.79    3.80
   4   2   1   77.19    4.00
  -5  -2  -1  362.26   10.20
  -5  -2  -1  366.56   10.00
  -5  -2  -1  365.26    9.60
  -5  -2  -1  363.16   10.00
  -5  -2  -1  359.36    9.70
  -5  -2  -1  355.16    9.90
   5   2   1  353.36    9.90
   5   2   1  364.76    9.30
   5   2   1  353.96   10.50
   5   2   1  357.26   10.00
   5   2   1  358.66    9.90
   5   2   1  357.66   10.10
  -6  -2  -1    0.90    2.10
  -6  -2  -1    7.00    2.90
  -6  -2  -1    2.50    2.40
  -6  -2  -1    5.00    2.50
  -6  -2  -1    5.40    2.80
  -6  -2  -1    3.90    2.60
   6   2   1    0.90    2.90
   6   2   1    5.80    3.10
   6   2   1    2.90    2.50
   6   2   1    0.30    2.90
   6   2   1    5.00    3.10
  -7  -2  -1   42.10    5.80
  -7  -2  -1   48.00    5.70
  -7  -2  -1   42.10    5.50
  -7  -2  -1   43.00    5.90
  -7  -2  -1   40.40    5.70
  -7  -2  -1   43.70    5.30
   7   2   1   55.39    6.20
   7   2   1   40.50    5.40
   7   2   1   49.00    5.60
  -8  -2  -1   50.19    7.10
  -8  -2  -1   42.40    6.20
  -8  -2  -1   46.30    6.70
  -8  -2  -1   44.10    5.90
  -8  -2  -1   50.09    6.50
  -8  -2  -1   36.20    5.80
   8   2   1   27.50    5.50
   8   2   1   43.40    6.40
   8   2   1   50.59    7.10
   8   2   1   50.49    6.20
   8   2   1   53.49    6.60
  -9  -2  -1    2.10    5.10
  -9  -2  -1   -3.80    5.60
  -9  -2  -1    2.60    5.70
  -9  -2  -1    6.20    5.50
  -9  -2  -1   -5.20    4.40
  -9  -2  -1    1.50    6.50
   9   2   1    6.70    6.50
   9   2   1   -0.20    6.00
   9   2   1   10.00    6.90
   9   2   1  -13.30    7.20
 -10  -2  -1    5.50    7.00
 -10  -2  -1   -2.80    8.50
 -10  -2  -1   13.60    8.50
 -10  -2  -1   -0.80    7.00
 -10  -2  -1    4.00    8.10
 -10  -2  -1   12.50    9.50
  10   2   1   10.10    6.80
  10   2   1   28.40   12.00
  10   2   1   21.10   10.50
  11   2   1    3.20    7.80
   9  -3  -1    2.90    9.10
   8  -3  -1   33.60   10.80
   8  -3  -1    3.00    9.00
  -8   3   1    2.10    8.60
  -8   3   1   -7.50    8.60
  -8   3   1    9.90    8.40
   7  -3  -1   23.00    8.60
   7  -3  -1   14.10    7.00
   7  -3  -1   25.30    7.90
   7  -3  -1   17.00    7.90
   7  -3  -1   16.90    7.20
   7  -3  -1   28.70    9.50
  -7   3   1    9.90    6.10
  -7   3   1   19.70    7.20
  -7   3   1   11.70    6.60
  -7   3   1   21.00    7.20
  -7   3   1   -4.80    9.00
  -7   3   1    7.40    5.10
   6  -3  -1   38.10    7.60
   6  -3  -1   45.50    7.60
   6  -3  -1   30.50    5.70
   6  -3  -1   34.60    5.90
   6  -3  -1   30.10    6.50
  -6   3   1   41.30    6.40
  -6   3   1   29.80    6.00
  -6   3   1   32.50    6.70
  -6   3   1   35.00    7.00
  -6   3   1   35.40    5.80
  -6   3   1   25.20    6.00
   5  -3  -1   56.49    7.20
   5  -3  -1   58.29    6.40
   5  -3  -1   60.79    7.40
   5  -3  -1   56.99    6.20
   5  -3  -1   42.70    5.70
   5  -3  -1   46.00    6.50
  -5   3   1   52.89    6.90
  -5   3   1   60.99    7.80
  -5   3   1   54.09    6.20
  -5   3   1   61.49    6.80
  -5   3   1   56.89    5.00
  -5   3   1   58.79    5.90
   4  -3  -1   16.60    4.40
   4  -3  -1   11.40    3.40
   4  -3  -1    9.40    3.60
   4  -3  -1   12.40    3.90
   4  -3  -1   14.10    3.30
   4  -3  -1   12.30    4.20
  -4   3   1   13.30    3.50
  -4   3   1   19.20    2.90
  -4   3   1   21.00    3.70
  -4   3   1   10.80    3.60
  -4   3   1   17.50    3.40
   3  -3  -1 1921.21   39.90
   3  -3  -1 1919.71   39.10
   3  -3  -1 1872.81   38.00
   3  -3  -1 1937.41   38.80
   3  -3  -1 1954.10   37.70
   3  -3  -1 1929.41   38.00
  -3   3   1 1895.71   37.40
  -3   3   1 1902.41   38.50
  -3   3   1 1905.31   38.80
  -3   3   1 1913.61   38.40
  -3   3   1 1927.71   38.70
   2  -3  -1  749.53   17.50
   2  -3  -1  785.72   17.50
   2  -3  -1  764.62   16.80
   2  -3  -1  755.32   17.90
   2  -3  -1  744.23   16.90
   2  -3  -1  766.82   16.10
  -2   3   1  752.02   17.10
  -2   3   1  755.12   17.30
  -2   3   1  742.73   17.20
  -2   3   1  748.83   17.40
   1  -3  -1   22.00    2.70
   1  -3  -1   20.30    1.90
   1  -3  -1   22.30    2.70
   1  -3  -1   27.40    3.20
   1  -3  -1   22.60    2.50
   1  -3  -1   24.00    2.60
  -1   3   1   22.00    2.80
  -1   3   1   20.40    2.50
  -1   3   1   25.30    2.70
  -1   3   1   24.00    2.70
   0  -3  -1  214.48    6.40
   0  -3  -1  203.88    6.40
   0  -3  -1  198.68    6.20
   0  -3  -1  211.08    6.30
   0   3   1  211.48    6.40
   0   3   1  212.28    6.30
   0   3   1  218.18    6.40
   0   3   1  213.28    6.50
  -1  -3  -1   29.70    2.50
  -1  -3  -1   30.90    2.50
  -1  -3  -1   28.40    2.40
  -1  -3  -1   29.40    2.40
   1   3   1   29.10    2.50
   1   3   1   28.40    2.30
   1   3   1   29.30    2.40
   1   3   1   27.80    2.50
  -2  -3  -1  836.92   17.70
  -2  -3  -1  865.01   17.70
  -2  -3  -1  839.22   16.80
  -2  -3  -1  842.72   17.60
  -2  -3  -1  820.62   17.60
   2   3   1  833.22   17.50
   2   3   1  834.12   17.80
   2   3   1  845.62   17.70
   2   3   1  832.02   17.00
   2   3   1  821.92   17.50
  -3  -3  -1 1131.79   23.20
  -3  -3  -1 1138.09   22.80
  -3  -3  -1 1131.49   23.10
  -3  -3  -1 1142.19   23.40
  -3  -3  -1 1132.79   22.50
  -3  -3  -1 1123.69   23.30
   3   3   1 1131.69   23.40
   3   3   1 1130.59   23.30
   3   3   1 1128.49   23.10
   3   3   1 1144.79   22.40
   3   3   1 1140.69   23.20
   3   3   1 1194.68   21.70
   3   3   1 1129.69   23.00
  -4  -3  -1    1.80    1.60
  -4  -3  -1    3.10    1.50
  -4  -3  -1    3.80    1.90
  -4  -3  -1    5.40    2.00
  -4  -3  -1    6.20    1.90
  -4  -3  -1    4.90    1.70
   4   3   1    6.60    2.00
   4   3   1    3.90    2.20
   4   3   1    2.10    1.60
   4   3   1    3.70    1.80
   4   3   1    4.20    2.00
   4   3   1    2.00    1.40
   4   3   1    5.60    1.90
  -5  -3  -1   39.40    3.80
  -5  -3  -1   35.80    3.20
  -5  -3  -1   37.70    3.80
  -5  -3  -1   35.70    3.80
  -5  -3  -1   38.70    3.70
  -5  -3  -1   44.00    3.80
   5   3   1   39.90    4.10
   5   3   1   37.80    3.90
   5   3   1   38.10    3.60
   5   3   1   39.40    3.70
   5   3   1   39.00    4.10
   5   3   1   37.60    4.30
   5   3   1   37.80    3.10
  -6  -3  -1   75.29    5.50
  -6  -3  -1   71.09    5.10
  -6  -3  -1   78.79    5.50
  -6  -3  -1   85.19    5.00
  -6  -3  -1   76.09    5.30
  -6  -3  -1   86.19    5.30
   6   3   1   72.89    5.80
   6   3   1   83.29    5.20
   6   3   1   70.69    6.10
   6   3   1   85.89    5.70
   6   3   1   79.79    6.30
   6   3   1   72.69    5.30
  -7  -3  -1   54.29    6.20
  -7  -3  -1   56.19    5.70
  -7  -3  -1   59.19    5.60
  -7  -3  -1   52.89    6.00
  -7  -3  -1   56.89    5.90
  -7  -3  -1   51.69    5.60
   7   3   1   51.99    6.80
   7   3   1   61.99    5.70
   7   3   1   48.60    6.40
   7   3   1   65.29    6.50
  -8  -3  -1    4.60    5.50
  -8  -3  -1    8.50    4.30
  -8  -3  -1    0.70    4.50
  -8  -3  -1    9.40    4.80
  -8  -3  -1   -0.20    4.50
  -8  -3  -1    2.50    3.90
   8   3   1    0.00    4.70
   8   3   1    0.30    4.80
   8   3   1    6.20    4.50
   8   3   1    7.20    4.80
  -9  -3  -1   29.30    6.80
  -9  -3  -1   36.80    6.60
  -9  -3  -1   45.70    7.60
  -9  -3  -1   29.50    6.10
  -9  -3  -1   45.50    6.80
  -9  -3  -1   31.10    6.80
   9   3   1   32.70    7.40
   9   3   1   32.40    7.90
   9   3   1   22.60    7.30
   9   3   1   39.10    7.50
   9   3   1   20.40    7.80
 -10  -3  -1    4.00    7.30
 -10  -3  -1    5.00    7.80
 -10  -3  -1  -13.20    8.00
 -10  -3  -1   19.10    8.80
 -10  -3  -1   16.10    7.40
 -10  -3  -1   10.00    7.50
  10   3   1   -1.60   17.80
  10   3   1   -2.30    6.10
  11   3   1    7.40    5.80
  12   3   1   14.60    9.10
   9  -4  -1   10.30   10.10
   8  -4  -1   15.50    9.10
   7  -4  -1    5.50    8.10
   7  -4  -1   -6.50    6.80
   7  -4  -1    5.30    9.10
   7  -4  -1    0.60    9.50
  -7   4   1   -5.30    7.50
  -7   4   1   11.90    8.00
  -7   4   1   -7.30    6.90
  -7   4   1    2.40    7.00
   6  -4  -1   32.90    6.70
   6  -4  -1   47.40    8.20
   6  -4  -1   34.80    8.40
   6  -4  -1   32.00    6.50
   6  -4  -1   24.70    7.50
   6  -4  -1   33.20    6.60
  -6   4   1   21.70    5.90
  -6   4   1   36.90    6.50
  -6   4   1   28.60    6.60
  -6   4   1   31.00    9.40
  -6   4   1   30.50    6.90
   5  -4  -1   -1.40    4.10
   5  -4  -1    5.60    5.30
   5  -4  -1   -0.60    3.80
   5  -4  -1    0.80    4.20
   5  -4  -1   -0.10    4.70
   5  -4  -1   -0.10    4.80
  -5   4   1    0.70    4.70
  -5   4   1    6.10    4.00
  -5   4   1    6.10    4.70
  -5   4   1    4.00    4.80
   4  -4  -1  322.37   12.20
   4  -4  -1  314.37   11.70
   4  -4  -1  313.47   12.70
   4  -4  -1  322.57   10.80
   4  -4  -1  326.07   10.60
  -4   4   1  327.37   11.70
  -4   4   1  325.37   12.00
   3  -4  -1  386.16   10.30
   3  -4  -1  351.16   13.10
   3  -4  -1  361.26   12.50
   3  -4  -1  359.46   11.60
   3  -4  -1  363.96   12.00
  -3   4   1  367.16   11.20
  -3   4   1  354.86   11.30
  -3   4   1  376.26   11.70
  -3   4   1  357.46   11.60
   2  -4  -1  291.47   10.20
   2  -4  -1  284.67    9.70
   2  -4  -1  297.47    9.20
   2  -4  -1  289.57    9.20
   2  -4  -1  289.47    9.50
   2  -4  -1  313.47    8.10
  -2   4   1  290.27    9.50
  -2   4   1  290.77    9.50
  -2   4   1  293.27    9.50
  -2   4   1  292.67    9.30
   1  -4  -1  251.37    8.40
   1  -4  -1  263.27    6.70
   1  -4  -1  256.17    8.00
   1  -4  -1  256.67    8.70
   1  -4  -1  259.97    8.30
   1  -4  -1  251.77    8.00
  -1   4   1  257.77    8.20
  -1   4   1  259.37    8.40
  -1   4   1  249.68    8.20
  -1   4   1  266.37    8.50
   0  -4  -1  140.79    5.70
   0  -4  -1  140.49    5.50
   0  -4  -1  135.69    5.60
   0  -4  -1  142.39    5.60
   0  -4  -1  141.99    5.60
   0   4   1  147.39    5.70
   0   4   1  143.69    5.70
   0   4   1  143.89    5.80
   0   4   1  139.69    5.60
  -1  -4  -1  360.06    9.70
  -1  -4  -1  362.26    9.70
  -1  -4  -1  355.66    9.70
  -1  -4  -1  355.56    9.70
   1   4   1  365.46    9.90
   1   4   1  356.76    9.60
   1   4   1  357.46    9.70
   1   4   1  357.76    9.70
  -2  -4  -1   67.89    4.00
  -2  -4  -1   74.19    4.00
  -2  -4  -1   72.19    3.10
  -2  -4  -1   69.89    3.80
  -2  -4  -1   69.29    4.00
   2   4   1   70.39    3.70
   2   4   1   73.59    4.10
   2   4   1   73.19    3.90
   2   4   1   67.29    3.90
   2   4   1   71.99    4.20
  -3  -4  -1  304.07    8.80
  -3  -4  -1  285.47    8.60
  -3  -4  -1  294.87    7.70
  -3  -4  -1  313.37    8.70
  -3  -4  -1  311.07    9.00
   3   4   1  295.67    8.00
   3   4   1  298.37    9.00
   3   4   1  290.57    8.60
   3   4   1  288.47    8.50
   3   4   1  292.47    8.80
  -4  -4  -1  153.58    5.60
  -4  -4  -1  134.79    6.10
  -4  -4  -1  146.09    6.30
  -4  -4  -1  141.59    6.40
  -4  -4  -1  139.49    6.00
  -4  -4  -1  144.39    5.50
   4   4   1  143.89    6.20
   4   4   1  146.09    6.60
   4   4   1  151.68    6.00
   4   4   1  138.99    6.30
   4   4   1  169.78    4.70
   4   4   1  158.48    5.50
   4   4   1  141.69    6.10
  -5  -4  -1    8.10    2.80
  -5  -4  -1   10.40    3.00
  -5  -4  -1   11.00    2.60
  -5  -4  -1   11.80    3.00
  -5  -4  -1    8.90    2.40
  -5  -4  -1    6.40    2.90
   5   4   1    8.80    2.80
   5   4   1   11.30    2.60
   5   4   1    9.00    3.10
   5   4   1    9.20    2.90
   5   4   1   10.50    2.70
   5   4   1   11.30    2.80
   5   4   1    9.20    2.30
  -6  -4  -1   44.70    4.40
  -6  -4  -1   43.10    5.10
  -6  -4  -1   41.90    4.80
  -6  -4  -1   42.60    5.40
  -6  -4  -1   52.59    5.10
  -6  -4  -1   48.10    4.70
   6   4   1   45.60    4.70
   6   4   1   54.09    5.20
   6   4   1   52.19    5.90
   6   4   1   45.40    4.80
   6   4   1   45.70    3.80
   6   4   1   41.50    5.50
  -7  -4  -1   30.30    4.70
  -7  -4  -1   29.90    4.80
  -7  -4  -1   21.90    4.40
  -7  -4  -1   36.90    5.40
  -7  -4  -1   22.90    4.20
  -7  -4  -1   34.40    4.50
   7   4   1   35.50    5.30
   7   4   1   35.60    5.20
   7   4   1   26.60    4.50
   7   4   1   28.90    5.40
   7   4   1   22.10    5.10
  -8  -4  -1   74.59    9.10
  -8  -4  -1   57.39    7.70
  -8  -4  -1   69.49    8.50
  -8  -4  -1   78.79    7.90
  -8  -4  -1   68.09    7.30
   8   4   1   80.49    8.10
   8   4   1   67.09    8.30
   8   4   1   66.79    7.80
   8   4   1   65.59    7.70
  -9  -4  -1   55.29    7.40
  -9  -4  -1   41.00    6.70
  -9  -4  -1   53.09    7.20
  -9  -4  -1   47.50    7.90
  -9  -4  -1   45.80    6.70
  -9  -4  -1   58.89    8.30
   9   4   1   60.59    8.20
   9   4   1   61.69    9.20
   9   4   1   32.10    8.30
   9   4   1   61.09    8.20
   9   4   1   46.20    8.10
 -10  -4  -1    4.30    6.30
 -10  -4  -1   26.80    8.40
 -10  -4  -1   27.70    9.70
 -10  -4  -1   19.80    7.90
 -10  -4  -1   25.80    8.20
 -10  -4  -1   14.90    9.50
  10   4   1   14.20    9.20
  10   4   1    7.70    8.60
 -11  -4  -1   20.70   12.30
 -11  -4  -1   -1.20   11.00
  11   4   1   -6.70    5.60
  11   4   1   -3.80   12.80
  12   4   1    3.10    8.10
   8  -5  -1    3.90    9.90
   7  -5  -1   31.80    9.40
  -7   5   1   23.60    9.90
  -7   5   1   58.39   16.80
   6  -5  -1   -1.90    6.40
   6  -5  -1    6.30    9.20
   6  -5  -1    3.60    8.40
   6  -5  -1   -1.60    9.10
  -6   5   1   -6.90    6.00
  -6   5   1    0.50    7.10
  -6   5   1   13.20    7.00
   5  -5  -1   39.90    6.10
   5  -5  -1   41.70    6.00
   5  -5  -1   36.20    8.00
   5  -5  -1   36.00    7.50
   5  -5  -1   36.80    6.70
   5  -5  -1   33.50    5.60
  -5   5   1   37.80    6.50
  -5   5   1   28.20    6.40
  -5   5   1   30.20    6.10
  -5   5   1   38.00    6.80
   4  -5  -1    0.10    4.70
   4  -5  -1   -0.30    5.00
   4  -5  -1    2.50    4.20
   4  -5  -1    1.20    4.10
  -4   5   1   -1.90    4.40
  -4   5   1    0.90    4.20
   3  -5  -1 1361.46   30.50
   3  -5  -1 1363.16   28.00
   3  -5  -1 1321.67   29.90
   3  -5  -1 1346.07   29.30
   3  -5  -1 1313.47   31.60
  -3   5   1 1324.97   29.70
  -3   5   1 1313.07   30.20
  -3   5   1 1377.26   29.70
  -3   5   1 1279.17   29.90
   2  -5  -1 1289.07   28.90
   2  -5  -1 1300.87   28.10
   2  -5  -1 1181.28   29.70
   2  -5  -1 1304.47   28.50
   2  -5  -1 1332.07   26.20
   2  -5  -1 1283.17   29.60
  -2   5   1 1292.87   28.50
  -2   5   1 1277.57   28.40
  -2   5   1 1325.57   28.30
  -2   5   1 1307.97   28.70
   1  -5  -1 1609.44   34.20
   1  -5  -1 1632.44   34.90
   1  -5  -1 1694.23   34.90
   1  -5  -1 1666.03   31.70
   1  -5  -1 1646.94   34.30
   1  -5  -1 1656.73   34.10
  -1   5   1 1648.04   34.50
  -1   5   1 1687.03   34.40
  -1   5   1 1656.03   34.60
  -1   5   1 1654.93   34.60
   0  -5  -1 1266.87   24.70
   0  -5  -1 1260.87   27.00
   0  -5  -1 1252.27   27.10
   0  -5  -1 1251.47   26.80
   0  -5  -1 1272.37   26.90
   0  -5  -1 1264.37   24.00
   0   5   1 1232.48   26.90
   0   5   1 1273.27   27.30
   0   5   1 1235.78   26.90
   0   5   1 1258.37   27.00
  -1  -5  -1   64.19    4.60
  -1  -5  -1   55.19    4.30
  -1  -5  -1   57.49    4.20
  -1  -5  -1   62.19    4.40
   1   5   1   64.19    4.40
   1   5   1   53.49    4.60
   1   5   1   60.39    4.30
   1   5   1   59.19    4.30
  -2  -5  -1  749.62   17.50
  -2  -5  -1  723.33   17.20
  -2  -5  -1  727.93   17.00
  -2  -5  -1  722.53   17.30
  -2  -5  -1  712.33   15.10
   2   5   1  741.63   17.20
   2   5   1  709.03   17.00
   2   5   1  751.72   17.40
   2   5   1  724.13   17.10
   2   5   1  738.93   17.60
  -3  -5  -1 1514.65   31.60
  -3  -5  -1 1501.25   31.40
  -3  -5  -1 1519.55   31.70
  -3  -5  -1 1484.75   29.50
  -3  -5  -1 1556.24   31.40
   3   5   1 1526.05   31.90
   3   5   1 1537.25   31.60
   3   5   1 1513.05   31.30
   3   5   1 1509.75   30.80
   3   5   1 1509.15   31.20
  -4  -5  -1 1172.68   25.60
  -4  -5  -1 1130.79   24.90
  -4  -5  -1 1138.79   25.30
  -4  -5  -1 1148.29   25.10
  -4  -5  -1 1149.48   23.70
   4   5   1 1139.29   25.50
   4   5   1 1150.68   25.40
   4   5   1 1160.58   25.00
   4   5   1 1141.89   24.10
   4   5   1 1150.28   25.00
  -5  -5  -1  289.47   10.00
  -5  -5  -1  286.17    9.80
  -5  -5  -1  281.27   10.10
  -5  -5  -1  282.97    8.90
  -5  -5  -1  292.77    9.20
  -5  -5  -1  288.87    9.60
   5   5   1  281.47   10.10
   5   5   1  284.97    9.60
   5   5   1  283.57    8.80
   5   5   1  282.37    9.60
   5   5   1  286.97    7.30
   5   5   1  293.07   10.60
   5   5   1  272.87    9.50
  -6  -5  -1  180.98    8.90
  -6  -5  -1  177.78    8.00
  -6  -5  -1  177.88    7.40
  -6  -5  -1  178.18    8.20
  -6  -5  -1  174.18    8.30
  -6  -5  -1  180.38    7.50
   6   5   1  168.78    8.50
   6   5   1  173.38    7.50
   6   5   1  172.18    8.10
   6   5   1  171.48    9.10
   6   5   1  168.68    5.80
   6   5   1  171.48    8.90
   6   5   1  175.18    8.10
  -7  -5  -1   62.19    7.60
  -7  -5  -1   47.30    5.90
  -7  -5  -1   58.19    6.00
  -7  -5  -1   56.89    6.60
  -7  -5  -1   57.49    6.20
  -7  -5  -1   61.19    5.90
   7   5   1   50.99    6.70
   7   5   1   54.19    6.40
   7   5   1   49.60    6.50
   7   5   1   54.49    7.70
   7   5   1   61.79    7.40
   7   5   1   52.59    6.60
  -8  -5  -1   33.60    6.00
  -8  -5  -1   27.70    5.80
  -8  -5  -1   25.00    6.20
  -8  -5  -1   28.40    5.40
  -8  -5  -1   32.60    6.20
  -8  -5  -1   29.10    6.30
   8   5   1   31.20    6.40
   8   5   1   26.10    6.40
   8   5   1   31.40    6.30
   8   5   1   39.60    6.30
   8   5   1   32.10    5.80
   8   5   1   19.40    6.10
  -9  -5  -1    1.70    7.50
  -9  -5  -1    2.40    4.90
  -9  -5  -1    5.80    5.70
  -9  -5  -1   -8.50    5.60
  -9  -5  -1    5.00    6.20
  -9  -5  -1   15.10    7.10
   9   5   1   10.20    6.80
   9   5   1    8.60    7.00
   9   5   1    2.60    7.30
   9   5   1   -2.50    7.70
 -10  -5  -1    0.70    7.70
 -10  -5  -1    8.70    7.70
 -10  -5  -1   -2.30    8.10
 -10  -5  -1    5.20    8.90
 -10  -5  -1   -4.60    6.40
  10   5   1   14.50    8.70
  10   5   1   -6.00    8.40
 -11  -5  -1   10.30   11.30
 -11  -5  -1   27.50   12.40
  11   5   1   19.80   12.10
  12   5   1    8.10    7.20
   7  -6  -1   24.70   10.80
   6  -6  -1   13.20   10.80
   6  -6  -1   -6.40    8.00
   6  -6  -1   15.30    9.00
  -6   6   1   -6.10    8.40
  -6   6   1    4.00    9.20
   5  -6  -1   22.30    8.60
   5  -6  -1    5.30    8.20
   5  -6  -1    5.40    7.20
  -5   6   1   12.10    6.40
  -5   6   1   10.60    7.30
  -5   6   1   15.30    6.30
  -5   6   1   16.30    7.60
   4  -6  -1   -3.00    6.00
   4  -6  -1   -9.20    5.70
   4  -6  -1   -0.60    4.20
   4  -6  -1    4.00    4.90
   4  -6  -1    1.00    5.50
   4  -6  -1   -1.90    5.00
  -4   6   1    3.20    4.90
  -4   6   1    2.10    5.20
  -4   6   1   -0.70    4.90
   3  -6  -1   11.70    5.30
   3  -6  -1   25.80    5.10
   3  -6  -1   21.30    4.00
   3  -6  -1   19.40    5.50
   3  -6  -1   15.70    5.90
  -3   6   1   24.80    5.50
  -3   6   1   15.40    4.50
  -3   6   1   17.10    5.20
  -3   6   1   18.20    4.80
   2  -6  -1    0.40    2.30
   2  -6  -1    0.90    3.40
   2  -6  -1    2.80    4.20
   2  -6  -1    0.70    3.70
   2  -6  -1   -4.50    3.50
   2  -6  -1   -4.40    4.60
  -2   6   1   -0.20    3.70
  -2   6   1    1.70    3.80
  -2   6   1   -1.00    3.70
  -2   6   1   -3.20    3.50
   1  -6  -1  562.64   15.50
   1  -6  -1  556.54   12.50
   1  -6  -1  557.74   15.30
   1  -6  -1  541.65   16.10
   1  -6  -1  551.84   15.80
   1  -6  -1  547.05   15.50
  -1   6   1  556.84   15.70
  -1   6   1  547.45   15.50
  -1   6   1  546.95   15.60
  -1   6   1  567.74   15.40
   0  -6  -1   46.50    5.40
   0  -6  -1   60.79    4.00
   0  -6  -1   57.19    5.70
   0  -6  -1   52.59    5.50
   0  -6  -1   54.29    5.50
   0   6   1   61.69    5.80
   0   6   1   55.99    5.20
   0   6   1   66.59    5.40
   0   6   1   56.29    5.20
  -1  -6  -1   96.79    6.20
  -1  -6  -1  100.59    6.20
  -1  -6  -1   93.19    5.80
  -1  -6  -1   90.19    6.00
   1   6   1   91.29    5.80
   1   6   1   85.29    6.20
   1   6   1   96.29    5.80
   1   6   1   89.49    6.00
  -2  -6  -1  818.02   19.60
  -2  -6  -1  815.72   19.70
  -2  -6  -1  803.42   19.20
  -2  -6  -1  818.32   19.90
   2   6   1  831.42   20.20
   2   6   1  795.72   19.70
   2   6   1  811.42   19.80
   2   6   1  818.12   19.50
   2   6   1  817.12   19.50
  -3  -6  -1    2.50    2.80
  -3  -6  -1    1.50    1.70
  -3  -6  -1   -0.50    2.30
  -3  -6  -1    3.90    3.30
  -3  -6  -1    1.20    2.40
   3   6   1    1.40    2.50
   3   6   1    4.90    2.80
   3   6   1    3.90    3.20
   3   6   1    1.90    2.70
   3   6   1    4.40    2.60
  -4  -6  -1   -2.90    2.50
  -4  -6  -1   -3.90    2.70
  -4  -6  -1   -2.90    2.50
  -4  -6  -1    2.30    2.90
  -4  -6  -1    0.00    1.90
   4   6   1   -0.30    2.60
   4   6   1   -0.10    2.60
   4   6   1   -0.70    3.30
   4   6   1   -0.20    2.30
   4   6   1   -4.60    2.60
  -5  -6  -1  148.69    7.60
  -5  -6  -1  152.08    7.90
  -5  -6  -1  139.99    8.30
  -5  -6  -1  149.79    8.00
  -5  -6  -1  141.49    6.30
   5   6   1  131.09    8.40
   5   6   1  148.69    7.70
   5   6   1  142.89    6.70
   5   6   1  138.49    7.60
   5   6   1  155.48    5.10
   5   6   1  146.69    8.10
  -6  -6  -1  146.89    8.40
  -6  -6  -1  155.68    8.30
  -6  -6  -1  158.28    7.80
  -6  -6  -1  151.98    9.40
  -6  -6  -1  162.98    9.20
  -6  -6  -1  166.08    7.30
   6   6   1  162.88    7.50
   6   6   1  149.49    9.50
   6   6   1  142.29    8.20
   6   6   1  150.68    8.40
   6   6   1  163.38    8.90
   6   6   1  158.08    5.70
   6   6   1  141.89    9.50
  -7  -6  -1   67.69    7.30
  -7  -6  -1   74.99    7.20
  -7  -6  -1   85.19    8.10
  -7  -6  -1   89.79    8.50
  -7  -6  -1   72.49    6.60
  -7  -6  -1   65.69    8.30
   7   6   1   72.69    7.70
   7   6   1   72.99    7.60
   7   6   1   73.39    9.10
   7   6   1   81.89    8.50
   7   6   1   77.79    5.10
   7   6   1   86.29    8.60
   7   6   1   69.49    6.80
  -8  -6  -1   -3.10    4.80
  -8  -6  -1    1.30    5.70
  -8  -6  -1   -6.00    5.70
  -8  -6  -1   -3.30    5.90
  -8  -6  -1    3.70    5.20
  -8  -6  -1    7.30    4.40
   8   6   1    4.60    6.20
   8   6   1   -4.40    6.30
   8   6   1    0.20    5.30
   8   6   1   -4.20    5.50
   8   6   1   -1.10    4.70
   8   6   1    0.20    5.50
  -9  -6  -1    2.90    7.80
  -9  -6  -1    5.70    6.00
  -9  -6  -1    6.50    8.30
  -9  -6  -1    0.60    5.40
  -9  -6  -1    5.50    5.80
  -9  -6  -1    5.80    6.10
   9   6   1   -3.90    6.80
   9   6   1   16.70    7.10
   9   6   1    7.10    8.80
   9   6   1   -7.50    7.40
   9   6   1    6.10    7.40
   9   6   1    9.20    7.60
 -10  -6  -1   -5.90    9.50
 -10  -6  -1   -1.30    7.80
 -10  -6  -1   13.40    8.20
 -10  -6  -1   11.70    7.40
 -10  -6  -1    6.50    9.50
 -10  -6  -1    5.20    8.40
  10   6   1    7.20    9.70
  10   6   1    9.20    9.10
 -11  -6  -1    9.40   18.90
 -11  -6  -1   16.90   11.80
  11   6   1   31.00   13.30
   6  -7  -1   11.90    8.90
   5  -7  -1    0.80    7.30
   5  -7  -1    8.50    8.30
   5  -7  -1  -15.40    9.90
  -5   7   1  -12.70    7.80
  -5   7   1    7.20   15.10
  -5   7   1   -5.50    8.60
   4  -7  -1  100.59   10.90
   4  -7  -1   92.79   11.50
   4  -7  -1   89.19    9.30
   4  -7  -1   88.89   12.00
   4  -7  -1   89.19   11.00
  -4   7   1  104.09   10.10
  -4   7   1   77.89   10.80
  -4   7   1   69.19    9.90
   3  -7  -1   21.00    6.00
   3  -7  -1   20.10    6.40
   3  -7  -1   15.20    4.50
   3  -7  -1   20.00    6.20
   3  -7  -1   20.80    6.80
   3  -7  -1   17.30    5.80
  -3   7   1   17.20    6.00
  -3   7   1   28.60    6.20
  -3   7   1   25.00    6.40
  -3   7   1   13.50    5.80
   2  -7  -1   60.49    7.80
   2  -7  -1   52.29    7.10
   2  -7  -1   56.69    7.70
   2  -7  -1   55.89    7.50
  -2   7   1   66.39    7.20
  -2   7   1   54.29    7.80
  -2   7   1   58.29    7.20
  -2   7   1   62.59    7.60
   1  -7  -1  502.25   15.60
   1  -7  -1  517.55   16.00
  -1   7   1  527.25   15.60
  -1   7   1  490.45   16.10
  -1   7   1  517.25   16.00
  -1   7   1  485.45   17.00
   0  -7  -1 2071.19   43.70
   0  -7  -1 2178.18   41.00
   0  -7  -1 2112.79   43.80
   0  -7  -1 2072.39   43.40
   0  -7  -1 2061.99   43.40
   0   7   1 2047.20   43.60
   0   7   1 2082.69   43.80
   0   7   1 2054.29   43.70
   0   7   1 2069.29   44.00
  -1  -7  -1  319.17   11.30
  -1  -7  -1  343.27   11.90
  -1  -7  -1  332.37   11.80
  -1  -7  -1  350.26   11.80
   1   7   1  352.86   12.50
   1   7   1  341.77   11.70
   1   7   1  343.37   11.80
   1   7   1  337.07   11.60
  -2  -7  -1  372.66   12.60
  -2  -7  -1  368.36   11.90
  -2  -7  -1  354.86   12.20
   2   7   1  362.76   12.40
   2   7   1  368.06   12.00
   2   7   1  368.26   12.00
   2   7   1  353.26   12.20
   2   7   1  380.96   12.90
  -3  -7  -1    2.90    3.30
  -3  -7  -1   -1.20    3.40
  -3  -7  -1    0.60    3.30
  -3  -7  -1    4.40    3.80
   3   7   1    0.30    2.80
   3   7   1    4.10    4.20
   3   7   1   -3.70    2.70
   3   7   1    3.10    2.80
   3   7   1   -0.80    3.50
  -4  -7  -1  238.18   10.20
  -4  -7  -1  223.58   10.30
  -4  -7  -1  238.08    9.80
  -4  -7  -1  228.88    9.40
  -4  -7  -1  222.48    7.40
   4   7   1  232.08   10.00
   4   7   1  242.78    9.20
   4   7   1  235.48   10.90
   4   7   1  229.28    9.40
   4   7   1  231.38    9.40
  -5  -7  -1  419.56   14.20
  -5  -7  -1  415.96   13.50
  -5  -7  -1  391.16   11.20
  -5  -7  -1  423.86   13.50
  -5  -7  -1  418.16   14.30
   5   7   1  422.86   13.60
   5   7   1  396.56   14.00
   5   7   1  411.86   12.50
   5   7   1  420.46   14.90
   5   7   1  397.46   13.40
   5   7   1  420.56    9.90
  -6  -7  -1   57.49    7.50
  -6  -7  -1   64.39    8.00
  -6  -7  -1   74.69   10.20
  -6  -7  -1   60.59    7.30
  -6  -7  -1   60.39    5.70
   6   7   1   56.89    7.40
   6   7   1   65.29    6.20
   6   7   1   54.29    7.30
   6   7   1   65.59    8.50
   6   7   1   72.09    7.90
  -7  -7  -1  172.08   10.80
  -7  -7  -1  194.98   11.30
  -7  -7  -1  179.28    8.70
  -7  -7  -1  180.68   10.60
  -7  -7  -1  196.58   11.60
  -7  -7  -1  192.78   10.00
   7   7   1  193.38   10.90
   7   7   1  160.18   15.70
   7   7   1  199.68   11.60
   7   7   1  189.48   10.50
   7   7   1  173.78   11.80
   7   7   1  189.08    9.70
  -8  -7  -1    6.20    5.50
  -8  -7  -1   11.30    7.30
  -8  -7  -1    6.90    5.10
  -8  -7  -1    4.10    6.90
  -8  -7  -1    7.50    5.60
  -8  -7  -1    8.70    8.00
   8   7   1    7.10    6.90
   8   7   1    8.00    7.60
   8   7   1    2.90    5.40
   8   7   1    1.80    6.30
   8   7   1    8.40    6.40
   8   7   1    2.50    6.10
  -9  -7  -1   13.60    7.00
  -9  -7  -1   15.30    6.10
  -9  -7  -1   31.80    7.30
  -9  -7  -1   14.20    7.20
  -9  -7  -1   30.90    9.70
  -9  -7  -1   23.80    8.60
   9   7   1   26.60    8.20
   9   7   1   19.80    7.40
   9   7   1   10.90    9.00
   9   7   1    9.80    9.60
   9   7   1   10.80   17.60
   9   7   1   -0.30    8.80
 -10  -7  -1    7.80    7.90
 -10  -7  -1   16.30    9.50
 -10  -7  -1   19.10    9.50
 -10  -7  -1    9.40    8.90
 -10  -7  -1  -15.00   10.50
  10   7   1    9.00    9.90
  10   7   1   -3.50    9.60
  10   7   1    1.30    9.80
 -11  -7  -1    8.90   12.70
  11   7   1   10.80   13.10
   6  -8  -1   11.60   10.70
   5  -8  -1   11.00    9.00
   4  -8  -1   19.40   10.50
   4  -8  -1   11.60    7.90
  -4   8   1   -7.00    8.50
  -4   8   1    2.50    8.70
   3  -8  -1  -12.70    7.00
   3  -8  -1   -4.50    8.20
  -3   8   1    0.40    6.80
  -3   8   1    5.90    6.70
  -3   8   1   -0.40    6.30
  -3   8   1   18.70    9.60
   2  -8  -1  108.79   11.00
   2  -8  -1   89.19    9.60
   2  -8  -1   73.69    9.40
   2  -8  -1   82.29    9.50
   2  -8  -1   98.09   10.10
  -2   8   1   98.29    9.70
  -2   8   1   83.59    9.30
  -2   8   1   81.99   10.60
  -2   8   1   80.09    9.30
   1  -8  -1    3.40    5.40
   1  -8  -1    8.40    5.40
   1  -8  -1    5.20    5.70
   1  -8  -1   12.40    5.40
  -1   8   1    2.50    5.10
  -1   8   1   12.60    5.00
  -1   8   1   -2.10    5.70
  -1   8   1    8.60    5.40
   0  -8  -1   45.20    6.70
   0  -8  -1   33.60    5.80
   0  -8  -1   39.40    5.30
   0  -8  -1   30.00    6.60
   0  -8  -1   38.90    6.10
   0   8   1   36.30    6.80
   0   8   1   25.10    5.70
   0   8   1   32.70    6.00
   0   8   1   32.80    6.40
  -1  -8  -1    3.10    4.50
  -1  -8  -1    4.90    4.70
  -1  -8  -1    7.70    3.60
  -1  -8  -1    5.50    4.30
   1   8   1    3.40    4.70
   1   8   1    0.50    6.00
   1   8   1   -1.60    4.70
   1   8   1    6.20    5.30
  -2  -8  -1  130.09    8.90
  -2  -8  -1  114.79    8.50
  -2  -8  -1  122.59    8.40
   2   8   1  127.69    9.60
   2   8   1  126.29    8.30
   2   8   1  136.59    8.80
   2   8   1  143.09    8.90
   2   8   1  112.49    8.50
  -3  -8  -1  139.69    8.80
  -3  -8  -1  142.39    9.30
  -3  -8  -1  143.69    8.50
   3   8   1  129.19    9.30
   3   8   1  117.59    8.50
   3   8   1  135.79   10.10
   3   8   1  127.99    8.20
   3   8   1  127.89    8.30
  -4  -8  -1  177.68   10.30
  -4  -8  -1  177.58    9.50
  -4  -8  -1  186.48    9.80
   4   8   1  191.98   10.30
   4   8   1  179.38   11.00
   4   8   1  177.98    9.10
   4   8   1  177.38    9.60
   4   8   1  177.68    9.20
  -5  -8  -1   57.19    7.70
  -5  -8  -1   55.69    7.50
  -5  -8  -1   46.60    6.50
  -5  -8  -1   44.30    5.10
  -5  -8  -1   53.49    6.90
   5   8   1   53.79    8.10
   5   8   1   54.99    7.20
   5   8   1   41.20    6.20
   5   8   1   58.79    7.20
  -6  -8  -1   -2.50    5.40
  -6  -8  -1    0.20    5.00
  -6  -8  -1    2.10    3.50
  -6  -8  -1   -6.70    5.10
  -6  -8  -1    0.50    4.70
   6   8   1   -4.90    4.60
   6   8   1   -0.40    4.20
   6   8   1    3.40    5.00
   6   8   1    9.00   11.10
   6   8   1    7.20    6.60
  -7  -8  -1  -11.10    6.40
  -7  -8  -1   12.10    4.30
  -7  -8  -1   -3.30    5.60
  -7  -8  -1    6.10    6.10
  -7  -8  -1    4.20    5.40
   7   8   1    0.30    5.40
   7   8   1  -15.60    7.20
   7   8   1   -5.10    6.30
   7   8   1   -2.30    4.90
   7   8   1   12.80    6.50
  -8  -8  -1    4.80    6.70
  -8  -8  -1    2.70    5.60
  -8  -8  -1   14.90    7.20
  -8  -8  -1   11.40   12.50
  -8  -8  -1   -2.60    7.90
   8   8   1   22.70    7.60
   8   8   1    8.20    6.60
   8   8   1    3.60    8.00
   8   8   1    9.50    8.60
   8   8   1    7.50   12.80
  -9  -8  -1   49.70   11.40
  -9  -8  -1   53.59    8.90
  -9  -8  -1   43.60   11.10
  -9  -8  -1   50.29    8.00
  -9  -8  -1   50.19    8.80
  -9  -8  -1   56.39    9.10
   9   8   1   52.69    9.90
   9   8   1   59.79   12.90
   9   8   1   47.60   11.50
   9   8   1   53.49    9.50
 -10  -8  -1   15.30   10.20
 -10  -8  -1  -13.90    9.50
 -10  -8  -1   16.50    8.20
 -10  -8  -1    4.00   10.20
 -10  -8  -1   -5.20   11.60
  10   8   1   32.50   11.30
  10   8   1    0.80   10.80
  10   8   1    4.60   10.20
 -11  -8  -1  -13.10   14.40
  11   8   1   23.30   15.50
   5  -9  -1   38.40   11.60
   4  -9  -1   -1.10    8.60
  -3   9   1    5.60    9.20
  -3   9   1    3.70   10.30
   2  -9  -1    3.30    8.40
   2  -9  -1   21.60    9.10
  -2   9   1    4.40    8.60
  -2   9   1   11.40    7.20
  -2   9   1   -7.90    7.50
  -2   9   1    2.90    7.30
   1  -9  -1   57.29    9.30
   1  -9  -1   46.10    9.00
   1  -9  -1   55.09    8.90
  -1   9   1   44.90    8.00
  -1   9   1   53.89   12.00
  -1   9   1   53.69    8.20
  -1   9   1   54.79    7.70
   0  -9  -1   52.79    7.50
   0  -9  -1   42.40    7.50
   0  -9  -1   52.39    8.20
   0  -9  -1   43.90    7.70
   0   9   1   52.89    7.50
   0   9   1   49.50    7.40
   0   9   1   49.70    7.70
  -1  -9  -1   56.39    8.00
  -1  -9  -1   55.09    6.30
  -1  -9  -1   62.99    7.60
  -1  -9  -1   67.39    8.70
  -1  -9  -1   58.19    7.80
   1   9   1   60.39    8.00
   1   9   1   46.70    7.20
   1   9   1   56.79    7.10
  -2  -9  -1  105.69    9.80
  -2  -9  -1   90.39    9.30
  -2  -9  -1  112.79    9.70
  -2  -9  -1  109.49    9.70
   2   9   1  111.29   11.60
   2   9   1   96.49    9.70
   2   9   1  109.99    9.40
   2   9   1  110.49    9.30
   2   9   1   95.39    8.70
  -3  -9  -1   98.59    9.10
  -3  -9  -1  126.29    9.90
  -3  -9  -1  113.99   10.00
   3   9   1  120.49    9.90
   3   9   1  118.09    9.90
   3   9   1  117.09    9.30
   3   9   1  105.79   11.30
   3   9   1  100.09    8.90
  -4  -9  -1  148.59   10.80
  -4  -9  -1  120.29    9.90
  -4  -9  -1  110.89   10.20
   4   9   1  143.79   11.90
   4   9   1  110.49   10.20
   4   9   1  151.88   11.30
   4   9   1  135.09    9.80
  -5  -9  -1  366.96   15.30
  -5  -9  -1  358.76   15.20
  -5  -9  -1  361.26   10.80
  -5  -9  -1  362.56   14.90
  -5  -9  -1  375.66   15.50
   5   9   1  374.16   14.50
   5   9   1  389.26   16.60
   5   9   1  354.66   19.70
   5   9   1  337.27   18.60
   5   9   1  401.76   16.30
  -6  -9  -1   24.60    7.10
  -6  -9  -1   17.20    6.90
  -6  -9  -1   32.20    4.90
  -6  -9  -1   33.80    6.90
  -6  -9  -1   36.00    8.00
   6   9   1   19.90    7.60
   6   9   1   15.50    8.40
   6   9   1   29.10    7.70
   6   9   1   26.90    7.00
  -7  -9  -1   11.90    7.30
  -7  -9  -1   11.70    7.30
  -7  -9  -1    5.30    7.50
  -7  -9  -1   10.30    7.80
  -7  -9  -1   22.40    5.40
   7   9   1    4.00    6.80
   7   9   1   26.30    8.90
   7   9   1   14.30    8.60
   7   9   1   19.90    6.70
   7   9   1    8.50    7.20
  -8  -9  -1   20.00    8.60
  -8  -9  -1   29.20   13.30
  -8  -9  -1   17.90    8.60
  -8  -9  -1   25.80    9.20
  -8  -9  -1    5.80    6.30
   8   9   1    7.80    7.80
   8   9   1    4.00    8.00
   8   9   1   15.20   10.80
   8   9   1    8.60    9.90
   8   9   1   18.30    7.50
  -9  -9  -1   62.39    8.80
  -9  -9  -1   52.89   11.20
  -9  -9  -1   46.20   10.30
  -9  -9  -1   66.59   10.40
   9   9   1   75.99   11.00
   9   9   1   58.49    9.80
   9   9   1   65.59   11.60
 -10  -9  -1    9.90    8.40
 -10  -9  -1   24.50   11.20
 -10  -9  -1   26.40   15.10
  10   9   1   18.30   12.60
  10   9   1   20.20   12.00
  10   9   1   -9.00   11.60
   1 -10  -1    7.20    9.30
  -1  10   1   22.00    8.50
  -1  10   1   15.80   10.40
  -1  10   1    9.90    8.60
   0 -10  -1   13.80    8.00
   0 -10  -1   14.20    8.50
   0  10   1   -4.70    7.80
   0  10   1    5.00    9.20
   0  10   1   11.40    7.40
   0  10   1   -4.00    7.20
  -1 -10  -1    4.30    6.70
  -1 -10  -1   10.70    6.10
  -1 -10  -1    7.00    7.40
   1  10   1    5.50    7.30
   1  10   1   19.70    9.10
   1  10   1   22.70    6.80
   1  10   1    4.20    6.30
   1  10   1    5.10    7.60
  -2 -10  -1   18.30    7.80
  -2 -10  -1   -8.70    6.30
  -2 -10  -1   10.70    6.40
  -2 -10  -1    6.10    8.00
  -2 -10  -1   -4.50    5.00
   2  10   1    3.10    6.20
   2  10   1    0.30    6.00
   2  10   1   13.00    8.40
   2  10   1    1.30    7.30
   2  10   1   -1.70    5.80
  -3 -10  -1    7.90    7.20
  -3 -10  -1   -3.00    7.20
  -3 -10  -1   -7.60    5.90
  -3 -10  -1   -5.60    7.40
   3  10   1    1.20    5.50
   3  10   1    3.90    6.20
   3  10   1    4.20    6.30
   3  10   1    8.40    7.40
   3  10   1    0.20    8.30
  -4 -10  -1    7.20    9.20
  -4 -10  -1   -1.90    6.90
  -4 -10  -1   18.30    8.20
  -4 -10  -1    7.20    7.20
   4  10   1   -9.20    7.80
   4  10   1    7.70    8.40
   4  10   1   -8.50    5.60
   4  10   1    1.90    6.00
   4  10   1    0.20    5.90
  -5 -10  -1  337.07   16.60
  -5 -10  -1  348.77   16.50
  -5 -10  -1  342.37   16.80
  -5 -10  -1  338.17   17.20
   5  10   1  379.96   15.70
   5  10   1  377.46   15.50
   5  10   1  353.26   15.10
   5  10   1  335.27   17.50
   5  10   1  343.57   19.50
  -6 -10  -1    9.80    7.90
  -6 -10  -1   -0.90    4.60
  -6 -10  -1  -13.50   12.00
  -6 -10  -1   -8.50    8.00
  -6 -10  -1    1.30    7.50
   6  10   1   -0.40    7.60
   6  10   1   -2.00    8.90
   6  10   1   -3.20    6.00
   6  10   1    8.90    9.60
   6  10   1    7.70    7.30
  -7 -10  -1  135.09   10.10
  -7 -10  -1  142.09   13.90
  -7 -10  -1  144.29   14.50
   7  10   1  155.28   14.10
   7  10   1  131.79   11.90
   7  10   1  139.69   13.10
   7  10   1  125.89   13.70
   7  10   1  145.29   17.00
  -8 -10  -1   29.50    9.80
  -8 -10  -1   21.70    9.60
  -8 -10  -1    5.70    7.00
  -8 -10  -1   19.70   11.20
   8  10   1   15.10    9.60
   8  10   1   10.80    9.80
   8  10   1   23.40    8.60
   8  10   1   -8.00   11.60
  -9 -10  -1   12.70    7.90
  -9 -10  -1   -5.80   11.30
  -9 -10  -1   11.90   10.80
   9  10   1   -5.00   10.50
   9  10   1   -5.70   12.20
   9  10   1   13.60   11.50
   9  10   1   17.10   25.80
 -10 -10  -1   18.40   14.30
 -10 -10  -1    3.30    9.90
  10  10   1   32.80   13.90
  10  10   1  -22.80   14.10
  -1 -11  -1    9.80    8.00
   1  11   1   -2.00    9.10
   1  11   1    6.00   11.30
   1  11   1   -1.60    8.20
   1  11   1  -17.70    8.80
  -2 -11  -1   -4.40   13.20
  -2 -11  -1   12.00    6.60
  -2 -11  -1    5.20   12.70
   2  11   1   17.40    8.40
   2  11   1   15.40    7.80
   2  11   1  -11.80   15.00
   2  11   1   13.20    8.90
   2  11   1    5.90   10.60
  -3 -11  -1   30.10   10.30
  -3 -11  -1   30.90    9.90
   3  11   1   25.50    8.50
   3  11   1   23.90    8.10
   3  11   1   35.10    8.90
   3  11   1   25.70   11.00
   3  11   1   38.40   10.30
  -4 -11  -1   -9.10    8.80
  -4 -11  -1    2.00    8.70
   4  11   1   13.10   10.40
   4  11   1   10.70    7.70
   4  11   1   -2.40    8.00
   4  11   1   -8.70   10.90
   4  11   1   -1.90    7.30
  -5 -11  -1    5.80    9.20
  -5 -11  -1   -6.10    9.00
   5  11   1   -7.30   10.90
   5  11   1   14.60   11.00
   5  11   1   13.90    8.30
   5  11   1    3.10    8.60
   5  11   1   13.20    7.70
  -6 -11  -1   16.50   10.30
  -6 -11  -1    7.40    9.70
   6  11   1   12.10    8.00
   6  11   1   -4.60    8.70
   6  11   1   25.40   12.30
   6  11   1   31.60   12.20
   6  11   1    4.50    9.10
  -7 -11  -1  203.88   17.00
  -7 -11  -1  199.48   28.80
   7  11   1  181.48   20.50
   7  11   1  190.68   17.40
   7  11   1  251.27   17.10
   7  11   1  214.08   15.20
  -8 -11  -1   20.20   11.90
  -8 -11  -1    5.60   11.90
   8  11   1   17.30   16.50
   8  11   1   43.10   10.40
   8  11   1   35.90   11.60
   9  11   1   -2.50   13.30
   9  11   1   -4.10   14.00
  -2 -12  -1   -3.60    9.20
  -3 -12  -1   25.80   11.60
  -3 -12  -1   25.00    8.50
   3  12   1   10.20   12.40
  -4 -12  -1   50.99   12.30
   4  12   1   40.40   15.50
   4  12   1   40.10   11.30
   4  12   1   24.70   10.50
  -5 -12  -1   -9.80   11.90
   5  12   1   22.40   11.50
   5  12   1   26.00   10.90
  -6 -12  -1    5.70   11.90
   6  12   1    4.10   10.20
   6  12   1  -10.50   12.60
  -7 -12  -1   74.29   14.60
   7  12   1   76.09   14.30
   7  12   1   76.59   13.30
   8  12   1  -13.70   14.00
  -3 -13  -1  -10.00   10.90
  -4 -13  -1   13.40   10.60
  -5 -13   2  -13.60    8.40
  -4 -13   2    9.40   10.30
  -3 -13   2    5.40   10.70
  -2 -13   2   -5.70   11.20
  -7 -12   2   35.40   20.40
  -6 -12   2    7.20   15.20
  -4 -12   2   13.30    7.70
  -3 -12   2   19.30    8.40
  -2 -12   2    1.60    9.10
  -1 -12   2   67.19   11.70
   0 -12   2   10.60   12.00
  -8 -11   2   12.20   12.60
   7  11  -2    0.40   10.50
   7  11  -2  -19.30   10.00
  -7 -11   2   -6.80   11.10
   6  11  -2  -11.50   12.20
   6  11  -2   31.30    9.50
   6  11  -2   15.10    9.50
   6  11  -2   18.80    8.80
  -6 -11   2    4.30    9.40
   5  11  -2   12.40    8.10
   5  11  -2   -6.70   11.30
   5  11  -2   23.00    9.60
   5  11  -2    9.00    8.80
  -5 -11   2   16.80    9.60
   4  11  -2  -11.80   10.70
   4  11  -2   -0.90    6.70
   4  11  -2   -8.80    8.20
   4  11  -2   14.10    7.70
  -4 -11   2    6.40    8.80
   3  11  -2  -11.70    7.20
   3  11  -2    1.30    7.80
   3  11  -2  -10.30   10.60
   3  11  -2    3.70    6.90
  -3 -11   2   12.20    6.20
  -3 -11   2   -0.40    8.60
   2  11  -2    6.00    8.70
   2  11  -2    5.70   11.40
   2  11  -2    6.00    6.80
   2  11  -2  -11.80    6.90
  -2 -11   2    4.80    6.50
  -2 -11   2  -12.10    8.30
   1  11  -2   10.30    9.00
   1  11  -2    5.00    7.50
   1  11  -2    0.30    7.30
  -1 -11   2    6.60    7.10
   0  11  -2  -10.20    7.70
   0 -11   2    6.60    8.10
   1 -11   2    7.80   10.00
   9  10  -2   17.30   12.50
  -9 -10   2   -3.50   10.40
  -9 -10   2    6.50   13.70
   8  10  -2   14.70   12.40
   8  10  -2    0.70   10.10
   8  10  -2    3.50   10.90
  -8 -10   2   -4.80   10.20
  -8 -10   2   25.10   10.30
  -8 -10   2   20.70    7.70
   7  10  -2   57.89   12.00
   7  10  -2   49.80   10.20
   7  10  -2   56.09    9.10
   7  10  -2   43.60   12.60
   7  10  -2   36.40    9.50
  -7 -10   2   70.69   10.70
  -7 -10   2   30.40    9.90
   6  10  -2   50.19    8.60
   6  10  -2   39.70   10.90
   6  10  -2   35.20    8.70
   6  10  -2   32.50   10.10
   6  10  -2   32.50    7.90
  -6 -10   2   20.50    8.60
  -6 -10   2   15.50    8.30
   5  10  -2  188.88   14.80
   5  10  -2  221.48   13.00
   5  10  -2  209.08   13.00
   5  10  -2  213.28   14.50
   5  10  -2  215.38   12.30
  -5 -10   2  212.58   14.00
  -5 -10   2  188.68   13.50
  -5 -10   2  205.08   18.50
   4  10  -2   49.50    7.70
   4  10  -2   39.20    8.30
   4  10  -2   44.60    7.30
   4  10  -2   46.30    9.50
   4  10  -2   49.70    7.20
  -4 -10   2   77.59    9.90
  -4 -10   2   62.99    8.70
  -4 -10   2   48.50    9.20
  -4 -10   2   55.09    9.80
   3  10  -2   13.60    5.60
   3  10  -2   13.80    6.10
   3  10  -2   28.70    7.60
   3  10  -2   24.00    6.90
  -3 -10   2   10.20    6.50
  -3 -10   2   14.50    7.70
  -3 -10   2   20.90    7.10
  -3 -10   2   12.20    8.10
   2  10  -2   26.30    6.70
   2  10  -2   24.80    6.80
   2  10  -2   16.40    5.60
   2  10  -2   18.20    6.20
   2  10  -2   29.30    8.40
  -2 -10   2   19.80    6.50
  -2 -10   2   26.70    9.90
  -2 -10   2   24.40    6.40
  -2 -10   2   23.90    7.10
  -2 -10   2   15.40    8.00
   1  10  -2   55.79    9.60
   1  10  -2   73.49    8.70
   1  10  -2   85.69    8.70
   1  10  -2   72.89    7.90
   1  10  -2   74.19   10.90
  -1 -10   2   80.49   10.80
  -1 -10   2   67.09    9.50
  -1 -10   2   69.69    8.20
  -1 -10   2   69.69    9.40
   0  10  -2   26.10    6.30
   0  10  -2   20.90    7.80
   0  10  -2   15.10    7.40
   0  10  -2   28.00    7.40
   0  10  -2   25.90    6.10
   0 -10   2   21.50    8.70
   0 -10   2   33.70    7.20
   0 -10   2   29.50    7.40
   0 -10   2   28.80    7.90
  -1  10  -2   78.39    9.10
  -1  10  -2   84.79   10.50
  -1  10  -2   69.29   10.90
   1 -10   2   83.79   11.00
  -2  10  -2   26.80    8.40
  10   9  -2   -2.30   15.80
 -10  -9   2    3.60   11.20
   9   9  -2   28.60   15.50
   9   9  -2  -10.10   10.30
   9   9  -2    0.60   11.70
   9   9  -2   -5.60   11.20
   9   9  -2    8.60   11.60
  -9  -9   2    4.70   10.70
  -9  -9   2    1.70    8.50
  -9  -9   2    5.00   11.80
   8   9  -2  -23.00   13.10
   8   9  -2    0.10   10.60
   8   9  -2   10.30    8.80
   8   9  -2    9.50    9.20
   8   9  -2   -4.50    8.90
   8   9  -2   13.40    9.10
  -8  -9   2   -5.10    8.40
  -8  -9   2    5.50    6.60
  -8  -9   2   23.00    9.50
   7   9  -2   33.80    7.60
   7   9  -2   25.20    7.60
   7   9  -2   31.50    9.90
   7   9  -2   15.10    7.50
   7   9  -2   25.70    9.30
   7   9  -2   31.70    7.90
  -7  -9   2   22.00    5.30
  -7  -9   2   18.00    7.90
  -7  -9   2   15.60    7.50
  -7  -9   2   16.40    8.40
   6   9  -2  114.59   10.60
   6   9  -2  112.79   10.20
   6   9  -2   88.59   10.60
   6   9  -2  109.39   10.40
   6   9  -2   88.29   10.60
  -6  -9   2   92.89   10.70
  -6  -9   2   89.09   12.70
  -6  -9   2   92.19    7.30
  -6  -9   2   98.69   11.40
   5   9  -2   13.90    7.50
   5   9  -2   -3.00    5.20
   5   9  -2    0.40    6.50
   5   9  -2   15.20    5.60
   5   9  -2    1.50    5.50
  -5  -9   2    0.90    6.60
  -5  -9   2   -1.20    5.30
  -5  -9   2    0.20    5.70
  -5  -9   2   -5.20    6.30
   4   9  -2   27.80    6.40
   4   9  -2   29.40    5.60
   4   9  -2   27.50    6.40
   4   9  -2   35.60    6.00
  -4  -9   2   44.00    6.80
  -4  -9   2   28.10    6.90
  -4  -9   2   40.00    6.00
  -4  -9   2   37.20    7.20
   3   9  -2    3.60    5.10
   3   9  -2   11.80    4.30
   3   9  -2   12.50    5.30
   3   9  -2    0.00    4.70
   3   9  -2   14.30    6.50
  -3  -9   2    4.00    6.00
  -3  -9   2   19.50    5.90
  -3  -9   2   15.00    5.60
  -3  -9   2    7.00    4.80
   2   9  -2   32.60    6.20
   2   9  -2    9.60    4.70
   2   9  -2   14.50    6.10
   2   9  -2   24.10    5.20
   2   9  -2   19.20    5.70
  -2  -9   2   28.80    6.00
  -2  -9   2   14.20    6.20
  -2  -9   2   15.90    4.50
  -2  -9   2   18.60    5.40
   1   9  -2   33.90    5.90
   1   9  -2   32.60    6.70
   1   9  -2   33.20    5.60
   1   9  -2   31.10    6.20
   1   9  -2   39.10    6.10
  -1  -9   2   36.20    6.80
  -1  -9   2   32.50    6.30
  -1  -9   2   40.30    6.40
   0   9  -2   73.49    7.80
   0   9  -2   70.79    8.80
   0   9  -2   64.49    8.40
   0   9  -2   57.79    7.30
   0   9  -2   69.89    8.50
   0  -9   2   80.49    8.80
   0  -9   2   55.09    7.70
   0  -9   2   67.69    8.70
   0  -9   2   74.99    8.80
   0  -9   2   70.09    9.00
  -1   9  -2   13.80    6.50
  -1   9  -2   14.00    5.40
  -1   9  -2   14.40    7.30
  -1   9  -2   21.30    5.50
  -1   9  -2   17.10    6.50
   1  -9   2   16.30    6.00
   1  -9   2   26.00    7.00
   1  -9   2   19.60    6.50
   1  -9   2   24.70    6.80
   1  -9   2   30.50    5.80
  -2   9  -2    2.80    6.00
  -2   9  -2   -3.30    5.70
  -2   9  -2   -4.10    6.40
  -2   9  -2    0.10    6.20
   2  -9   2    5.30    6.80
   2  -9   2   -6.50    6.30
   2  -9   2    5.30    6.70
   2  -9   2   -1.20    6.50
  -3   9  -2   33.40    8.10
  -3   9  -2   41.00    7.80
  -4   9  -2   87.39   10.10
   4  -9   2   81.19   12.00
   5  -9   2   16.90    9.20
  10   8  -2   26.20   13.50
  10   8  -2   16.10   13.50
 -10  -8   2   -9.80    9.40
 -10  -8   2   -8.60   13.80
   9   8  -2    9.30   12.70
   9   8  -2   38.40   10.00
   9   8  -2    9.40   10.00
   9   8  -2    4.20   10.70
   9   8  -2   -7.30   11.40
  -9  -8   2   11.10    9.40
  -9  -8   2    1.20   12.50
  -9  -8   2    5.80    7.70
  -9  -8   2    8.40    9.00
   8   8  -2   11.60    8.10
   8   8  -2    8.70    8.50
   8   8  -2   32.10   10.40
   8   8  -2   24.50    8.50
   8   8  -2    8.00    6.80
   8   8  -2   19.10    9.70
  -8  -8   2   16.70    8.50
  -8  -8   2    0.50    8.20
  -8  -8   2    9.40    6.10
  -8  -8   2   15.80    7.80
  -8  -8   2   12.60    9.00
   7   8  -2   17.40    6.40
   7   8  -2   11.40    6.80
   7   8  -2   16.30    6.80
   7   8  -2   23.00    8.70
   7   8  -2   13.30    8.20
   7   8  -2    3.70    7.00
  -7  -8   2   32.20    8.40
  -7  -8   2   13.40    4.90
  -7  -8   2   20.00    6.80
  -7  -8   2   21.40    7.30
  -7  -8   2    6.20    7.00
  -7  -8   2   11.40    6.30
   6   8  -2   14.40    6.80
   6   8  -2   18.30    6.20
   6   8  -2    9.70    5.90
   6   8  -2   30.60    5.70
   6   8  -2   16.00    6.20
   6   8  -2   12.90    6.40
  -6  -8   2   17.00    4.20
  -6  -8   2   25.70    6.20
  -6  -8   2   20.50    5.90
  -6  -8   2   22.70    6.10
  -6  -8   2   20.50    5.90
  -6  -8   2   16.90    6.80
   5   8  -2   80.99    8.50
   5   8  -2   75.39    8.60
   5   8  -2   90.39   10.60
   5   8  -2   63.29    7.70
   5   8  -2  108.99   10.10
  -5  -8   2   78.29    8.60
  -5  -8   2   82.99    8.20
  -5  -8   2   86.79    8.40
  -5  -8   2   80.59    5.40
   4   8  -2   49.60    7.20
   4   8  -2   57.39    7.60
   4   8  -2   51.29    7.10
   4   8  -2   53.99    8.00
  -4  -8   2   56.79    7.00
  -4  -8   2   46.10    6.40
  -4  -8   2   46.60    6.10
   3   8  -2   35.70    6.40
   3   8  -2   56.89    6.90
   3   8  -2   42.60    6.00
   3   8  -2   36.70    5.80
  -3  -8   2   46.80    5.80
  -3  -8   2   38.90    5.60
  -3  -8   2   43.70    5.60
   2   8  -2  148.49    8.90
   2   8  -2  165.68    8.80
   2   8  -2  156.08    8.30
  -2  -8   2  150.78    8.40
   1   8  -2   30.10    5.40
   1   8  -2   31.80    5.00
   1   8  -2   19.00    5.00
   1   8  -2   24.80    4.60
   1   8  -2   35.70    5.20
  -1  -8   2   29.90    5.00
  -1  -8   2   30.50    5.50
   0   8  -2  133.49    7.80
   0   8  -2  141.09    8.40
   0   8  -2  142.79    9.80
   0   8  -2  131.69    8.70
   0  -8   2  153.58    8.70
   0  -8   2  153.88    8.20
   0  -8   2  140.79    7.50
  -1   8  -2   32.10    5.50
  -1   8  -2   41.40    6.00
  -1   8  -2   31.00    5.10
  -1   8  -2   34.70    5.60
   1  -8   2   38.40    6.00
   1  -8   2   36.70    5.50
   1  -8   2   42.70    5.60
   1  -8   2   37.80    5.50
  -2   8  -2   24.10    5.00
  -2   8  -2   34.80    5.70
  -2   8  -2   25.30    5.50
  -2   8  -2   38.80    5.90
   2  -8   2   24.00    5.50
   2  -8   2   32.50    5.50
   2  -8   2   30.20    5.40
   2  -8   2   33.30    5.80
   2  -8   2   34.80    6.00
  -3   8  -2    9.90    6.10
  -3   8  -2    8.50    5.70
  -3   8  -2   13.20    5.60
  -3   8  -2    6.30    5.50
   3  -8   2    8.50    5.90
   3  -8   2    5.60    5.70
   3  -8   2    6.40    6.70
   3  -8   2    8.40    5.80
   3  -8   2   11.80    6.20
  -4   8  -2   65.89    8.30
  -4   8  -2   56.09    8.10
   4  -8   2   54.39   10.40
   4  -8   2   61.59    8.20
  -5   8  -2   83.69    9.90
   5  -8   2   95.79   12.50
   6  -8   2   14.10    9.10
 -11  -7   2  -36.80   21.60
  10   7  -2   -6.10   12.10
  10   7  -2    3.90   11.90
  10   7  -2   -6.30   11.90
 -10  -7   2   32.40   11.90
 -10  -7   2    3.00   14.10
 -10  -7   2   11.50   12.40
 -10  -7   2   -2.10    8.60
   9   7  -2  -14.70   11.10
   9   7  -2   11.70   10.30
   9   7  -2   -3.60    9.20
   9   7  -2    8.90   10.30
   9   7  -2  -13.40    9.80
  -9  -7   2  -12.00   10.10
  -9  -7   2  -10.40    9.20
  -9  -7   2   13.80    9.40
  -9  -7   2    1.20    8.70
  -9  -7   2   10.50    6.60
   8   7  -2  198.48   13.60
   8   7  -2  223.48   13.30
   8   7  -2  202.98   13.70
   8   7  -2  172.78   13.90
   8   7  -2  169.58   14.70
   8   7  -2  196.18   14.70
  -8  -7   2  175.48   13.20
  -8  -7   2  193.78   14.60
  -8  -7   2  194.98   11.10
  -8  -7   2  191.98   13.30
  -8  -7   2  185.48   13.90
  -8  -7   2  174.78   12.90
   7   7  -2   -1.70    7.00
   7   7  -2   -3.30    5.70
   7   7  -2    2.70    5.50
   7   7  -2  -10.20    6.50
   7   7  -2    0.50    5.60
   7   7  -2   -1.40    6.00
  -7  -7   2   -1.50    5.70
  -7  -7   2    5.60    4.20
  -7  -7   2    2.00    5.80
  -7  -7   2    0.10    5.80
  -7  -7   2   -5.90    4.90
  -7  -7   2   14.30    6.00
   6   7  -2    1.40    5.40
   6   7  -2   -4.70    4.10
   6   7  -2   -3.80    4.30
   6   7  -2   -3.60    4.60
   6   7  -2    1.60    4.90
   6   7  -2    2.40    5.60
  -6  -7   2   -0.10    3.30
  -6  -7   2    0.80    4.60
  -6  -7   2    5.40    4.90
  -6  -7   2   -1.70    4.60
  -6  -7   2   -4.80    4.40
  -6  -7   2    4.30    5.70
   5   7  -2  127.29    8.40
   5   7  -2  120.49    7.90
   5   7  -2  116.49    8.00
   5   7  -2  117.99    9.80
   5   7  -2  113.39    8.10
   5   7  -2  117.59    6.90
  -5  -7   2  123.09    8.40
  -5  -7   2  120.49    7.80
  -5  -7   2  112.59    5.70
  -5  -7   2  126.79    8.00
  -5  -7   2  105.19    8.40
   4   7  -2  497.45   14.40
   4   7  -2  515.45   15.10
   4   7  -2  523.45   15.60
   4   7  -2  491.25   15.20
   4   7  -2  499.35   14.60
  -4  -7   2  526.85   14.90
  -4  -7   2  529.55   15.40
  -4  -7   2  491.35   11.60
  -4  -7   2  517.85   14.50
   3   7  -2   33.70    4.30
   3   7  -2   38.70    5.30
   3   7  -2   26.70    4.40
   3   7  -2   38.50    5.10
   3   7  -2   38.00    5.20
  -3  -7   2   36.90    5.30
  -3  -7   2   40.80    4.80
  -3  -7   2   45.90    5.90
  -3  -7   2   43.90    5.70
   2   7  -2  221.58    9.00
   2   7  -2  201.18    8.10
   2   7  -2  198.68    8.50
   2   7  -2  204.28    9.20
   2   7  -2  208.58    8.10
  -2  -7   2  212.58    8.40
  -2  -7   2  223.88    9.00
  -2  -7   2  186.58    9.10
  -2  -7   2  214.68    9.00
   1   7  -2  168.48    7.30
   1   7  -2  175.18    7.90
   1   7  -2  169.18    8.90
   1   7  -2  174.18    7.40
   1   7  -2  179.68    8.20
  -1  -7   2  187.78    7.60
  -1  -7   2  180.28    8.30
  -1  -7   2  175.28    8.00
   0   7  -2   14.30    3.70
   0   7  -2   14.30    4.10
   0   7  -2   11.00    4.40
   0   7  -2   13.90    3.40
   0   7  -2   15.80    3.60
   0  -7   2   10.00    3.80
   0  -7   2   17.40    3.40
   0  -7   2   16.30    4.30
   0  -7   2   17.70    3.70
  -1   7  -2   39.70    5.20
  -1   7  -2   35.10    4.80
  -1   7  -2   36.40    5.50
  -1   7  -2   36.10    4.80
   1  -7   2   40.40    5.00
   1  -7   2   40.60    5.50
   1  -7   2   40.70    5.00
   1  -7   2   41.90    4.70
  -2   7  -2    0.20    3.60
  -2   7  -2   -3.80    3.60
  -2   7  -2    1.70    3.80
  -2   7  -2    0.80    3.80
   2  -7   2    0.30    4.40
   2  -7   2    0.20    3.60
   2  -7   2   -1.20    3.60
   2  -7   2    3.80    3.80
   2  -7   2    0.30    3.70
   2  -7   2    2.50    3.70
  -3   7  -2   16.40    4.70
  -3   7  -2   14.70    4.60
  -3   7  -2   15.30    5.00
  -3   7  -2   20.20    4.50
   3  -7   2   17.30    5.20
   3  -7   2   14.20    6.40
   3  -7   2    8.30    4.30
   3  -7   2   15.90    4.90
  -4   7  -2   -7.00    4.90
  -4   7  -2   -1.10    5.20
   4  -7   2   -3.20    6.40
   4  -7   2    0.60    5.40
   4  -7   2    2.60    5.70
   4  -7   2    2.90    5.10
   4  -7   2    0.30    5.00
  -5   7  -2   51.69    7.30
  -5   7  -2   50.19    7.40
  -5   7  -2   49.60    7.80
   5  -7   2   46.90    7.70
   5  -7   2   32.00    9.00
  -6   7  -2   14.20    9.10
   6  -7   2   38.50    8.70
   7  -7   2    8.60    8.80
  10   6  -2   24.00   11.10
  10   6  -2   23.00   11.80
 -10  -6   2  -11.40   10.80
 -10  -6   2    6.50    8.40
 -10  -6   2    8.50   11.30
 -10  -6   2    9.00   13.30
   9   6  -2   24.40    9.20
   9   6  -2    6.90    9.90
   9   6  -2  -10.40    8.70
   9   6  -2    8.70    9.80
   9   6  -2   17.50    8.50
  -9  -6   2   10.20    8.10
  -9  -6   2    9.40    6.40
  -9  -6   2   -1.30    7.60
  -9  -6   2  -11.20    9.20
  -9  -6   2    4.50    9.40
  -9  -6   2    1.10    8.90
   8   6  -2  502.75   18.90
   8   6  -2  494.05   18.90
   8   6  -2  478.35   18.20
   8   6  -2  483.45   19.40
   8   6  -2  507.45   17.90
   8   6  -2  502.15   18.60
  -8  -6   2  498.05   18.60
  -8  -6   2  500.15   18.30
  -8  -6   2  482.25   18.10
  -8  -6   2  513.15   18.00
  -8  -6   2  472.95   17.30
  -8  -6   2  478.65   15.90
   7   6  -2  102.29    9.00
   7   6  -2  106.79   10.70
   7   6  -2   99.89    9.40
   7   6  -2  103.19    9.10
   7   6  -2  112.99   10.70
  -7  -6   2  107.89    9.80
  -7  -6   2   95.69    9.80
  -7  -6   2  107.89    9.10
  -7  -6   2   97.99    7.90
  -7  -6   2  100.69    8.50
   6   6  -2    4.50    5.00
   6   6  -2   -1.10    3.80
   6   6  -2    3.70    4.10
   6   6  -2    1.50    4.20
   6   6  -2    4.20    5.00
   6   6  -2   -2.30    4.50
  -6  -6   2    1.90    4.20
  -6  -6   2    0.90    4.70
  -6  -6   2   -0.20    2.90
  -6  -6   2    6.50    3.80
  -6  -6   2   -5.00    3.70
  -6  -6   2   -0.30    3.90
   5   6  -2   57.99    7.30
   5   6  -2   70.69    6.60
   5   6  -2   71.99    6.20
   5   6  -2   63.19    6.10
   5   6  -2   72.39    5.70
   5   6  -2   73.89    6.10
  -5  -6   2   65.59    4.80
  -5  -6   2   63.99    5.90
  -5  -6   2   74.89    6.80
  -5  -6   2   52.09    7.10
  -5  -6   2   68.39    6.10
  -5  -6   2   63.49    6.70
   4   6  -2   71.29    6.10
   4   6  -2   83.49    4.80
   4   6  -2   71.89    5.70
   4   6  -2   70.79    5.50
   4   6  -2   77.69    6.00
   4   6  -2   67.29    5.30
  -4  -6   2   71.39    5.80
  -4  -6   2   73.79    7.20
  -4  -6   2   78.19    6.50
  -4  -6   2   70.99    4.10
  -4  -6   2   71.09    5.40
  -4  -6   2   79.99    6.30
   3   6  -2  300.47    9.40
   3   6  -2  285.17    9.70
   3   6  -2  289.97   10.10
   3   6  -2  288.17    9.30
   3   6  -2  290.37   10.00
  -3  -6   2  291.77    9.50
  -3  -6   2  280.87    9.80
  -3  -6   2  281.17    9.30
  -3  -6   2  287.37   10.00
   2   6  -2  621.14   15.20
   2   6  -2  595.84   16.40
   2   6  -2  633.64   15.10
   2   6  -2  619.44   15.80
   2   6  -2  623.34   15.60
  -2  -6   2  632.74   15.60
  -2  -6   2  606.64   15.20
  -2  -6   2  626.14   15.80
  -2  -6   2  607.54   15.00
   1   6  -2  518.45   15.00
   1   6  -2  529.15   13.20
   1   6  -2  521.45   13.60
   1   6  -2  525.95   13.20
   1   6  -2  521.65   13.90
  -1  -6   2  524.95   13.80
  -1  -6   2  540.05   13.70
  -1  -6   2  525.75   13.20
   0   6  -2   17.70    3.40
   0   6  -2   18.30    2.90
   0   6  -2   14.40    3.50
   0   6  -2   14.90    2.80
   0   6  -2   15.10    3.10
   0  -6   2   17.30    3.70
   0  -6   2   16.50    2.90
   0  -6   2   17.60    3.10
   0  -6   2   16.50    3.40
   0  -6   2   15.00    3.20
  -1   6  -2  250.47    8.40
  -1   6  -2  246.78    9.50
  -1   6  -2  248.98    8.50
  -1   6  -2  256.57    8.30
   1  -6   2  254.47    8.10
   1  -6   2  238.88   10.50
   1  -6   2  265.17    9.30
   1  -6   2  256.37    8.40
   1  -6   2  248.68    8.50
   1  -6   2  234.78    8.30
  -2   6  -2  147.89    7.00
  -2   6  -2  159.28    7.00
  -2   6  -2  146.39    6.90
  -2   6  -2  149.49    6.80
   2  -6   2  151.88    8.10
   2  -6   2  161.78    7.60
   2  -6   2  155.08    6.50
   2  -6   2  144.39    9.10
   2  -6   2  144.49    7.10
   2  -6   2  158.78    6.90
  -3   6  -2  151.18    7.30
  -3   6  -2  135.09    7.60
  -3   6  -2  152.08    7.50
  -3   6  -2  165.78    7.40
   3  -6   2  148.09    7.90
   3  -6   2  165.28    7.50
   3  -6   2  157.78    7.20
   3  -6   2  141.19    9.70
  -4   6  -2   45.00    6.10
  -4   6  -2   39.90    5.40
   4  -6   2   43.50    6.00
   4  -6   2   47.40    8.60
   4  -6   2   42.20    5.70
   4  -6   2   42.50    5.70
   4  -6   2   49.10    5.20
  -5   6  -2   43.70    6.10
  -5   6  -2   43.60    6.10
  -5   6  -2   35.80    5.80
  -5   6  -2   38.20    6.30
   5  -6   2   40.20    6.70
   5  -6   2   24.10    7.50
   5  -6   2   37.20    5.90
   5  -6   2   34.00    5.70
   5  -6   2   34.60    6.20
  -6   6  -2   17.00    6.80
  -6   6  -2   19.50    7.30
  -6   6  -2   22.60    6.80
   6  -6   2   26.30    8.40
   6  -6   2   23.20    7.10
  -7   6  -2   33.00    9.70
   7  -6   2   35.00    9.20
   8  -6   2   15.30   10.10
  10   5  -2   25.90   10.50
  10   5  -2   12.10   12.00
 -10  -5   2    8.40    8.20
 -10  -5   2  -16.90    9.70
 -10  -5   2   15.30   10.10
 -10  -5   2   17.20   11.50
   9   5  -2  -10.30    8.30
   9   5  -2   14.90    9.70
   9   5  -2   -2.10    7.70
   9   5  -2   -1.70    9.10
  -9  -5   2   12.10    8.50
  -9  -5   2    8.70    7.80
  -9  -5   2    5.60    8.10
  -9  -5   2   -7.50    5.30
  -9  -5   2  -13.60    7.40
  -9  -5   2    3.10    8.60
   8   5  -2   34.50    7.70
   8   5  -2   23.10    6.80
   8   5  -2   20.80    6.80
   8   5  -2    8.50    6.80
   8   5  -2   31.80    7.00
   8   5  -2   14.70    7.20
  -8  -5   2   24.50    5.60
  -8  -5   2   24.60    7.80
  -8  -5   2   17.80    6.70
  -8  -5   2   29.50    7.40
  -8  -5   2   13.70    6.90
  -8  -5   2   18.50    6.60
   7   5  -2   55.79    7.20
   7   5  -2   58.49    8.70
   7   5  -2   56.59    7.80
   7   5  -2   64.49    9.00
   7   5  -2   60.59    8.20
   7   5  -2   57.89    8.70
  -7  -5   2   64.99    7.10
  -7  -5   2   58.59    7.30
  -7  -5   2   51.69    7.50
  -7  -5   2   42.90    7.50
  -7  -5   2   52.89    6.80
  -7  -5   2   62.69    7.70
   6   5  -2 1812.12   38.40
   6   5  -2 1770.52   38.20
   6   5  -2 1802.32   38.10
   6   5  -2 1609.34   40.30
   6   5  -2 1745.63   37.60
   6   5  -2 1770.72   37.70
  -6  -5   2 1775.62   36.40
  -6  -5   2 1811.72   38.30
  -6  -5   2 1766.92   38.10
  -6  -5   2 1789.72   37.70
  -6  -5   2 1698.93   37.30
   5   5  -2   78.29    5.80
   5   5  -2   82.49    6.10
   5   5  -2   94.99    6.20
   5   5  -2   90.19    7.20
   5   5  -2   82.69    6.10
   5   5  -2   87.09    6.40
  -5  -5   2   92.89    6.10
  -5  -5   2   90.29    6.50
  -5  -5   2  101.59    5.40
  -5  -5   2   84.99    6.20
  -5  -5   2   86.09    6.00
  -5  -5   2   97.59    7.70
   4   5  -2    2.90    2.70
   4   5  -2    0.20    2.30
   4   5  -2    5.20    2.50
   4   5  -2    5.40    2.50
   4   5  -2    1.40    2.00
   4   5  -2    5.60    3.00
  -4  -5   2    2.90    2.50
  -4  -5   2   -1.00    1.60
  -4  -5   2    3.20    3.20
  -4  -5   2    1.80    2.40
  -4  -5   2    2.60    2.50
  -4  -5   2   -1.30    2.80
   3   5  -2  169.88    6.80
   3   5  -2  162.38    6.80
   3   5  -2  161.48    6.30
   3   5  -2  172.98    7.10
   3   5  -2  159.58    6.40
   3   5  -2  168.78    5.30
  -3  -5   2  175.48    6.80
  -3  -5   2  165.58    5.00
  -3  -5   2  151.48    7.10
  -3  -5   2  171.18    6.90
  -3  -5   2  158.38    6.50
  -3  -5   2  169.08    6.50
   2   5  -2  539.85   14.20
   2   5  -2  530.65   13.00
   2   5  -2  540.65   13.10
   2   5  -2  548.95   13.50
   2   5  -2  534.35   13.30
  -2  -5   2  535.95   13.00
  -2  -5   2  532.75   13.40
  -2  -5   2  546.35   13.40
  -2  -5   2  525.95   13.00
   1   5  -2  645.64   15.10
   1   5  -2  665.53   15.40
   1   5  -2  638.54   16.40
   1   5  -2  660.93   14.90
   1   5  -2  652.73   14.80
  -1  -5   2  669.83   15.20
  -1  -5   2  661.63   15.30
  -1  -5   2  644.44   14.80
   0   5  -2  238.18    7.50
   0   5  -2  244.88    7.30
   0   5  -2  230.48    8.70
   0   5  -2  230.68    7.10
   0   5  -2  235.18    7.50
   0  -5   2  218.08    7.10
   0  -5   2  236.78    7.00
   0  -5   2  245.18    8.10
   0  -5   2  235.88    7.40
   0  -5   2  240.18    7.30
  -1   5  -2    3.60    2.00
  -1   5  -2    2.40    2.00
  -1   5  -2    1.40    2.00
   1  -5   2    1.50    2.00
   1  -5   2    2.50    2.40
   1  -5   2    1.20    2.80
   1  -5   2    2.40    2.00
   1  -5   2    4.10    2.10
   1  -5   2    2.60    2.20
  -2   5  -2   37.20    3.70
  -2   5  -2   40.80    3.90
  -2   5  -2   48.20    4.00
  -2   5  -2   44.10    3.90
   2  -5   2   38.30    3.90
   2  -5   2   39.20    3.80
   2  -5   2   40.90    5.60
   2  -5   2   47.70    4.10
   2  -5   2   42.20    4.00
   2  -5   2   39.00    4.30
  -3   5  -2  816.62   18.80
  -3   5  -2  831.72   18.60
  -3   5  -2  843.92   18.70
  -3   5  -2  804.02   18.90
  -3   5  -2  814.62   17.20
   3  -5   2  838.12   17.90
   3  -5   2  804.92   18.70
   3  -5   2  794.62   22.50
   3  -5   2  825.22   18.40
   3  -5   2  836.32   18.00
   3  -5   2  804.02   18.10
  -4   5  -2    1.60    3.50
  -4   5  -2    6.80    3.20
  -4   5  -2    5.80    2.50
  -4   5  -2    5.20    4.30
   4  -5   2    3.40    3.00
   4  -5   2    3.40    3.80
   4  -5   2    7.80    3.40
   4  -5   2    1.10    4.50
   4  -5   2    3.90    3.50
  -5   5  -2    6.00    3.80
  -5   5  -2    6.40    4.60
  -5   5  -2    5.80    3.60
  -5   5  -2    1.10    4.20
  -5   5  -2    1.60    2.80
   5  -5   2   -1.20    4.00
   5  -5   2   -2.60    5.10
   5  -5   2    4.10    5.50
   5  -5   2    1.20    4.50
   5  -5   2   -3.40    4.30
  -6   5  -2   40.00    6.70
  -6   5  -2   47.60    6.80
  -6   5  -2   45.40    6.10
  -6   5  -2   45.30    6.00
  -6   5  -2   28.90    5.00
   6  -5   2   45.30    7.30
   6  -5   2   44.50    8.60
   6  -5   2   43.10    7.00
   6  -5   2   62.29    8.50
   6  -5   2   36.30    6.60
   6  -5   2   46.50    6.00
  -7   5  -2   -1.00    5.30
  -7   5  -2   -3.20    7.00
  -7   5  -2   -7.00    7.20
   7  -5   2   20.40    8.20
   7  -5   2    4.90    7.70
  -8   5  -2   13.60   11.50
   8  -5   2   -8.70    8.10
  11   4  -2    7.00    6.10
  11   4  -2   13.30   16.80
 -10  -4   2  -12.40   11.80
 -10  -4   2   10.70    9.80
 -10  -4   2    3.10    8.50
 -10  -4   2    5.30    9.60
   9   4  -2    6.90    7.80
   9   4  -2    8.50    7.90
   9   4  -2    9.70    8.90
  -9  -4   2   12.90    8.50
  -9  -4   2   -4.40    5.50
  -9  -4   2    1.00    7.40
  -9  -4   2   11.20    7.40
  -9  -4   2   14.50    8.70
  -9  -4   2   12.60    7.20
   8   4  -2    5.10    6.30
   8   4  -2    7.10    5.80
   8   4  -2   -9.50    6.70
   8   4  -2   -3.70    6.20
   8   4  -2    5.10    7.20
   8   4  -2   -6.30    6.40
  -8  -4   2   -3.20    4.20
  -8  -4   2   -5.70    5.20
  -8  -4   2   -0.90    5.60
  -8  -4   2    2.50    6.30
  -8  -4   2    8.40    6.90
  -8  -4   2    3.40    5.80
   7   4  -2   52.59    7.00
   7   4  -2   44.20    7.00
   7   4  -2   58.69    7.60
   7   4  -2   51.39    6.90
   7   4  -2   47.50    6.80
   7   4  -2   46.20    6.60
  -7  -4   2   59.29    7.80
  -7  -4   2   63.79    8.30
  -7  -4   2   55.09    7.50
  -7  -4   2   51.99    6.60
  -7  -4   2   54.89    7.80
  -7  -4   2   53.09    7.50
   6   4  -2 5514.25  101.59
   6   4  -2 5265.57  101.39
   6   4  -2 5320.67  101.39
   6   4  -2 5401.46  101.29
   6   4  -2 5312.07  102.39
   6   4  -2 5346.06  101.49
  -6  -4   2 5369.26  101.59
  -6  -4   2 5192.38  100.29
  -6  -4   2 5486.95  101.39
  -6  -4   2 5418.96  101.39
  -6  -4   2 5432.46  101.69
  -6  -4   2 5454.85  101.59
   5   4  -2  106.99    6.40
   5   4  -2  112.39    6.30
   5   4  -2  112.79    6.30
   5   4  -2  108.29    6.40
   5   4  -2  112.09    6.60
   5   4  -2  107.29    6.90
  -5  -4   2  109.89    5.60
  -5  -4   2  100.59    6.60
  -5  -4   2  113.39    6.70
  -5  -4   2  102.89    6.20
  -5  -4   2  109.49    6.90
  -5  -4   2  112.49    6.50
   4   4  -2  329.17   10.10
   4   4  -2  331.87   10.10
   4   4  -2  331.67   10.10
   4   4  -2  332.97   10.00
   4   4  -2  323.17    9.80
   4   4  -2  326.87    9.30
  -4  -4   2  319.57    9.60
  -4  -4   2  331.07   10.00
  -4  -4   2  334.77    9.00
  -4  -4   2  333.97   10.10
   3   4  -2   37.20    2.90
   3   4  -2   41.10    3.50
   3   4  -2   37.10    3.70
   3   4  -2   41.70    3.70
   3   4  -2   38.00    3.40
   3   4  -2   46.00    3.50
  -3  -4   2   39.60    3.50
  -3  -4   2   37.90    3.50
  -3  -4   2   49.00    3.60
  -3  -4   2   40.70    2.80
  -3  -4   2   38.60    3.40
  -3  -4   2   36.30    3.60
   2   4  -2   22.90    2.80
   2   4  -2   21.00    2.50
   2   4  -2   22.60    2.80
   2   4  -2   19.20    1.80
   2   4  -2   19.90    2.40
   2   4  -2   20.30    2.70
  -2  -4   2   22.50    3.00
  -2  -4   2   22.70    2.40
  -2  -4   2   20.80    2.50
  -2  -4   2   23.10    2.80
  -2  -4   2   21.00    1.70
  -2  -4   2   18.00    2.50
   1   4  -2 3092.79   57.19
   1   4  -2 3051.49   57.49
   1   4  -2 3056.59   57.29
   1   4  -2 3071.89   57.19
   1   4  -2 3053.99   58.69
  -1  -4   2 3056.69   57.09
  -1  -4   2 3149.08   57.39
  -1  -4   2 3109.19   57.49
   0   4  -2 2901.31   54.69
   0   4  -2 2983.30   56.89
   0   4  -2 2949.70   54.89
   0   4  -2 2903.41   54.99
   0   4  -2 2912.41   54.69
   0  -4   2 2970.40   54.49
   0  -4   2 2966.90   54.89
   0  -4   2 2996.70   56.09
   0  -4   2 2929.11   54.59
   0  -4   2 2982.10   54.79
  -1   4  -2 2356.56   44.60
  -1   4  -2 2313.17   44.40
  -1   4  -2 2383.26   44.50
  -1   4  -2 2357.76   44.70
   1  -4   2 2375.86   45.80
   1  -4   2 2359.16   44.10
   1  -4   2 2428.36   44.30
   1  -4   2 2356.96   44.40
   1  -4   2 2339.57   47.40
  -2   4  -2  108.49    4.50
  -2   4  -2  103.39    4.40
  -2   4  -2  107.89    4.50
  -2   4  -2  107.69    4.50
   2  -4   2  104.39    4.00
   2  -4   2   87.39    5.70
   2  -4   2  109.39    5.30
   2  -4   2  107.39    4.20
   2  -4   2  109.49    6.60
   2  -4   2  113.29    4.40
   2  -4   2  102.29    4.20
  -3   4  -2  360.46    9.60
  -3   4  -2  368.86    9.90
  -3   4  -2  373.06    9.90
  -3   4  -2  356.86    9.60
  -3   4  -2  363.06    9.00
   3  -4   2  369.26    9.20
   3  -4   2  343.87   12.60
   3  -4   2  372.46    9.30
   3  -4   2  365.26    9.60
   3  -4   2  368.36   10.30
   3  -4   2  379.86    9.80
  -4   4  -2  399.36   10.60
  -4   4  -2  400.96   10.80
  -4   4  -2  412.76   11.40
  -4   4  -2  403.46   10.70
  -4   4  -2  414.06   11.50
   4  -4   2  399.86   10.60
   4  -4   2  388.66   11.30
   4  -4   2  411.76   10.40
   4  -4   2  423.76   11.60
   4  -4   2  390.56   11.10
   4  -4   2  389.96   14.60
  -5   4  -2  303.87    9.60
  -5   4  -2  301.07    9.70
  -5   4  -2  315.87    9.90
  -5   4  -2  328.47   10.90
  -5   4  -2  306.47   10.60
   5  -4   2  317.07   10.40
   5  -4   2  295.07   11.00
   5  -4   2  310.17   10.90
   5  -4   2  320.77    9.80
   5  -4   2  289.07   13.50
  -6   4  -2   35.10    4.70
  -6   4  -2   34.80    5.80
  -6   4  -2   34.50    4.90
  -6   4  -2   37.90    5.60
  -6   4  -2   38.90    5.30
   6  -4   2   47.40    5.60
   6  -4   2   40.90    5.80
   6  -4   2   44.50    6.30
   6  -4   2   30.60    7.40
   6  -4   2   46.10    6.30
   6  -4   2   31.20    5.70
  -7   4  -2    3.00    5.40
  -7   4  -2   10.10    5.40
  -7   4  -2    4.00    4.90
  -7   4  -2   10.40    5.90
  -7   4  -2   18.90    6.40
   7  -4   2   11.80    7.10
   7  -4   2    1.40    5.80
   7  -4   2    9.70    7.00
   7  -4   2   14.10    6.50
   7  -4   2   12.90    6.60
  -8   4  -2   -7.60    6.10
  -8   4  -2   -0.20    7.80
  -8   4  -2   -3.50    8.00
   8  -4   2    6.40    7.00
  -9   4  -2   -8.60    9.60
   9  -4   2   -0.40    8.80
  11   3  -2  -10.20   17.70
  11   3  -2   -0.40    6.50
  10   3  -2   23.60   11.80
  10   3  -2   17.10    6.70
  10   3  -2   64.29   13.50
 -10  -3   2   37.60   10.00
 -10  -3   2   27.30   10.50
 -10  -3   2   36.40    9.70
   9   3  -2    0.50    8.10
  -9  -3   2    4.00    7.80
  -9  -3   2   18.90    6.30
  -9  -3   2  -11.40    8.10
  -9  -3   2    5.10    6.80
  -9  -3   2   20.10    7.50
  -9  -3   2    2.30    8.20
   8   3  -2   10.60    6.50
   8   3  -2    5.20    6.40
   8   3  -2    2.20    6.40
   8   3  -2    8.10    6.00
  -8  -3   2    5.70    5.70
  -8  -3   2   -5.70    5.90
  -8  -3   2   -5.20    5.70
  -8  -3   2    6.20    4.40
  -8  -3   2    1.40    5.40
  -8  -3   2    9.60    6.20
   7   3  -2    4.90    5.40
   7   3  -2    5.10    4.40
   7   3  -2    6.60    4.60
   7   3  -2    7.80    4.60
   7   3  -2    7.60    4.80
   7   3  -2    3.30    4.90
  -7  -3   2    5.50    4.50
  -7  -3   2   12.50    4.90
  -7  -3   2    4.50    5.80
  -7  -3   2    8.80    4.80
  -7  -3   2    5.70    4.40
   6   3  -2  155.38    8.20
   6   3  -2  169.78    8.50
   6   3  -2  172.08    8.40
   6   3  -2  152.48    8.20
   6   3  -2  164.48    8.60
   6   3  -2  130.89    9.30
  -6  -3   2  119.79    9.90
  -6  -3   2  158.98    8.00
  -6  -3   2  151.08    8.00
  -6  -3   2  156.38    7.30
  -6  -3   2  153.18   12.80
  -6  -3   2  165.78    8.10
   5   3  -2  517.15   13.90
   5   3  -2  508.95   14.00
   5   3  -2  510.05   14.10
   5   3  -2  498.85   13.80
   5   3  -2  507.75   14.50
   5   3  -2  525.15   13.80
  -5  -3   2  509.85   13.30
  -5  -3   2  521.45   14.00
  -5  -3   2  517.55   14.10
  -5  -3   2  525.95   14.20
  -5  -3   2  519.75   13.80
  -5  -3   2  502.75   13.70
   4   3  -2 4327.67   80.29
   4   3  -2 4399.26   79.99
   4   3  -2 4242.08   80.79
   4   3  -2 4250.87   80.29
   4   3  -2 4315.97   80.39
   4   3  -2 4299.77   80.29
  -4  -3   2 4313.97   80.09
  -4  -3   2 4329.17   80.39
  -4  -3   2 4301.47   80.59
  -4  -3   2 4276.87   80.19
  -4  -3   2 4223.58   79.49
  -4  -3   2 4318.57   80.19
   3   3  -2  713.13   15.80
   3   3  -2  704.33   15.20
   3   3  -2  718.53   15.80
   3   3  -2  698.03   16.20
   3   3  -2  707.13   15.80
   3   3  -2  692.13   15.80
  -3  -3   2  694.33   15.60
  -3  -3   2  724.53   16.30
  -3  -3   2  719.43   15.80
  -3  -3   2  719.73   15.10
  -3  -3   2  718.03   15.90
  -3  -3   2  711.23   16.00
   2   3  -2  180.78    5.00
   2   3  -2  192.28    6.10
   2   3  -2  184.88    5.70
   2   3  -2  189.08    5.70
   2   3  -2  188.78    5.70
   2   3  -2  190.58    5.60
  -2  -3   2  190.48    4.90
  -2  -3   2  181.58    6.10
  -2  -3   2  195.28    5.80
  -2  -3   2  188.38    5.70
  -2  -3   2  182.68    5.50
  -2  -3   2  184.78    5.60
   1   3  -2  331.87    8.10
   1   3  -2  345.97    9.00
   1   3  -2  344.47    8.00
   1   3  -2  344.87    8.10
   1   3  -2  346.17    8.10
  -1  -3   2  346.07    9.10
  -1  -3   2  334.97    8.10
  -1  -3   2  337.67    8.00
  -1  -3   2  340.27    8.10
   0   3  -2  922.71   18.50
   0   3  -2  945.11   20.00
   0   3  -2  936.61   18.40
   0   3  -2  923.01   18.30
   0   3  -2  950.40   18.50
   0  -3   2  975.20   19.80
   0  -3   2  944.41   18.50
   0  -3   2  928.51   18.30
   0  -3   2  931.61   18.20
   0  -3   2  944.11   18.50
  -1   3  -2    8.90    1.50
  -1   3  -2    9.70    1.60
  -1   3  -2   10.00    1.50
  -1   3  -2    9.70    1.40
   1  -3   2    9.30    2.00
   1  -3   2    9.60    1.50
   1  -3   2    8.20    2.60
  -2   3  -2   30.90    2.40
  -2   3  -2   31.30    2.50
  -2   3  -2   30.40    2.10
  -2   3  -2   29.40    2.40
  -2   3  -2   28.20    2.40
   2  -3   2   31.60    3.10
   2  -3   2   29.30    3.90
   2  -3   2   32.10    2.40
   2  -3   2   30.60    2.20
  -3   3  -2  203.68    6.20
  -3   3  -2  199.68    6.10
  -3   3  -2  204.68    6.00
   3  -3   2  203.28    6.10
   3  -3   2  194.78    5.60
   3  -3   2  196.88    8.60
   3  -3   2  197.88    6.40
   3  -3   2  192.48    6.40
   3  -3   2  197.68    5.50
  -4   3  -2    2.40    2.10
  -4   3  -2    6.10    2.40
  -4   3  -2    3.80    1.90
  -4   3  -2    0.00    1.90
  -4   3  -2    2.60    2.00
   4  -3   2    0.30    2.00
   4  -3   2    2.80    2.40
   4  -3   2    2.00    2.20
   4  -3   2    1.90    2.20
   4  -3   2    3.40    2.40
   4  -3   2    6.40    3.90
  -5   3  -2  138.69    6.20
  -5   3  -2  124.19    5.90
  -5   3  -2  133.09    5.90
  -5   3  -2  133.69    6.50
  -5   3  -2  121.69    6.50
   5  -3   2  123.59    7.20
   5  -3   2  117.49    6.90
   5  -3   2  134.39    5.90
   5  -3   2  122.29    8.40
   5  -3   2  138.59    6.70
   5  -3   2  102.19    6.70
  -6   3  -2  112.49    6.90
  -6   3  -2  119.49    7.60
  -6   3  -2  119.09    6.50
  -6   3  -2  123.79    7.70
  -6   3  -2  111.39    7.40
   6  -3   2  115.39    7.80
   6  -3   2  111.19    6.60
   6  -3   2  118.69    9.60
   6  -3   2  121.59    7.70
   6  -3   2  118.09    6.70
   6  -3   2  105.29    8.10
  -7   3  -2   10.30    4.50
  -7   3  -2    4.60    4.70
  -7   3  -2    0.20    4.30
  -7   3  -2    3.90    5.20
   7  -3   2   11.30    5.00
   7  -3   2    2.40    5.40
   7  -3   2    5.00    5.50
   7  -3   2    6.80    5.80
   7  -3   2    7.30    5.20
   7  -3   2    2.50    6.70
  -8   3  -2   -2.30    6.20
  -8   3  -2   -7.30    6.60
  -8   3  -2   -1.10    6.00
  -8   3  -2    7.90    5.20
  -8   3  -2   -1.90    9.40
   8  -3   2    1.90    7.90
   8  -3   2    0.50    7.30
   8  -3   2   12.00    7.20
   8  -3   2    9.30   10.70
   8  -3   2    8.80    8.00
  -9   3  -2   18.80    9.50
  -9   3  -2   -0.30    7.50
   9  -3   2    4.50    7.60
  10  -3   2   -5.70    9.40
  11   2  -2   15.60    9.10
  10   2  -2   14.60   13.70
  10   2  -2   18.90    8.20
 -10  -2   2   26.50   11.90
   9   2  -2   19.70    9.10
   9   2  -2   19.00   10.00
   9   2  -2   12.60   10.00
   9   2  -2   -1.60    4.90
  -9  -2   2   -3.20    9.20
  -9  -2   2   16.20    9.20
  -9  -2   2   12.60    6.10
  -9  -2   2   -3.60    7.70
  -9  -2   2   14.60    7.90
  -9  -2   2   -1.90    7.80
   8   2  -2   37.60    7.70
   8   2  -2   33.10    6.90
   8   2  -2   38.10    7.90
  -8  -2   2   33.10    5.80
  -8  -2   2   25.10    6.60
  -8  -2   2   26.30    6.40
  -8  -2   2   18.60    6.10
  -8  -2   2   30.40    6.50
  -8  -2   2   25.60    7.00
   7   2  -2  102.69    8.60
   7   2  -2   94.49    8.00
   7   2  -2   94.79    8.20
   7   2  -2   96.89    8.20
  -7  -2   2   90.09    7.20
  -7  -2   2  102.89    7.80
  -7  -2   2  101.39    7.90
  -7  -2   2  101.59    8.30
  -7  -2   2   89.69    9.00
  -7  -2   2  105.99    8.60
   6   2  -2   43.70    6.00
   6   2  -2   31.80    4.90
   6   2  -2   35.70    5.20
   6   2  -2   39.10    5.20
   6   2  -2   40.00    5.20
  -6  -2   2   30.90    4.10
  -6  -2   2   21.00    4.80
  -6  -2   2   42.50    5.90
  -6  -2   2   35.10    4.70
  -6  -2   2   38.30    5.00
  -6  -2   2   38.80    5.10
   5   2  -2  290.67   10.70
   5   2  -2  303.77    9.90
   5   2  -2  309.07    9.90
   5   2  -2  297.47    9.70
   5   2  -2  300.47    9.90
   5   2  -2  307.37   10.20
  -5  -2   2  303.17    9.70
  -5  -2   2  305.77    9.70
  -5  -2   2  278.97    9.90
  -5  -2   2  299.47    9.40
  -5  -2   2  306.77    9.80
  -5  -2   2  298.17    9.70
   4   2  -2 9583.14  176.28
   4   2  -2 9732.33  176.28
   4   2  -2 9833.92  177.18
   4   2  -2 9688.13  175.98
   4   2  -2 9624.14  176.08
   4   2  -2 9999.00  176.08
  -4  -2   2 9644.83  175.98
  -4  -2   2 9723.43  176.18
  -4  -2   2 9824.92  175.78
  -4  -2   2 9894.31  176.58
  -4  -2   2 9696.13  175.98
  -4  -2   2 9551.14  175.98
   3   2  -2  580.84   13.70
   3   2  -2  596.54   13.70
   3   2  -2  595.84   13.40
   3   2  -2  593.54   13.60
   3   2  -2  608.24   13.70
   3   2  -2  603.34   14.20
  -3  -2   2  608.44   13.60
  -3  -2   2  646.74   13.80
  -3  -2   2  595.64   13.70
  -3  -2   2  592.94   14.00
  -3  -2   2  597.44   13.30
  -3  -2   2  592.84   13.60
   2   2  -2  396.86    8.90
   2   2  -2  396.06    9.30
   2   2  -2  402.16    9.30
   2   2  -2  396.66    9.20
   2   2  -2  402.26    9.70
  -2  -2   2  395.26    9.20
  -2  -2   2  401.36    9.30
  -2  -2   2  393.96    9.30
  -2  -2   2  397.26    9.70
  -2  -2   2  403.16    8.90
  -2  -2   2  389.26    9.20
   1   2  -2  343.57    7.70
   1   2  -2  347.77    7.30
   1   2  -2  347.07    8.40
   1   2  -2  347.27    7.70
   1   2  -2  345.67    7.80
   1   2  -2  351.66    7.70
  -1  -2   2  347.37    7.80
  -1  -2   2  350.96    7.70
  -1  -2   2  347.67    8.50
  -1  -2   2  344.57    7.70
   0   2  -2   32.40    1.50
   0   2  -2   31.70    1.60
   0   2  -2   31.50    2.20
   0   2  -2   32.10    1.50
   0   2  -2   29.40    1.60
   0  -2   2   34.60    1.60
   0  -2   2   33.10    2.20
   0  -2   2   31.20    1.40
   0  -2   2   32.60    1.60
   0  -2   2   35.20    1.80
  -1   2  -2 3553.04   63.19
   1  -2   2 3406.86   64.09
   1  -2   2 3310.47   63.29
  -2   2  -2 1888.01   35.50
  -2   2  -2 1769.62   34.20
  -2   2  -2 1808.12   33.90
   2  -2   2 1873.81   36.90
   2  -2   2 1854.31   35.70
   2  -2   2 1784.42   34.50
  -3   2  -2 1003.20   20.00
  -3   2  -2 1023.80   20.30
  -3   2  -2  982.20   20.00
  -3   2  -2 1037.80   20.80
  -3   2  -2 1021.70   20.30
   3  -2   2 1025.40   19.80
   3  -2   2 1045.80   21.30
   3  -2   2 1013.70   19.90
   3  -2   2 1058.69   20.30
   3  -2   2 1013.90   23.40
  -4   2  -2   41.60    3.30
  -4   2  -2   32.70    2.90
  -4   2  -2   28.00    2.70
  -4   2  -2   36.00    3.10
  -4   2  -2   35.00    3.20
   4  -2   2   38.70    3.00
   4  -2   2   30.90    2.80
   4  -2   2   36.30    3.30
   4  -2   2   32.50    4.60
   4  -2   2   32.10    3.50
   4  -2   2   33.70    3.40
  -5   2  -2  152.08    6.40
  -5   2  -2  143.79    7.40
  -5   2  -2  153.28    6.20
  -5   2  -2  156.18    6.30
  -5   2  -2  153.58    5.80
   5  -2   2  150.08    8.60
   5  -2   2  155.98    5.90
   5  -2   2  155.98    6.00
   5  -2   2  150.58    6.40
   5  -2   2  154.28    7.30
   5  -2   2  149.39    6.80
  -6   2  -2   59.19    5.10
  -6   2  -2   59.59    4.90
  -6   2  -2   57.49    5.70
  -6   2  -2   54.69    5.30
  -6   2  -2   55.29    5.60
   6  -2   2   49.20    5.80
   6  -2   2   53.49    6.10
   6  -2   2   50.99    5.40
   6  -2   2   62.19    6.90
   6  -2   2   54.89    6.60
   6  -2   2   49.30    6.40
  -7   2  -2  122.69    8.40
  -7   2  -2  133.19    8.70
  -7   2  -2  152.18    7.90
  -7   2  -2  136.39    7.70
  -7   2  -2  141.29   10.50
  -7   2  -2  125.29    8.30
   7  -2   2  146.49    9.30
   7  -2   2  145.79    8.90
   7  -2   2  127.79    9.90
   7  -2   2  139.59    8.00
   7  -2   2  114.59    8.80
  -8   2  -2  316.07   12.30
  -8   2  -2  301.07   12.00
  -8   2  -2  307.07   13.00
  -8   2  -2  298.17   12.40
  -8   2  -2  289.37   12.60
  -8   2  -2  300.47   15.60
   8  -2   2  287.27   12.60
   8  -2   2  288.57   13.80
   8  -2   2  287.57   16.50
   8  -2   2  315.87   14.60
   8  -2   2  274.07   14.50
   8  -2   2  264.47   14.90
  -9   2  -2    7.90    7.80
  -9   2  -2    4.40    7.90
  -9   2  -2   12.00    6.40
   9  -2   2    5.10    7.10
  10  -2   2    2.40    8.00
  11   1  -2   -0.50    9.00
  10   1  -2    8.10    7.50
  10   1  -2   22.50   14.30
   9   1  -2    8.90   10.20
   9   1  -2    0.10    5.20
   9   1  -2    4.80    9.80
  -9  -1   2    3.80    8.10
  -9  -1   2    9.20    7.00
  -9  -1   2   11.30    9.10
  -9  -1   2    0.70    8.90
  -9  -1   2   12.30    8.20
   8   1  -2   58.29    8.60
   8   1  -2   64.39    9.90
   8   1  -2   48.60    8.20
   8   1  -2   46.10    7.90
   8   1  -2   63.79    9.10
   8   1  -2   46.10    7.70
  -8  -1   2   45.60    7.70
  -8  -1   2   59.09    8.60
  -8  -1   2   49.10    8.10
  -8  -1   2   53.29    8.20
  -8  -1   2   54.59    7.60
  -8  -1   2   67.89    8.50
   7   1  -2   21.90    6.10
   7   1  -2   34.30    5.80
   7   1  -2   31.80    6.20
  -7  -1   2   27.30    5.90
  -7  -1   2   24.40    4.70
  -7  -1   2   17.80    5.50
  -7  -1   2   14.70    5.20
  -7  -1   2   29.90    5.40
  -7  -1   2   27.90    6.10
   6   1  -2   10.00    3.80
   6   1  -2    4.90    3.70
  -6  -1   2    2.30    3.10
  -6  -1   2    6.50    3.70
  -6  -1   2    1.10    3.90
  -6  -1   2    1.30    3.40
  -6  -1   2    1.00    3.40
  -6  -1   2    3.20    3.30
   5   1  -2    7.40    3.10
   5   1  -2   12.70    3.20
   5   1  -2   14.90    3.20
   5   1  -2   11.40    3.10
   5   1  -2   22.10    3.70
  -5  -1   2   11.00    2.90
  -5  -1   2   11.90    2.80
  -5  -1   2   10.40    3.20
  -5  -1   2   14.90    3.00
  -5  -1   2   10.90    3.60
  -5  -1   2   16.30    3.40
   4   1  -2   37.10    4.30
   4   1  -2   40.40    3.90
   4   1  -2   43.50    3.80
   4   1  -2   29.80    3.80
   4   1  -2   35.60    3.60
  -4  -1   2   37.20    3.50
  -4  -1   2   28.40    4.00
  -4  -1   2   35.20    3.70
  -4  -1   2   41.50    3.80
  -4  -1   2   41.10    3.70
  -4  -1   2   38.70    3.70
   3   1  -2 1089.29   22.90
   3   1  -2 1085.99   22.40
   3   1  -2 1112.29   22.80
   3   1  -2 1110.79   22.60
   3   1  -2 1103.49   22.60
   3   1  -2 1093.99   23.50
  -3  -1   2 1116.19   22.50
  -3  -1   2 1097.59   22.60
  -3  -1   2 1118.39   22.60
  -3  -1   2 1104.29   22.60
  -3  -1   2 1110.79   23.20
   2   1  -2  164.08    5.00
   2   1  -2  171.58    5.10
   2   1  -2  178.68    5.60
   2   1  -2  175.18    5.10
   2   1  -2  166.58    5.10
  -2  -1   2  164.08    5.00
  -2  -1   2  172.78    5.10
  -2  -1   2  165.28    5.00
  -2  -1   2  176.58    5.40
  -2  -1   2  169.08    5.10
  -2  -1   2  172.58    5.10
   1   1  -2 1744.13   33.00
   1   1  -2 1747.23   32.90
   1   1  -2 1761.52   32.90
   1   1  -2 1792.42   32.90
   1   1  -2 1807.22   33.50
   1   1  -2 1806.02   33.00
  -1  -1   2 1791.12   33.00
  -1  -1   2 1767.32   33.00
  -1  -1   2 1788.52   33.00
  -1  -1   2 1786.02   32.90
  -1  -1   2 1781.52   33.40
   0   1  -2  443.56    8.80
   0   1  -2  444.16    8.70
   0   1  -2  434.96    8.70
   0   1  -2  483.45    9.70
   0   1  -2  450.05    9.50
   0   1  -2  443.06    8.70
   0  -1   2  443.26    8.70
   0  -1   2  490.15    9.00
   0  -1   2  455.65    9.80
   0  -1   2  444.66    8.70
   0  -1   2  438.96    8.70
   0  -1   2  449.36    9.50
  -1   1  -2   18.80    1.40
  -1   1  -2   21.90    1.80
   1  -1   2   16.60    1.60
   1  -1   2   17.00    1.60
   1  -1   2   19.50    2.10
  -2   1  -2  164.88    5.30
  -2   1  -2  156.18    4.60
   2  -1   2  159.78    4.80
   2  -1   2  160.18    4.90
   2  -1   2  176.98    5.90
  -3   1  -2   10.30    2.50
  -3   1  -2   12.00    1.50
  -3   1  -2    9.20    1.40
  -3   1  -2   10.20    1.40
  -3   1  -2   10.10    1.70
  -3   1  -2   10.50    1.40
   3  -1   2   11.10    1.40
   3  -1   2    9.00    1.80
   3  -1   2   10.80    1.60
   3  -1   2   11.20    1.50
   3  -1   2   13.70    2.90
   3  -1   2   14.00    2.40
  -4   1  -2  237.18    6.50
  -4   1  -2  243.38    7.40
  -4   1  -2  242.68    6.70
  -4   1  -2  244.38    6.70
  -4   1  -2  247.98    6.70
   4  -1   2  240.38    6.40
   4  -1   2  240.28    9.00
   4  -1   2  239.58    6.50
   4  -1   2  237.88    6.90
   4  -1   2  242.68    6.80
   4  -1   2  245.78    7.80
  -5   1  -2   80.69    4.40
  -5   1  -2   82.49    4.70
  -5   1  -2   79.09    4.20
  -5   1  -2   83.49    4.50
  -5   1  -2   83.59    4.30
   5  -1   2   76.59    6.10
   5  -1   2   76.19    4.80
   5  -1   2   78.79    4.40
   5  -1   2   81.99    4.40
   5  -1   2   82.39    4.60
   5  -1   2   84.09    5.40
  -6   1  -2   17.30    3.60
  -6   1  -2   24.80    3.90
  -6   1  -2   21.10    3.40
  -6   1  -2   20.60    3.70
  -6   1  -2   21.40    4.60
  -6   1  -2   21.00    3.50
   6  -1   2   21.80    3.70
   6  -1   2   22.60    5.20
   6  -1   2   17.30    3.40
   6  -1   2   27.20    4.20
   6  -1   2   25.70    3.80
   6  -1   2   16.80    4.40
  -7   1  -2   -1.30    4.80
  -7   1  -2   -0.70    3.40
  -7   1  -2   -0.20    3.80
  -7   1  -2    3.00    3.60
  -7   1  -2   -1.20    4.30
   7  -1   2   -0.60    4.10
   7  -1   2   -1.10    4.10
   7  -1   2    1.30    4.60
  -8   1  -2  175.98    9.20
  -8   1  -2  160.88    9.90
  -8   1  -2  172.58   11.60
  -8   1  -2  161.08    9.70
  -8   1  -2  175.48    9.40
  -8   1  -2  170.48    9.60
   8  -1   2  151.88   13.10
   8  -1   2  163.88    9.80
   8  -1   2  165.98   11.70
   8  -1   2  181.88   10.40
   8  -1   2  165.88   11.50
   8  -1   2  162.08   10.80
  -9   1  -2    8.60    6.40
  -9   1  -2   -4.20    6.30
  -9   1  -2   -3.20    5.60
  -9   1  -2   -1.80    8.20
  -9   1  -2    4.70    7.20
  -9   1  -2   -6.80    6.80
   9  -1   2   -0.40   12.30
   9  -1   2   -7.80    7.10
   9  -1   2   -9.00    8.80
  10  -1   2   -0.90    6.10
  11  -1   2    6.30    9.80
  10   0  -2    1.60    7.70
  10   0  -2  -31.10   22.30
   9   0  -2   15.30   10.90
   9   0  -2    4.30   11.30
   9   0  -2    1.50    7.10
  -9   0   2    9.20   10.30
  -9   0   2  -15.50    8.70
  -9   0   2    8.70    8.70
  -9   0   2   -2.20    8.60
  -9   0   2    2.10    7.70
   8   0  -2    6.80    7.50
   8   0  -2    3.80    8.70
   8   0  -2   22.90    7.30
   8   0  -2   19.10    7.40
   8   0  -2   22.40    7.30
   8   0  -2   16.10    7.30
  -8   0   2   19.50    5.60
  -8   0   2   39.60    7.50
  -8   0   2   13.50    6.50
  -8   0   2   14.50    7.70
  -8   0   2   23.90    7.40
  -8   0   2   21.60    6.70
   7   0  -2   54.69    7.60
   7   0  -2   52.49    7.50
   7   0  -2   56.79    7.70
   7   0  -2   45.20    6.60
   7   0  -2   59.29    7.80
  -7   0   2   44.60    6.50
  -7   0   2   60.49    7.10
  -7   0   2   48.10    6.30
  -7   0   2   48.50    7.10
  -7   0   2   49.60    7.20
  -7   0   2   43.80    6.70
   6   0  -2  142.19    8.10
   6   0  -2  154.88    8.50
   6   0  -2  152.78    8.20
   6   0  -2  148.79    8.60
   6   0  -2  164.68    9.30
  -6   0   2  146.89    8.40
  -6   0   2  140.59    8.40
  -6   0   2  140.69    7.60
  -6   0   2  153.38    9.20
  -6   0   2  150.58    7.90
  -6   0   2  144.99    8.00
   5   0  -2  107.29    7.20
   5   0  -2  116.69    6.30
   5   0  -2  110.19    6.50
   5   0  -2  115.49    7.10
   5   0  -2  112.49    7.50
  -5   0   2  108.09    5.80
  -5   0   2  119.79    6.20
  -5   0   2  108.29    6.30
  -5   0   2  107.89    6.30
  -5   0   2  115.19    7.10
  -5   0   2  109.99    6.30
   4   0  -2   16.70    2.90
   4   0  -2   19.50    3.00
   4   0  -2   18.20    2.90
   4   0  -2   19.80    3.20
   4   0  -2   16.20    3.10
  -4   0   2   21.70    3.40
  -4   0   2   18.50    2.70
  -4   0   2   21.00    3.80
  -4   0   2   20.80    2.90
  -4   0   2   19.90    3.00
  -4   0   2   17.00    2.80
   3   0  -2  700.23   15.60
   3   0  -2  683.83   16.00
   3   0  -2  697.53   15.50
   3   0  -2  722.43   15.70
   3   0  -2  705.83   15.90
  -3   0   2  692.23   15.70
  -3   0   2  705.53   15.70
  -3   0   2  708.43   16.40
  -3   0   2  707.83   15.50
  -3   0   2  702.43   15.70
  -3   0   2  700.13   15.70
   2   0  -2  274.87    7.10
   2   0  -2  281.07    8.00
   2   0  -2  268.67    7.40
   2   0  -2  276.17    7.20
   2   0  -2  281.37    7.40
  -2   0   2  280.07    7.10
  -2   0   2  275.27    7.20
  -2   0   2  276.07    7.30
  -2   0   2  271.87    7.20
  -2   0   2  278.77    7.70
  -2   0   2  274.37    7.20
   1   0  -2   20.80    1.60
   1   0  -2   22.50    1.80
   1   0  -2   21.10    2.00
   1   0  -2   22.50    1.70
   1   0  -2   24.70    1.60
   1   0  -2   22.00    1.80
  -1   0   2   22.30    1.70
  -1   0   2   23.70    1.80
  -1   0   2   21.50    1.70
  -1   0   2   18.60    1.80
  -1   0   2   22.30    1.70
   0   0  -2  354.26    7.50
   0   0  -2  354.86    7.40
   0   0  -2  365.06    7.40
   0   0  -2  362.86    7.40
   0   0  -2  373.56    7.60
   0   0  -2  350.26    7.30
   0   0   2  350.86    7.30
   0   0   2  304.47    7.70
   0   0   2  359.36    7.40
   0   0   2  348.57    7.40
   0   0   2  363.96    7.60
   1   0   2 4966.20   89.29
  -2   0  -2  121.79    3.20
  -2   0  -2  113.69    3.50
  -2   0  -2  125.99    3.20
  -2   0  -2  123.79    3.10
  -2   0  -2  136.99    4.40
  -2   0  -2  128.09    4.10
   2   0   2  137.79    4.00
   2   0   2  127.49    3.20
   2   0   2  135.79    4.50
   2   0   2  129.09    4.10
   2   0   2  127.89    3.10
  -3   0  -2  865.61   18.00
  -3   0  -2  857.81   16.80
  -3   0  -2  824.02   16.80
  -3   0  -2  856.11   16.80
  -3   0  -2  829.82   16.70
   3   0   2  904.41   18.90
   3   0   2  852.21   16.80
   3   0   2  892.91   17.90
   3   0   2  860.41   18.20
   3   0   2  837.32   16.80
   3   0   2  868.01   16.80
  -4   0  -2  369.06    9.70
  -4   0  -2  356.76    8.80
  -4   0  -2  364.06    8.70
  -4   0  -2  360.96    8.70
  -4   0  -2  372.86    8.80
   4   0   2  374.76   10.80
   4   0   2  359.26    8.80
   4   0   2  363.96   10.10
   4   0   2  361.56    8.70
   4   0   2  352.66    8.70
   4   0   2  365.46    8.90
   4   0   2  379.46    9.70
  -5   0  -2   11.90    2.30
  -5   0  -2   12.50    2.30
  -5   0  -2   14.80    2.50
  -5   0  -2   16.10    3.00
  -5   0  -2   15.50    2.50
  -5   0  -2   10.90    2.40
   5   0   2   10.90    2.30
   5   0   2   13.20    2.70
   5   0   2    7.40    3.40
   5   0   2   10.80    2.60
   5   0   2   11.40    3.00
   5   0   2   13.40    3.10
  -6   0  -2   24.00    3.40
  -6   0  -2   18.40    3.20
  -6   0  -2   25.10    4.00
  -6   0  -2   18.90    3.70
  -6   0  -2   25.40    3.60
  -6   0  -2   22.40    3.30
   6   0   2   22.30    3.50
   6   0   2   22.00    4.70
   6   0   2   21.00    4.70
   6   0   2   24.70    6.00
  -7   0  -2   -1.80    3.10
  -7   0  -2    3.40    3.30
  -7   0  -2   -6.50    3.90
  -7   0  -2   -0.50    3.10
  -7   0  -2   -6.60    3.50
  -7   0  -2   -0.20    4.90
   7   0   2   -1.10    3.80
   7   0   2    4.20    3.80
   7   0   2    2.00    4.00
   7   0   2    3.20    3.90
  -8   0  -2   49.20    6.70
  -8   0  -2   47.70    6.30
  -8   0  -2   45.50    6.10
  -8   0  -2   41.90    5.80
  -8   0  -2   49.20    6.20
  -8   0  -2   51.39    6.40
   8   0   2   40.50    7.00
   8   0   2   49.10    6.90
   8   0   2   39.90    7.30
   8   0   2   50.89    7.30
   8   0   2   42.30    5.80
  -9   0  -2  113.19   11.50
  -9   0  -2  109.09   11.20
  -9   0  -2  100.79   10.20
  -9   0  -2  122.09   10.30
  -9   0  -2  125.59   10.50
  -9   0  -2  110.19   10.10
   9   0   2  119.89   12.50
   9   0   2   90.19   10.60
   9   0   2  110.39   13.20
   9   0   2   89.09   12.90
 -10   0  -2   66.59   11.40
 -10   0  -2   62.69    8.70
 -10   0  -2   68.29   10.10
  10   0   2   81.09   11.40
  11   0   2   -1.20    8.10
  10  -1  -2   -6.70    9.00
   9  -1  -2   10.40   12.40
   9  -1  -2    4.50    8.30
  -9   1   2   -4.50   10.10
  -9   1   2  -12.90   10.30
   8  -1  -2  110.89   14.30
   8  -1  -2   73.59    9.70
   8  -1  -2  126.99   15.80
  -8   1   2   99.79   12.00
  -8   1   2  106.39   14.80
  -8   1   2   99.99   10.10
  -8   1   2   92.59   12.20
  -8   1   2   80.09   11.30
  -8   1   2  105.09   11.00
   7  -1  -2   75.79    8.70
   7  -1  -2   67.79    9.00
   7  -1  -2   68.89    9.40
   7  -1  -2   75.49   10.60
   7  -1  -2   85.09    9.60
   7  -1  -2   60.89    8.40
  -7   1   2   64.89    7.10
  -7   1   2   74.69    9.00
  -7   1   2   78.39   10.20
  -7   1   2   67.39    7.50
  -7   1   2   80.29    9.20
  -7   1   2   66.99    8.60
   6  -1  -2    4.40    4.50
   6  -1  -2    3.50    4.20
   6  -1  -2    2.90    4.90
   6  -1  -2   10.40    7.20
   6  -1  -2    5.30    4.70
  -6   1   2    7.40    4.10
  -6   1   2   10.60    5.10
  -6   1   2   14.40    4.70
  -6   1   2    8.00    4.40
  -6   1   2   10.30    3.90
   5  -1  -2  137.29    7.40
   5  -1  -2  116.89   10.10
   5  -1  -2  129.09    7.60
   5  -1  -2  138.39    7.20
   5  -1  -2  122.89    7.30
   5  -1  -2  140.49    8.20
  -5   1   2  137.99    6.90
  -5   1   2  134.69    7.30
  -5   1   2  135.49    7.20
  -5   1   2  127.49    6.60
  -5   1   2  128.79    7.10
  -5   1   2  133.99    8.20
   4  -1  -2   40.70    4.20
   4  -1  -2   44.10    4.40
   4  -1  -2   37.10    4.40
   4  -1  -2   38.70    4.20
   4  -1  -2   36.90    4.00
   4  -1  -2   32.50    4.70
  -4   1   2   35.50    4.00
  -4   1   2   40.80    4.30
  -4   1   2   41.20    5.00
  -4   1   2   35.70    3.60
  -4   1   2   36.00    4.00
  -4   1   2   37.30    4.00
   3  -1  -2   69.69    3.90
   3  -1  -2   65.09    4.10
   3  -1  -2   73.49    4.20
   3  -1  -2   72.29    4.50
   3  -1  -2   69.19    3.90
   3  -1  -2   60.39    3.70
  -3   1   2   70.99    4.20
  -3   1   2   62.29    4.50
  -3   1   2   73.39    4.30
  -3   1   2   68.79    4.20
  -3   1   2   69.19    4.00
  -3   1   2   66.29    3.70
   2  -1  -2  436.06   10.60
   2  -1  -2  473.15   10.80
   2  -1  -2  440.26   10.30
   2  -1  -2  449.06   11.00
  -2   1   2  447.36   11.50
  -2   1   2  440.86   10.90
  -2   1   2  443.46   10.80
   1  -1  -2    0.90    1.10
   1  -1  -2    1.00    0.70
   1  -1  -2    5.10    1.40
   1  -1  -2    1.70    1.00
   1  -1  -2    2.80    1.20
   1  -1  -2    1.60    1.10
  -1   1   2    1.00    1.20
  -1   1   2    1.20    1.00
  -1   1   2    0.20    1.00
  -1   1   2    1.50    1.00
   0  -1  -2 1882.01   35.00
   0  -1  -2 1827.12   34.90
   0  -1  -2 1810.52   34.90
   0  -1  -2 2015.00   34.10
   0  -1  -2 1844.92   35.10
   0   1   2 1905.01   34.00
   0   1   2 1861.31   35.00
   0   1   2 1846.22   35.10
   0   1   2 1860.41   35.00
  -1  -1  -2  559.74   11.40
  -1  -1  -2  569.74   11.50
  -1  -1  -2  544.45   11.40
  -1  -1  -2  547.15   11.30
   1   1   2  559.54   11.40
   1   1   2  550.34   11.40
   1   1   2  573.04   11.40
  -2  -1  -2 2556.44   46.60
  -2  -1  -2 2502.45   46.60
  -2  -1  -2 2534.15   47.30
  -2  -1  -2 2519.65   46.60
  -2  -1  -2 2539.45   46.70
   2   1   2 2468.25   46.50
   2   1   2 2718.93   46.80
   2   1   2 2530.25   46.70
   2   1   2 2555.64   46.60
  -3  -1  -2 1550.04   30.30
  -3  -1  -2 1604.84   30.30
  -3  -1  -2 1580.74   29.70
  -3  -1  -2 1641.64   30.40
  -3  -1  -2 1606.74   31.30
  -3  -1  -2 1589.04   30.20
   3   1   2 1696.03   30.70
   3   1   2 1617.94   30.40
   3   1   2 1578.04   31.40
   3   1   2 1528.25   30.10
   3   1   2 1634.94   30.40
  -4  -1  -2  160.98    5.00
  -4  -1  -2  159.08    5.00
  -4  -1  -2  155.18    5.10
  -4  -1  -2  155.88    5.10
  -4  -1  -2  160.78    5.80
  -4  -1  -2  158.58    5.20
   4   1   2  163.38    5.40
   4   1   2  152.88    5.10
   4   1   2  152.08    5.10
   4   1   2  164.48    5.30
  -5  -1  -2  321.77    8.80
  -5  -1  -2  334.17    9.00
  -5  -1  -2  322.37    9.00
  -5  -1  -2  314.27    9.60
  -5  -1  -2  323.67    8.80
  -5  -1  -2  328.07    8.90
   5   1   2  323.57    9.20
   5   1   2  325.07    8.90
   5   1   2  324.57   10.10
   5   1   2  318.37    8.90
   5   1   2  331.07    9.00
  -6  -1  -2  143.39    6.80
  -6  -1  -2  144.99    6.30
  -6  -1  -2  143.89    6.20
  -6  -1  -2  134.99    6.10
  -6  -1  -2  134.19    6.00
  -6  -1  -2  142.19    6.30
   6   1   2  150.28    6.80
   6   1   2  148.59    6.40
   6   1   2  133.49    7.40
   6   1   2  142.99    6.40
   6   1   2  125.19    9.20
  -7  -1  -2   -4.00    3.20
  -7  -1  -2    1.80    3.30
  -7  -1  -2    4.50    3.40
  -7  -1  -2    2.80    2.80
  -7  -1  -2    3.20    3.00
  -7  -1  -2    4.50    3.30
   7   1   2   -2.30    3.40
   7   1   2    5.00    4.20
   7   1   2    6.40    3.80
   7   1   2    4.30    4.10
   7   1   2    2.60    4.20
  -8  -1  -2   51.99    6.00
  -8  -1  -2   56.29    6.60
  -8  -1  -2   47.10    5.70
  -8  -1  -2   43.80    6.30
  -8  -1  -2   31.70    5.70
  -8  -1  -2   59.29    7.60
   8   1   2   42.30    6.70
   8   1   2   47.60    6.60
   8   1   2   48.20    7.60
  -9  -1  -2    4.40    6.00
  -9  -1  -2    8.70    5.80
  -9  -1  -2   12.60    5.90
  -9  -1  -2   -1.80    6.70
  -9  -1  -2   -7.90    4.90
  -9  -1  -2    5.40    5.20
   9   1   2    2.40    5.00
   9   1   2   -2.20    7.10
   9   1   2    2.10    6.40
   9   1   2    2.50    7.40
   9   1   2   -6.60    7.30
 -10  -1  -2   34.00    8.80
 -10  -1  -2   55.89    9.10
 -10  -1  -2   52.29    9.40
 -10  -1  -2   45.20    9.60
 -10  -1  -2   54.49    9.30
  10   1   2   49.50   10.10
  10   1   2   67.99   11.90
  11   1   2    4.50    7.90
   9  -2  -2    8.40    8.80
   8  -2  -2    2.70    7.10
   8  -2  -2  -18.40    9.70
  -8   2   2    0.40    7.80
  -8   2   2    5.00    8.80
  -8   2   2    5.90    7.70
  -8   2   2    3.70    8.10
   7  -2  -2  117.99   10.90
   7  -2  -2  110.79   11.20
   7  -2  -2  121.69   12.60
   7  -2  -2  103.59   11.90
   7  -2  -2   87.09   10.50
   7  -2  -2  136.59   10.50
  -7   2   2  122.49   10.30
  -7   2   2  119.59   10.90
  -7   2   2  129.09   10.90
  -7   2   2   90.39   13.00
  -7   2   2  106.99    9.80
   6  -2  -2   59.59    7.60
   6  -2  -2   64.59    8.30
   6  -2  -2   80.59    7.70
   6  -2  -2   64.99    8.20
  -6   2   2   68.79    8.30
  -6   2   2   61.49    7.50
  -6   2   2   70.29    7.80
  -6   2   2   71.99    7.20
  -6   2   2   61.99    8.30
  -6   2   2   63.19    7.50
   5  -2  -2  612.14   17.60
   5  -2  -2  572.94   17.40
   5  -2  -2  597.24   16.40
   5  -2  -2  584.14   15.90
   5  -2  -2  588.54   17.00
  -5   2   2  593.54   17.00
  -5   2   2  575.04   17.80
  -5   2   2  622.54   16.50
  -5   2   2  575.14   15.60
  -5   2   2  596.64   16.10
  -5   2   2  613.24   16.90
   4  -2  -2  531.25   13.90
   4  -2  -2  523.05   13.80
   4  -2  -2  517.35   14.90
   4  -2  -2  521.15   14.60
   4  -2  -2  529.55   14.20
   4  -2  -2  508.75   14.80
  -4   2   2  512.15   13.40
  -4   2   2  510.55   14.30
  -4   2   2  524.25   14.20
  -4   2   2  510.75   15.70
  -4   2   2  518.95   13.90
  -4   2   2  553.54   14.80
   3  -2  -2   49.60    4.70
   3  -2  -2   49.80    4.10
   3  -2  -2   46.80    4.40
   3  -2  -2   51.39    3.80
   3  -2  -2   47.50    4.30
   3  -2  -2   50.69    4.00
  -3   2   2   52.09    4.20
  -3   2   2   54.39    4.30
   2  -2  -2  294.27    8.40
   2  -2  -2  283.07    8.70
   2  -2  -2  296.77    7.90
   2  -2  -2  304.87    8.50
   2  -2  -2  299.57    9.00
   2  -2  -2  313.87    8.70
  -2   2   2  303.97    8.80
  -2   2   2  306.37    8.80
  -2   2   2  305.77    8.70
  -2   2   2  304.37    8.80
   1  -2  -2 1706.43   33.80
   1  -2  -2 1810.02   32.90
   1  -2  -2 1716.13   32.60
   1  -2  -2 1704.33   33.60
   1  -2  -2 1714.63   33.40
   1  -2  -2 1728.23   33.40
  -1   2   2 1691.83   33.60
  -1   2   2 1694.23   33.60
  -1   2   2 1705.23   33.60
  -1   2   2 1693.03   33.40
   0  -2  -2 2536.55   47.60
   0  -2  -2 2505.75   47.80
   0  -2  -2 2694.63   46.30
   0  -2  -2 2472.65   47.50
   0  -2  -2 2507.85   47.50
   0   2   2 2521.15   47.60
   0   2   2 2571.04   47.60
   0   2   2 2550.84   47.80
   0   2   2 2480.75   47.60
  -1  -2  -2 2643.24   49.90
  -1  -2  -2 2624.34   49.90
  -1  -2  -2 2666.13   49.80
  -1  -2  -2 2647.64   49.80
   1   2   2 2725.03   49.90
   1   2   2 2723.83   49.90
   1   2   2 2745.43   50.09
   1   2   2 2693.73   49.90
  -2  -2  -2 3637.14   67.59
  -2  -2  -2 3688.73   67.59
  -2  -2  -2 3707.23   67.49
  -2  -2  -2 3677.13   67.59
  -2  -2  -2 3641.04   67.59
   2   2   2 3668.63   67.49
   2   2   2 3761.12   67.59
   2   2   2 3674.43   67.39
   2   2   2 3723.33   67.69
  -3  -2  -2  607.84   13.10
  -3  -2  -2  598.24   13.20
  -3  -2  -2  621.24   12.00
  -3  -2  -2  605.34   13.60
  -3  -2  -2  601.84   13.10
  -3  -2  -2  604.44   13.30
   3   2   2  606.14   13.40
   3   2   2  589.34   13.60
   3   2   2  615.74   12.00
   3   2   2  598.34   13.20
   3   2   2  598.94   13.10
   3   2   2  609.04   13.10
  -4  -2  -2  639.24   14.10
  -4  -2  -2  635.94   14.20
  -4  -2  -2  619.94   14.60
  -4  -2  -2  634.04   14.20
  -4  -2  -2  634.34   13.10
  -4  -2  -2  630.34   14.00
   4   2   2  666.43   13.90
   4   2   2  602.54   13.90
   4   2   2  624.84   14.00
   4   2   2  639.54   13.50
   4   2   2  631.14   14.20
   4   2   2  637.24   14.30
  -5  -2  -2  387.06   10.40
  -5  -2  -2  392.16   10.30
  -5  -2  -2  395.66    9.60
  -5  -2  -2  394.96   10.50
  -5  -2  -2  390.56   11.00
  -5  -2  -2  386.06   10.30
   5   2   2  390.46   10.20
   5   2   2  391.16   10.10
   5   2   2  388.96   11.40
   5   2   2  393.56   10.50
   5   2   2  396.56   10.40
   5   2   2  399.66   10.70
  -6  -2  -2  144.29    6.10
  -6  -2  -2  142.49    6.30
  -6  -2  -2  136.99    6.60
  -6  -2  -2  140.39    6.30
  -6  -2  -2  146.89    5.80
  -6  -2  -2  139.29    6.40
   6   2   2  147.69    6.30
   6   2   2  128.99    6.30
   6   2   2  138.39    6.10
   6   2   2  137.79    6.70
   6   2   2  144.19    7.70
   6   2   2  146.99    7.00
  -7  -2  -2  198.18    9.10
  -7  -2  -2  214.48    8.70
  -7  -2  -2  203.08    8.00
  -7  -2  -2  233.58    8.80
  -7  -2  -2  214.98    8.60
  -7  -2  -2  208.88    8.80
   7   2   2  223.88    9.10
   7   2   2  208.08    9.20
   7   2   2  205.88    8.80
   7   2   2  203.58    8.50
  -8  -2  -2    2.10    4.30
  -8  -2  -2   10.90    4.60
  -8  -2  -2    1.60    4.10
  -8  -2  -2    3.90    4.20
  -8  -2  -2    5.60    4.30
  -8  -2  -2    8.20    4.40
   8   2   2    8.20    4.50
   8   2   2    9.30    4.80
   8   2   2    5.30    4.60
   8   2   2    5.20    4.80
   8   2   2    1.00    4.80
  -9  -2  -2   -1.30    6.10
  -9  -2  -2    1.10    4.50
  -9  -2  -2    0.80    5.30
  -9  -2  -2    9.80    5.20
  -9  -2  -2    7.20    5.50
  -9  -2  -2    2.80    5.70
   9   2   2    1.20    6.60
   9   2   2   -0.30    6.40
   9   2   2    8.80    6.40
   9   2   2   11.70    7.30
 -10  -2  -2   33.70    7.70
 -10  -2  -2   27.00    8.40
 -10  -2  -2   37.70    8.70
 -10  -2  -2   41.60    8.00
 -10  -2  -2   41.10    8.70
 -10  -2  -2   44.00    8.40
  10   2   2   35.30   11.60
  10   2   2   37.40    9.20
  11   2   2   34.20    8.10
  12   2   2  -10.40    7.50
   9  -3  -2   -2.20   10.00
   8  -3  -2    0.30    7.80
   8  -3  -2   14.70   11.70
  -8   3   2    2.20   10.40
  -8   3   2    1.50    9.60
  -8   3   2   -6.10    9.90
   7  -3  -2    4.80    8.50
   7  -3  -2    6.20    8.40
   7  -3  -2    1.10    8.20
   7  -3  -2    6.40    7.40
  -7   3   2    3.00    6.40
  -7   3   2    4.20    7.30
  -7   3   2    6.90    6.70
  -7   3   2    7.60    7.30
   6  -3  -2   92.09    8.70
   6  -3  -2   90.09    9.00
   6  -3  -2  100.39   10.90
   6  -3  -2   91.49   10.20
   6  -3  -2   79.09    9.20
   6  -3  -2  107.19    9.20
  -6   3   2   67.39    8.70
  -6   3   2   87.39    9.40
  -6   3   2   92.29   11.50
  -6   3   2   93.09    8.80
  -6   3   2  109.19   11.10
   5  -3  -2  589.94   17.40
   5  -3  -2  593.04   16.40
   5  -3  -2  545.45   17.60
   5  -3  -2  548.95   17.90
   5  -3  -2  565.84   16.00
  -5   3   2  577.14   16.70
  -5   3   2  561.74   17.50
  -5   3   2  582.14   18.70
  -5   3   2  493.15   18.40
  -5   3   2  575.14   16.40
   4  -3  -2   15.30    4.70
   4  -3  -2   15.60    4.30
   4  -3  -2   18.90    3.90
   4  -3  -2   14.30    3.50
   4  -3  -2   16.50    4.20
   4  -3  -2   12.30    3.80
  -4   3   2   10.60    3.90
  -4   3   2   12.60    3.80
  -4   3   2   10.10    3.40
  -4   3   2   15.30    3.90
   3  -3  -2   27.80    4.10
   3  -3  -2   26.10    4.20
   3  -3  -2   18.90    4.10
   3  -3  -2   22.90    3.60
   3  -3  -2   22.80    3.20
   3  -3  -2   24.30    4.20
  -3   3   2   16.80    3.50
  -3   3   2   21.40    3.60
  -3   3   2   26.40    4.10
  -3   3   2   20.90    3.50
   2  -3  -2  221.98    8.00
   2  -3  -2  223.48    7.60
   2  -3  -2  235.08    7.60
   2  -3  -2  223.08    8.00
   2  -3  -2  225.28    8.30
   2  -3  -2  229.08    7.00
  -2   3   2  241.38    8.20
  -2   3   2  213.98    7.90
  -2   3   2  226.48    7.80
  -2   3   2  228.58    8.00
   1  -3  -2    1.90    1.50
   1  -3  -2    1.40    1.60
   1  -3  -2    2.60    2.30
   1  -3  -2   -0.40    1.80
   1  -3  -2    2.40    2.10
   1  -3  -2    1.30    1.30
  -1   3   2    0.90    1.70
  -1   3   2    0.60    1.80
  -1   3   2    0.50    1.80
  -1   3   2    1.70    1.50
   0  -3  -2   12.60    2.30
   0  -3  -2   17.90    2.40
   0  -3  -2   12.50    2.10
   0  -3  -2   13.10    2.30
   0  -3  -2   19.30    2.70
   0   3   2   15.60    2.40
   0   3   2   19.80    2.80
   0   3   2   15.10    2.40
   0   3   2   14.00    2.30
  -1  -3  -2 4445.56   82.59
  -1  -3  -2 4496.15   82.69
  -1  -3  -2 4525.75   82.49
  -1  -3  -2 4425.86   82.39
   1   3   2 4404.26   82.49
   1   3   2 4539.05   82.49
   1   3   2 4502.85   82.49
   1   3   2 4500.55   82.69
  -2  -3  -2 1818.32   35.30
  -2  -3  -2 1843.62   35.40
  -2  -3  -2 1818.52   35.40
  -2  -3  -2 1772.12   35.40
   2   3   2 1837.22   35.60
   2   3   2 1815.82   35.30
   2   3   2 1820.92   35.30
   2   3   2 1836.52   35.40
  -3  -3  -2  481.15   11.50
  -3  -3  -2  488.35   11.70
  -3  -3  -2  482.25   11.60
  -3  -3  -2  491.95   11.80
  -3  -3  -2  486.55   11.50
   3   3   2  488.05   11.50
   3   3   2  478.45   11.80
   3   3   2  482.85   10.30
   3   3   2  486.55   11.10
   3   3   2  473.05   11.50
   3   3   2  480.05   11.70
  -4  -3  -2   91.19    4.50
  -4  -3  -2   96.59    3.60
  -4  -3  -2   89.79    4.60
  -4  -3  -2   82.79    4.30
  -4  -3  -2   94.29    4.50
  -4  -3  -2   88.99    4.40
   4   3   2   86.69    4.60
   4   3   2   99.69    4.50
   4   3   2   84.29    4.70
   4   3   2   87.19    4.50
   4   3   2   90.79    3.50
   4   3   2   95.59    3.90
   4   3   2   91.79    4.40
  -5  -3  -2   -1.50    2.00
  -5  -3  -2    1.10    2.10
  -5  -3  -2    1.90    2.10
  -5  -3  -2   -1.70    1.80
  -5  -3  -2    1.70    1.50
  -5  -3  -2    1.70    2.20
   5   3   2    3.40    2.40
   5   3   2    2.10    2.50
   5   3   2    0.50    1.70
   5   3   2    1.80    2.00
   5   3   2    1.90    2.00
   5   3   2   -2.70    1.90
   5   3   2    3.20    2.10
  -6  -3  -2  263.37    9.10
  -6  -3  -2  262.67    8.80
  -6  -3  -2  274.77    8.00
  -6  -3  -2  275.67    8.90
  -6  -3  -2  279.67    9.20
  -6  -3  -2  267.07    9.30
   6   3   2  261.37    8.10
   6   3   2  261.27    8.80
   6   3   2  256.07   10.00
   6   3   2  267.47    9.60
   6   3   2  271.37    9.40
   6   3   2  256.67    9.00
  -7  -3  -2  106.19    6.90
  -7  -3  -2  113.99    5.90
  -7  -3  -2  107.59    7.00
  -7  -3  -2   95.69    7.00
  -7  -3  -2  107.29    6.40
  -7  -3  -2  110.49    6.80
   7   3   2  113.09    8.80
   7   3   2  110.69    6.10
   7   3   2  125.19    7.10
   7   3   2  108.29    8.00
   7   3   2  111.49    7.40
   7   3   2  108.79    6.60
  -8  -3  -2   81.09    7.50
  -8  -3  -2  110.09    8.00
  -8  -3  -2  104.49    8.20
  -8  -3  -2  106.69    8.20
  -8  -3  -2  101.89    8.40
  -8  -3  -2  103.89    7.10
   8   3   2   93.59    8.40
   8   3   2  121.09   10.10
   8   3   2  106.19    8.60
   8   3   2   94.59    7.40
  -9  -3  -2   39.90    6.70
  -9  -3  -2   45.50    7.60
  -9  -3  -2   40.20    6.70
  -9  -3  -2   36.40    6.30
  -9  -3  -2   24.70    6.00
  -9  -3  -2   28.70    6.10
   9   3   2   47.20    7.70
   9   3   2   27.90    7.50
   9   3   2   30.90    7.80
   9   3   2   35.50    7.30
   9   3   2   27.10    6.90
   9   3   2   39.60    6.70
 -10  -3  -2   24.50    7.60
 -10  -3  -2   23.80    8.20
 -10  -3  -2   24.50    7.30
 -10  -3  -2   22.90    6.80
 -10  -3  -2   30.20    8.10
 -10  -3  -2   24.30    8.30
  10   3   2   34.70    8.30
  10   3   2   36.10    9.30
  10   3   2   12.80    6.10
 -11  -3  -2  -27.90   11.90
  11   3   2    5.40    5.40
  12   3   2    0.50    7.60
   8  -4  -2   23.20   10.60
   7  -4  -2   14.80   10.50
   7  -4  -2   -1.00    7.20
  -7   4   2    8.30    8.60
  -7   4   2    3.50    8.20
  -7   4   2    5.80    8.70
   6  -4  -2   -0.80    7.30
   6  -4  -2   -2.50    5.90
   6  -4  -2   -8.90    6.50
   6  -4  -2   -8.00    6.60
   6  -4  -2   13.90    6.40
   6  -4  -2   -1.20    6.90
  -6   4   2   -1.90    6.60
  -6   4   2   -7.40    9.50
  -6   4   2    6.40    6.50
  -6   4   2   -8.30    5.50
  -6   4   2   -2.80    6.20
   5  -4  -2  431.06   15.40
   5  -4  -2  414.36   14.10
   5  -4  -2  395.76   15.60
   5  -4  -2  402.66   15.60
   5  -4  -2  413.66   13.80
   5  -4  -2  410.06   13.90
  -5   4   2  399.56   14.80
  -5   4   2  421.66   14.20
  -5   4   2  416.16   15.30
  -5   4   2  412.26   14.80
   4  -4  -2 1178.78   28.70
   4  -4  -2 1197.48   26.80
   4  -4  -2 1186.88   27.00
   4  -4  -2 1198.78   28.20
   4  -4  -2 1184.58   28.90
  -4   4   2 1171.48   28.20
  -4   4   2 1157.18   28.30
   3  -4  -2  372.46   10.80
   3  -4  -2  378.16   11.80
   3  -4  -2  375.76   12.90
   3  -4  -2  380.86   12.40
   3  -4  -2  369.36   11.70
   3  -4  -2  368.66   12.70
  -3   4   2  367.06   12.00
  -3   4   2  379.46   11.90
  -3   4   2  371.46   12.40
  -3   4   2  361.06   12.10
   2  -4  -2 1212.08   24.80
   2  -4  -2 1206.08   26.90
   2  -4  -2 1231.28   26.30
   2  -4  -2 1197.48   27.00
   2  -4  -2 1207.48   26.30
   2  -4  -2 1208.18   26.80
  -2   4   2 1201.58   26.50
  -2   4   2 1226.68   27.10
  -2   4   2 1206.08   26.80
  -2   4   2 1195.88   26.70
   1  -4  -2   26.70    3.80
   1  -4  -2   23.10    2.70
   1  -4  -2   24.20    3.90
   1  -4  -2   23.40    3.40
   1  -4  -2   25.50    3.60
   1  -4  -2   27.20    3.80
  -1   4   2   27.40    3.80
  -1   4   2   23.60    3.50
  -1   4   2   25.60    3.50
  -1   4   2   27.10    3.80
   0  -4  -2 2048.10   40.50
   0  -4  -2 2075.09   39.60
   0  -4  -2 2071.19   41.00
   0  -4  -2 2063.39   40.70
   0  -4  -2 2020.80   40.60
   0   4   2 2057.49   40.90
   0   4   2 2012.70   40.70
   0   4   2 2070.49   40.70
   0   4   2 2005.50   40.60
  -1  -4  -2 2166.88   42.70
  -1  -4  -2 2190.98   42.80
  -1  -4  -2 2143.09   42.60
  -1  -4  -2 2207.58   42.60
   1   4   2 2158.98   42.60
   1   4   2 2159.68   42.70
   1   4   2 2178.38   42.60
   1   4   2 2205.38   42.90
  -2  -4  -2 2693.83   51.59
  -2  -4  -2 2702.73   51.69
  -2  -4  -2 2674.13   51.39
  -2  -4  -2 2644.84   51.49
   2   4   2 2724.63   51.89
   2   4   2 2712.53   51.59
   2   4   2 2647.24   51.39
   2   4   2 2666.53   51.39
  -3  -4  -2 1181.78   25.30
  -3  -4  -2 1216.28   25.40
  -3  -4  -2 1201.38   24.50
  -3  -4  -2 1214.18   25.50
  -3  -4  -2 1201.48   25.20
   3   4   2 1191.38   24.00
   3   4   2 1194.58   25.60
   3   4   2 1202.48   25.10
   3   4   2 1225.18   25.40
   3   4   2 1193.68   25.10
  -4  -4  -2  723.53   17.00
  -4  -4  -2  734.93   17.10
  -4  -4  -2  752.82   17.50
  -4  -4  -2  759.22   17.50
  -4  -4  -2  715.43   16.70
  -4  -4  -2  740.53   16.10
   4   4   2  750.22   15.50
   4   4   2  746.33   17.40
   4   4   2  734.13   17.50
   4   4   2  735.83   17.10
   4   4   2  748.23   15.70
   4   4   2  742.93   17.10
  -5  -4  -2  439.26   12.30
  -5  -4  -2  427.36   12.00
  -5  -4  -2  437.36   11.90
  -5  -4  -2  444.66   12.40
  -5  -4  -2  431.96   10.80
  -5  -4  -2  430.96   11.90
   5   4   2  423.26   11.70
   5   4   2  440.36   10.50
   5   4   2  448.86   12.40
   5   4   2  440.56   12.60
   5   4   2  432.56   12.40
   5   4   2  442.26   12.00
   5   4   2  443.96   10.80
  -6  -4  -2   11.00    3.10
  -6  -4  -2   14.00    3.30
  -6  -4  -2   11.40    2.50
  -6  -4  -2    6.90    2.90
  -6  -4  -2    9.50    3.10
  -6  -4  -2   12.90    3.70
   6   4   2   11.20    3.90
   6   4   2   11.40    3.30
   6   4   2    7.80    3.30
   6   4   2    9.30    2.70
   6   4   2   12.60    3.70
   6   4   2    9.30    2.90
  -7  -4  -2   83.29    6.40
  -7  -4  -2   88.49    5.60
  -7  -4  -2   85.29    6.40
  -7  -4  -2   75.39    7.00
  -7  -4  -2   78.49    6.60
  -7  -4  -2   93.29    6.90
   7   4   2   87.79    5.30
   7   4   2   85.09    6.20
   7   4   2   83.09    7.20
   7   4   2   81.89    6.80
   7   4   2   96.79    6.50
   7   4   2   90.29    7.70
  -8  -4  -2    2.60    4.20
  -8  -4  -2    0.70    3.60
  -8  -4  -2   -1.80    5.00
  -8  -4  -2   -0.40    5.20
  -8  -4  -2   -0.70    4.50
  -8  -4  -2    3.90    3.80
   8   4   2   -0.80    4.50
   8   4   2    5.60    5.00
   8   4   2    1.70    4.50
   8   4   2    0.40    5.20
  -9  -4  -2  161.58   10.20
  -9  -4  -2  157.28   10.00
  -9  -4  -2  168.48   11.20
  -9  -4  -2  152.08   10.10
  -9  -4  -2  159.98   11.50
  -9  -4  -2  154.68   10.60
   9   4   2  162.38   11.10
   9   4   2  182.38   12.30
   9   4   2  165.68   12.60
   9   4   2  159.58   11.40
   9   4   2  184.38   11.80
 -10  -4  -2   -8.20    8.20
 -10  -4  -2   19.20    8.70
 -10  -4  -2   20.40    7.30
 -10  -4  -2    8.90    7.00
 -10  -4  -2   13.60    7.70
 -10  -4  -2    5.40    6.80
  10   4   2    0.90   10.60
  10   4   2   18.50    8.60
 -11  -4  -2   13.60   12.30
 -11  -4  -2    4.90   15.60
  11   4   2    4.00    5.30
  11   4   2   28.40   11.70
  12   4   2    9.90    6.40
   8  -5  -2    9.00    9.60
   7  -5  -2   11.50    9.10
   6  -5  -2   16.80    7.40
   6  -5  -2   25.50    9.20
   6  -5  -2   37.20    9.60
   6  -5  -2    8.20   13.70
  -6   5   2   15.50    8.00
  -6   5   2   32.00    7.70
  -6   5   2   16.60    8.00
  -6   5   2   13.10    8.10
   5  -5  -2   -1.60    5.60
   5  -5  -2   -1.20    6.00
   5  -5  -2   11.10    7.10
   5  -5  -2   -3.00    6.20
   5  -5  -2   -4.50    5.90
  -5   5   2   -3.10    5.70
  -5   5   2    2.10    5.40
  -5   5   2    5.20    5.80
  -5   5   2   11.50    6.90
   4  -5  -2   17.00    4.60
   4  -5  -2   21.10    4.80
   4  -5  -2   19.90    5.40
   4  -5  -2   15.00    6.30
   4  -5  -2   19.00    6.00
   4  -5  -2   15.90    5.20
  -4   5   2   15.30    5.70
  -4   5   2   20.20    5.70
   3  -5  -2  310.27   12.70
   3  -5  -2  341.97   11.90
   3  -5  -2  316.57   12.30
   3  -5  -2  336.67   13.00
   3  -5  -2  345.87   10.80
  -3   5   2  340.87   12.40
  -3   5   2  342.27   12.00
  -3   5   2  328.07   12.70
  -3   5   2  317.77   12.40
   2  -5  -2  456.75   13.30
   2  -5  -2  449.46   14.10
   2  -5  -2  444.46   11.60
   2  -5  -2  431.36   13.60
   2  -5  -2  452.05   13.40
   2  -5  -2  454.45   14.30
  -2   5   2  462.85   14.00
  -2   5   2  467.05   13.70
  -2   5   2  455.45   13.80
  -2   5   2  446.36   14.00
   1  -5  -2   39.50    4.90
   1  -5  -2   41.20    4.90
   1  -5  -2   38.00    5.00
   1  -5  -2   38.90    4.90
   1  -5  -2   47.30    3.60
   1  -5  -2   44.70    5.30
  -1   5   2   60.29    5.10
  -1   5   2   47.80    5.00
  -1   5   2   53.39    5.00
  -1   5   2   50.49    5.30
   0  -5  -2 1461.95   31.40
   0  -5  -2 1494.75   31.30
   0  -5  -2 1473.95   31.70
   0  -5  -2 1475.45   31.30
   0   5   2 1481.25   31.70
   0   5   2 1470.25   31.40
   0   5   2 1471.55   31.50
   0   5   2 1504.05   31.70
  -1  -5  -2  187.28    7.60
  -1  -5  -2  179.28    7.30
  -1  -5  -2  190.18    7.50
  -1  -5  -2  194.28    7.50
   1   5   2  187.38    7.40
   1   5   2  180.78    7.30
   1   5   2  181.08    7.30
   1   5   2  191.08    7.70
  -2  -5  -2   28.00    3.90
  -2  -5  -2   22.70    3.50
  -2  -5  -2   28.20    3.70
  -2  -5  -2   25.80    3.50
   2   5   2   21.50    3.30
   2   5   2   25.20    3.70
   2   5   2   23.80    3.50
   2   5   2   24.00    3.70
  -3  -5  -2  578.64   14.90
  -3  -5  -2  608.74   15.10
  -3  -5  -2  599.64   14.90
  -3  -5  -2  573.64   13.50
  -3  -5  -2  565.44   15.00
   3   5   2  586.14   15.10
   3   5   2  588.04   14.80
   3   5   2  567.34   14.80
   3   5   2  576.84   13.90
   3   5   2  574.64   15.30
  -4  -5  -2  463.25   13.00
  -4  -5  -2  452.05   12.50
  -4  -5  -2  441.76   11.70
  -4  -5  -2  444.96   12.60
  -4  -5  -2  467.85   13.00
   4   5   2  462.85   13.00
   4   5   2  452.15   11.40
   4   5   2  446.26   12.50
   4   5   2  460.75   10.60
   4   5   2  456.55   12.60
   4   5   2  457.95   13.30
  -5  -5  -2  545.85   14.00
  -5  -5  -2  564.14   15.20
  -5  -5  -2  563.24   15.10
  -5  -5  -2  542.65   14.50
  -5  -5  -2  542.25   13.60
  -5  -5  -2  548.95   14.70
   5   5   2  537.25   14.60
   5   5   2  542.55   14.50
   5   5   2  561.24   12.50
   5   5   2  528.65   15.20
   5   5   2  564.84   15.20
   5   5   2  531.95   13.10
  -6  -5  -2    9.30    3.70
  -6  -5  -2   10.30    3.50
  -6  -5  -2    3.10    2.70
  -6  -5  -2    6.50    2.60
  -6  -5  -2    5.80    3.20
  -6  -5  -2    8.70    3.40
   6   5   2   -0.90    3.60
   6   5   2    6.00    4.00
   6   5   2   12.70    4.70
   6   5   2    8.10    3.00
   6   5   2    4.70    2.50
   6   5   2    8.90    3.30
   6   5   2    6.20    3.40
  -7  -5  -2   -3.10    4.10
  -7  -5  -2    1.10    3.70
  -7  -5  -2   -3.30    2.90
  -7  -5  -2    1.00    3.50
  -7  -5  -2   -0.80    2.90
  -7  -5  -2    5.30    4.30
   7   5   2    2.20    4.20
   7   5   2   -0.90    3.20
   7   5   2    3.00    3.00
   7   5   2   -2.70    4.10
   7   5   2    4.00    3.70
   7   5   2    0.60    3.70
  -8  -5  -2    0.10    4.20
  -8  -5  -2    2.00    4.40
  -8  -5  -2    8.80    4.90
  -8  -5  -2    2.20    4.10
  -8  -5  -2    2.00    5.30
   8   5   2    4.00    5.50
   8   5   2    8.20    5.30
   8   5   2   -2.30    4.50
   8   5   2    5.70    5.20
   8   5   2    5.60    4.60
  -9  -5  -2   32.20    5.80
  -9  -5  -2   32.80    6.20
  -9  -5  -2   37.80    7.60
  -9  -5  -2   48.40    8.30
  -9  -5  -2   33.20    6.90
  -9  -5  -2   42.60    7.00
   9   5   2   41.20    8.80
   9   5   2   45.50    7.90
   9   5   2   30.70    8.60
   9   5   2   30.60    7.20
   9   5   2   34.60    7.60
 -10  -5  -2   10.20    8.10
 -10  -5  -2    2.10    6.40
 -10  -5  -2   22.10    9.10
 -10  -5  -2   -8.20    8.90
 -10  -5  -2    4.90    6.80
 -10  -5  -2   16.90    7.50
  10   5   2   -3.40    9.00
  10   5   2   10.20    8.40
 -11  -5  -2   21.20   12.40
 -11  -5  -2    4.60   10.40
  11   5   2  -10.90   11.40
  12   5   2   10.40    7.90
   7  -6  -2   -0.90    9.80
   6  -6  -2   23.60    9.40
   6  -6  -2   20.40    9.40
   6  -6  -2   40.80   12.40
  -6   6   2   14.40   10.90
  -6   6   2   31.80   12.10
   5  -6  -2   25.10    8.50
   5  -6  -2    9.30    8.80
   5  -6  -2   20.90    6.70
   5  -6  -2   28.10    8.90
  -5   6   2   14.30    8.40
  -5   6   2   32.30    8.20
  -5   6   2   12.70    6.90
  -5   6   2   12.30    7.20
   4  -6  -2   68.79    7.70
   4  -6  -2   66.99    8.50
   4  -6  -2   63.99    8.20
   4  -6  -2   70.29    9.30
   4  -6  -2   66.79    8.50
   4  -6  -2   66.99    9.20
  -4   6   2   78.39    9.30
  -4   6   2   75.99    8.20
  -4   6   2   67.99    9.20
   3  -6  -2  118.39    9.20
   3  -6  -2  109.09    8.90
   3  -6  -2  110.89    8.50
   3  -6  -2  101.19    7.30
   3  -6  -2   99.69    8.30
   3  -6  -2   92.69    9.60
  -3   6   2  109.39    9.00
  -3   6   2  108.79    8.50
  -3   6   2  100.49    8.90
  -3   6   2   96.89    9.30
   2  -6  -2  893.21   22.00
   2  -6  -2  908.41   19.80
   2  -6  -2  878.01   23.10
   2  -6  -2  891.51   22.70
   2  -6  -2  896.41   23.30
  -2   6   2  868.61   22.50
  -2   6   2  849.02   22.70
  -2   6   2  879.21   22.30
  -2   6   2  872.31   23.10
   1  -6  -2  303.57   11.20
   1  -6  -2  298.17   11.70
   1  -6  -2  301.57   11.10
   1  -6  -2  319.47   11.10
   1  -6  -2  312.27    8.70
   1  -6  -2  306.77   11.70
  -1   6   2  304.17   11.60
  -1   6   2  309.97   11.20
  -1   6   2  295.37   11.20
  -1   6   2  300.97   11.40
   0  -6  -2  206.38    8.80
   0  -6  -2  203.88    9.20
   0  -6  -2  222.88    6.50
   0  -6  -2  215.58    9.10
   0  -6  -2  208.28    9.40
   0   6   2  203.68    8.90
   0   6   2  220.18    9.00
   0   6   2  213.98    9.10
   0   6   2  217.28    9.40
  -1  -6  -2  295.57   10.30
  -1  -6  -2  298.07   10.30
  -1  -6  -2  299.77   10.60
  -1  -6  -2  288.67   10.50
   1   6   2  303.87   10.50
   1   6   2  295.67   10.80
   1   6   2  296.87   10.40
   1   6   2  285.87   10.30
  -2  -6  -2  131.69    7.00
  -2  -6  -2  131.69    6.80
  -2  -6  -2  133.29    7.10
  -2  -6  -2  130.59    7.20
   2   6   2  131.19    7.60
   2   6   2  132.29    7.00
   2   6   2  121.79    6.70
   2   6   2  124.59    6.70
  -3  -6  -2  675.93   17.30
  -3  -6  -2  644.84   14.90
  -3  -6  -2  658.63   17.40
  -3  -6  -2  654.63   17.00
  -3  -6  -2  651.03   16.80
   3   6   2  658.33   16.30
   3   6   2  647.34   17.50
   3   6   2  625.74   16.60
   3   6   2  630.74   16.70
   3   6   2  654.53   17.20
  -4  -6  -2   57.99    6.10
  -4  -6  -2   58.39    4.30
  -4  -6  -2   50.39    5.30
  -4  -6  -2   60.39    5.70
  -4  -6  -2   66.19    5.60
   4   6   2   53.59    5.20
   4   6   2   54.79    4.40
   4   6   2   64.29    6.00
   4   6   2   52.49    5.40
   4   6   2   60.09    6.30
  -5  -6  -2  717.93   18.80
  -5  -6  -2  706.13   18.50
  -5  -6  -2  740.03   19.30
  -5  -6  -2  699.03   17.10
  -5  -6  -2  718.03   18.40
   5   6   2  717.43   18.40
   5   6   2  728.83   19.20
   5   6   2  727.43   15.60
   5   6   2  713.63   16.90
   5   6   2  715.53   18.30
  -6  -6  -2   22.30    6.90
  -6  -6  -2   31.70    4.90
  -6  -6  -2   18.80    4.50
  -6  -6  -2   25.00    4.00
  -6  -6  -2   20.80    4.40
   6   6   2   40.00    5.60
   6   6   2   28.20    3.90
   6   6   2   30.90    5.00
   6   6   2   26.50    5.60
   6   6   2   28.90    3.60
   6   6   2   22.10    5.50
  -7  -6  -2   57.09    6.10
  -7  -6  -2   59.29    7.10
  -7  -6  -2   62.69    7.00
  -7  -6  -2   56.79   10.40
  -7  -6  -2   62.09    8.10
  -7  -6  -2   52.99    6.30
   7   6   2   64.59    6.30
   7   6   2   54.99    4.70
   7   6   2   60.29    8.30
   7   6   2   53.19    6.50
   7   6   2   51.59    7.00
   7   6   2   58.19    7.60
   7   6   2   57.39    7.10
  -8  -6  -2    7.60    5.20
  -8  -6  -2   15.90    5.00
  -8  -6  -2   24.70    6.40
  -8  -6  -2    5.00    5.90
  -8  -6  -2   15.80    9.30
  -8  -6  -2   15.20    5.30
   8   6   2   16.30    6.10
   8   6   2   11.80    6.30
   8   6   2   22.70    6.10
   8   6   2   16.80    6.40
   8   6   2   21.90    6.90
   8   6   2   18.80    4.40
   8   6   2   17.60    5.30
  -9  -6  -2   30.70    7.90
  -9  -6  -2   26.00    6.20
  -9  -6  -2   19.70    6.30
  -9  -6  -2   40.40    7.30
  -9  -6  -2   35.10    6.10
  -9  -6  -2   55.49    9.10
   9   6   2   43.60    9.90
   9   6   2   56.59    7.90
   9   6   2   48.20    8.90
   9   6   2   30.80    8.60
   9   6   2   39.70    8.90
   9   6   2   28.00    7.30
 -10  -6  -2   42.60    9.00
 -10  -6  -2   58.79   10.80
 -10  -6  -2   45.10    8.40
 -10  -6  -2   68.39    8.40
 -10  -6  -2   56.69    8.80
 -10  -6  -2   60.99   11.90
  10   6   2   49.90   10.10
  10   6   2   63.69   10.40
 -11  -6  -2   30.10   11.00
  11   6   2   43.70   13.00
   6  -7  -2   -0.40    9.40
   5  -7  -2  -15.40    7.80
   5  -7  -2   -9.40   11.00
   5  -7  -2   -5.40    8.60
  -5   7   2  -11.80    9.00
  -5   7   2   29.20    9.90
   4  -7  -2   48.40    7.10
   4  -7  -2   38.60    9.10
   4  -7  -2   45.80    8.90
   4  -7  -2   42.00    9.30
  -4   7   2   53.19    8.20
  -4   7   2   53.89    8.40
  -4   7   2   59.09    8.80
   3  -7  -2   23.10    6.70
   3  -7  -2   30.20    6.90
   3  -7  -2   13.20    6.60
   3  -7  -2   36.00    7.10
   3  -7  -2   15.70    6.40
   3  -7  -2   28.50    7.70
  -3   7   2   20.10    6.70
  -3   7   2   18.80    6.20
  -3   7   2   17.80    6.30
  -3   7   2   20.60    8.80
   2  -7  -2   61.19    8.10
   2  -7  -2   61.99    5.90
   2  -7  -2   60.99    7.70
   2  -7  -2   52.59    7.00
   2  -7  -2   52.49    7.90
   2  -7  -2   60.99    7.80
  -2   7   2   49.50    7.40
  -2   7   2   53.59    7.20
  -2   7   2   57.09    7.90
  -2   7   2   54.59    7.10
   1  -7  -2    0.90    2.50
   1  -7  -2    8.10    4.90
   1  -7  -2   -0.50    4.10
   1  -7  -2   -0.80    4.00
  -1   7   2    2.90    4.60
  -1   7   2    2.40    4.70
  -1   7   2   -3.00    6.70
  -1   7   2   -2.20    4.80
   0  -7  -2   64.19    7.60
   0  -7  -2   60.19    4.20
   0  -7  -2   65.29    7.00
   0  -7  -2   64.29    6.90
   0   7   2   51.69    6.70
   0   7   2   53.89    7.30
   0   7   2   52.19    6.90
   0   7   2   58.99    6.90
  -1  -7  -2  793.52   20.40
  -1  -7  -2  803.12   20.80
  -1  -7  -2  779.92   20.80
   1   7   2  764.02   20.40
   1   7   2  783.62   20.40
   1   7   2  793.52   20.80
   1   7   2  809.52   21.30
  -2  -7  -2  133.49    5.60
  -2  -7  -2  128.49    7.90
  -2  -7  -2  128.99    7.60
  -2  -7  -2  136.89    8.10
   2   7   2  137.49    8.70
   2   7   2  128.29    7.50
   2   7   2  120.39    7.60
   2   7   2  132.39    8.10
  -3  -7  -2  419.66   14.20
  -3  -7  -2  434.76   13.60
  -3  -7  -2  443.76   13.90
  -3  -7  -2  447.06   14.20
  -3  -7  -2  432.66   11.20
   3   7   2  448.66   14.20
   3   7   2  422.16   13.10
   3   7   2  435.56   14.80
   3   7   2  434.26   13.60
   3   7   2  420.06   13.40
  -4  -7  -2   43.50    5.90
  -4  -7  -2   47.10    6.30
  -4  -7  -2   52.09    6.10
  -4  -7  -2   43.50    4.50
  -4  -7  -2   45.50    5.60
   4   7   2   44.00    5.60
   4   7   2   42.00    5.30
   4   7   2   44.40    5.60
   4   7   2   36.10    6.60
   4   7   2   42.10    5.10
  -5  -7  -2   16.60    3.50
  -5  -7  -2   18.50    5.10
  -5  -7  -2   20.10    4.80
  -5  -7  -2   27.40    5.20
  -5  -7  -2   24.70    5.20
   5   7   2   27.70    3.50
   5   7   2   25.10    5.10
   5   7   2   19.10    3.70
   5   7   2   26.20    5.90
   5   7   2   18.90    4.70
   5   7   2   21.60    5.30
  -6  -7  -2    0.00    4.40
  -6  -7  -2    4.60    4.40
  -6  -7  -2    3.50    4.60
  -6  -7  -2    2.80    3.10
  -6  -7  -2   -2.70    3.70
   6   7   2    2.10    4.60
   6   7   2   12.00    3.20
   6   7   2    5.90    3.50
   6   7   2    7.40    4.60
   6   7   2    3.50    5.60
  -7  -7  -2  173.28   10.80
  -7  -7  -2  178.98   11.20
  -7  -7  -2  165.58   11.10
  -7  -7  -2  173.08   10.10
  -7  -7  -2  173.58    9.00
   7   7   2  182.68   11.40
   7   7   2  186.98    9.30
   7   7   2  174.58    6.80
   7   7   2  183.78   10.40
   7   7   2  173.68   10.50
   7   7   2  182.88   11.90
  -8  -7  -2   19.00    6.00
  -8  -7  -2   16.40    6.80
  -8  -7  -2   -4.60   10.10
  -8  -7  -2   23.30    5.90
  -8  -7  -2   26.30    7.30
  -8  -7  -2   14.50    5.30
   8   7   2   20.10    7.40
   8   7   2   11.20    6.50
   8   7   2   12.80    5.30
   8   7   2   11.00    4.20
   8   7   2   13.80    7.30
   8   7   2    9.60    6.60
  -9  -7  -2    1.00    5.90
  -9  -7  -2  -10.40    6.60
  -9  -7  -2   12.30    6.90
  -9  -7  -2   -2.50    5.30
  -9  -7  -2    7.90    8.30
  -9  -7  -2    3.20    7.90
   9   7   2   22.80    8.20
   9   7   2    6.00    7.40
   9   7   2   -4.50    6.70
   9   7   2   -6.00    6.70
   9   7   2   12.90   13.10
 -10  -7  -2   17.90    8.80
 -10  -7  -2   12.70    8.60
 -10  -7  -2   14.00   11.30
 -10  -7  -2   -1.10    7.90
 -10  -7  -2   -2.10    7.70
 -10  -7  -2    7.40   10.60
  10   7   2   41.90   10.30
  10   7   2   -5.60    8.80
 -11  -7  -2   24.90   11.90
  11   7   2   24.10   12.40
   5  -8  -2   27.60   10.70
   4  -8  -2   20.80   11.30
   4  -8  -2    9.30    9.10
  -4   8   2   27.70    9.90
  -4   8   2   22.70   10.30
   3  -8  -2   12.40    6.10
   3  -8  -2   23.00    9.00
   3  -8  -2   11.70    8.00
   3  -8  -2    5.40    7.50
  -3   8   2   14.70    7.60
  -3   8   2   10.40    7.80
  -3   8   2    3.90    8.30
  -3   8   2   -1.70    7.50
   2  -8  -2   -2.90    6.60
   2  -8  -2    6.00    7.30
   2  -8  -2   10.20    6.70
   2  -8  -2    2.80    4.50
   2  -8  -2    8.10    6.50
  -2   8   2    5.80    6.20
  -2   8   2   10.20    6.60
  -2   8   2    1.80    7.30
  -2   8   2    1.50    6.20
   1  -8  -2    8.50    6.40
   1  -8  -2    7.20    5.70
   1  -8  -2    2.00    5.40
   1  -8  -2   13.20    5.80
  -1   8   2    1.80    5.90
  -1   8   2    5.30    5.30
  -1   8   2    3.70    5.00
   0  -8  -2   10.20    5.10
   0  -8  -2    2.40    5.50
   0  -8  -2   -6.30    4.90
   0   8   2   -6.40    5.50
   0   8   2    6.90    5.50
   0   8   2    4.00    4.80
   0   8   2    5.00    5.10
  -1  -8  -2   33.00    6.40
  -1  -8  -2   27.90    5.70
  -1  -8  -2   23.10    4.10
  -1  -8  -2   26.20    5.70
   1   8   2   15.30    5.30
   1   8   2   20.80    5.60
   1   8   2   11.40    6.10
   1   8   2   19.80    5.30
  -2  -8  -2  116.09    8.90
  -2  -8  -2  125.49    8.90
  -2  -8  -2   94.89    8.80
   2   8   2  112.69    8.40
   2   8   2  115.79   11.80
   2   8   2  114.29    8.60
  -3  -8  -2 1573.04   31.70
  -3  -8  -2 1566.84   36.20
  -3  -8  -2 1584.04   35.70
  -3  -8  -2 1632.14   36.20
   3   8   2 1569.54   36.30
   3   8   2 1605.14   35.70
   3   8   2 1603.84   35.70
   3   8   2 1603.14   36.00
   3   8   2 1616.24   37.40
  -4  -8  -2  275.87    9.20
  -4  -8  -2  283.67   12.60
  -4  -8  -2  287.77   12.70
  -4  -8  -2  286.67   11.90
  -4  -8  -2  286.67   12.30
   4   8   2  298.67   12.90
   4   8   2  317.27   13.60
   4   8   2  291.37   11.80
   4   8   2  283.87   11.90
   4   8   2  289.87   11.10
  -5  -8  -2   -0.30    3.10
  -5  -8  -2    0.30    5.00
  -5  -8  -2   -0.10    4.50
  -5  -8  -2    3.00    5.00
  -5  -8  -2    1.30    4.70
   5   8   2    8.00    6.20
   5   8   2    4.70    3.60
   5   8   2    1.90    5.30
   5   8   2    3.70    4.00
   5   8   2    4.40    6.20
  -6  -8  -2   18.80    6.20
  -6  -8  -2   24.90    6.20
  -6  -8  -2   30.70    4.60
  -6  -8  -2   18.50   10.90
  -6  -8  -2   19.10    5.80
   6   8   2   26.50    7.10
   6   8   2   27.70    6.70
   6   8   2   23.40    5.00
   6   8   2   19.20    5.30
   6   8   2   26.40    4.00
   6   8   2   26.30    6.90
  -7  -8  -2  119.19   10.30
  -7  -8  -2  122.69   11.30
  -7  -8  -2  124.49   10.50
  -7  -8  -2  123.49    8.60
  -7  -8  -2  121.79   11.00
   7   8   2  125.89    8.80
   7   8   2  141.29   12.80
   7   8   2  135.29   10.80
   7   8   2  116.49    6.50
   7   8   2  116.69   11.20
   7   8   2  147.59   10.40
  -8  -8  -2   44.30    8.10
  -8  -8  -2   36.90    8.30
  -8  -8  -2   21.10    7.10
  -8  -8  -2   27.00    6.30
  -8  -8  -2   36.10    8.30
   8   8   2   22.00    7.30
   8   8   2   42.50    7.50
   8   8   2   40.80   10.50
   8   8   2   45.60    8.20
   8   8   2   28.50    8.60
  -9  -8  -2    8.70    5.80
  -9  -8  -2    8.50    8.60
  -9  -8  -2    2.60   10.10
  -9  -8  -2   13.00    7.60
  -9  -8  -2   18.50    8.30
   9   8   2   13.90    8.90
   9   8   2   12.00    9.80
   9   8   2    7.50    8.10
   9   8   2    0.80    9.70
 -10  -8  -2   22.80    9.60
 -10  -8  -2   -7.80   11.10
 -10  -8  -2   -7.30    8.30
  10   8   2   14.40   11.70
  10   8   2   18.00    9.70
  10   8   2   34.50   11.10
  11   8   2  -29.10   13.00
   4  -9  -2    1.00    9.90
   2  -9  -2   11.10    9.50
  -2   9   2    4.70    8.10
  -2   9   2    7.70    7.80
  -2   9   2   11.40    9.30
  -2   9   2   -9.50   12.80
   1  -9  -2   -2.60    7.50
   1  -9  -2    2.50    7.20
  -1   9   2    5.20    6.70
  -1   9   2   -8.00    7.00
  -1   9   2   11.90    6.80
  -1   9   2   -3.60    7.80
   0  -9  -2   56.29    8.20
   0  -9  -2   47.60    8.40
   0  -9  -2   48.00    8.40
   0  -9  -2   55.89    8.20
   0   9   2   51.59    8.90
   0   9   2   44.10    7.60
   0   9   2   67.89    9.20
  -1  -9  -2   -6.60    5.60
  -1  -9  -2   18.90    6.70
  -1  -9  -2   -4.40    4.00
  -1  -9  -2    7.00    6.40
  -1  -9  -2    0.30    5.70
   1   9   2   -0.50    5.30
   1   9   2   -5.80    6.00
   1   9   2    3.50    5.30
   1   9   2    3.20    6.70
  -2  -9  -2    5.60    5.80
  -2  -9  -2   12.30    6.10
  -2  -9  -2   10.20    6.00
  -2  -9  -2    6.30    5.90
   2   9   2    0.00    5.40
   2   9   2    7.20    6.50
   2   9   2    1.30    6.30
   2   9   2    0.20    5.10
  -3  -9  -2  547.05   18.30
  -3  -9  -2  533.95   18.00
  -3  -9  -2  542.55   18.20
   3   9   2  523.05   17.70
   3   9   2  562.14   19.60
   3   9   2  495.35   22.10
   3   9   2  564.74   18.90
   3   9   2  558.44   18.10
  -4  -9  -2   -7.90    5.70
  -4  -9  -2    3.50    6.50
  -4  -9  -2   -2.00    3.20
  -4  -9  -2    0.20    5.70
  -4  -9  -2    5.20    5.70
   4   9   2    4.40    5.50
   4   9   2   11.00    7.10
   4   9   2    0.30    6.10
   4   9   2    7.80    5.60
  -5  -9  -2  357.66   23.90
  -5  -9  -2  418.66   12.20
  -5  -9  -2  404.06   16.30
  -5  -9  -2  412.06   16.80
  -5  -9  -2  449.86   16.10
   5   9   2  422.76   15.00
   5   9   2  414.46   16.40
   5   9   2  424.16   17.70
   5   9   2  438.86   15.90
   5   9   2  399.96   22.10
  -6  -9  -2   36.40    7.40
  -6  -9  -2   37.80    7.00
  -6  -9  -2   25.50    7.10
  -6  -9  -2   21.40    7.40
  -6  -9  -2   34.50    5.20
   6   9   2   27.00    7.40
   6   9   2   33.40    4.70
   6   9   2   24.80    6.90
   6   9   2   25.50    5.90
   6   9   2   22.30    8.20
   6   9   2   39.20    8.50
  -7  -9  -2    9.20    5.20
  -7  -9  -2    9.00    7.30
  -7  -9  -2   12.80    7.80
  -7  -9  -2   11.40    8.20
  -7  -9  -2    5.30    8.00
   7   9   2    7.40    8.90
   7   9   2    1.80    7.80
   7   9   2   13.20    6.20
   7   9   2   16.40   10.60
   7   9   2   13.10    6.20
  -8  -9  -2   -0.90    8.70
  -8  -9  -2   23.00    7.90
  -8  -9  -2   13.30    9.10
  -8  -9  -2    4.30    8.80
  -8  -9  -2    3.80    5.90
   8   9   2   10.20   13.50
   8   9   2   21.70    7.90
   8   9   2    1.80    8.90
   8   9   2    6.10    8.30
   8   9   2    4.40    8.70
  -9  -9  -2   22.50   10.00
  -9  -9  -2   24.00   10.10
  -9  -9  -2   21.70    8.80
  -9  -9  -2   35.20    7.90
   9   9   2   19.40    9.90
   9   9   2   15.80    8.70
   9   9   2   21.90    9.60
   9   9   2   14.90   12.70
 -10  -9  -2   -3.60   16.30
 -10  -9  -2    0.00    9.60
 -10  -9  -2   16.20   10.60
  10   9   2   15.40   10.80
  10   9   2    3.70   11.60
  10   9   2   -3.20   12.00
  -1  10   2    6.00    9.50
  -1  10   2   23.40    9.20
  -1  10   2   17.10   11.30
   0 -10  -2   43.20   10.70
   0 -10  -2   36.80    9.40
   0  10   2   40.70    9.20
   0  10   2   29.60    8.50
   0  10   2   30.70    8.90
   0  10   2   25.50   10.10
  -1 -10  -2  109.19   11.50
  -1 -10  -2  158.58   14.40
   1  10   2  116.19   12.20
   1  10   2  163.68   13.40
   1  10   2  127.49   14.10
   1  10   2  153.88   12.10
  -2 -10  -2    4.70    8.00
  -2 -10  -2    8.40    7.20
  -2 -10  -2    0.30    9.50
  -2 -10  -2   -1.90    4.80
  -2 -10  -2   -2.20    8.10
   2  10   2   -7.90    6.30
   2  10   2    6.60    6.20
   2  10   2   -2.10    7.60
   2  10   2   -8.50    6.60
   2  10   2    1.70    8.80
  -3 -10  -2   42.60    9.00
  -3 -10  -2   43.20    8.70
  -3 -10  -2   35.20    8.40
   3  10   2   25.50    6.90
   3  10   2   36.20    9.00
   3  10   2   43.60    7.50
   3  10   2   37.20    7.80
   3  10   2   33.60    9.10
  -4 -10  -2    4.80    7.30
  -4 -10  -2    1.10    8.00
  -4 -10  -2    6.60    7.10
  -4 -10  -2   -1.10    7.50
   4  10   2    3.40    5.80
   4  10   2   -6.50    8.60
   4  10   2    0.20    6.10
   4  10   2    2.40    6.70
   4  10   2    2.20    8.50
  -5 -10  -2  355.56   18.00
  -5 -10  -2  340.87   17.10
  -5 -10  -2  378.26   16.70
  -5 -10  -2  354.26   16.90
   5  10   2  375.76   16.30
   5  10   2  375.56   19.10
   5  10   2  371.06   18.60
   5  10   2  352.16   15.10
   5  10   2  411.16   16.40
  -6 -10  -2   58.39   10.30
  -6 -10  -2   70.09   12.30
  -6 -10  -2   64.59   10.10
  -6 -10  -2   68.59    8.00
  -6 -10  -2  105.69   12.40
   6  10   2   69.89   10.90
   6  10   2   98.89   12.00
   6  10   2   86.39   11.90
   6  10   2   68.09   11.20
   6  10   2   80.79    7.10
   6  10   2   70.29   10.30
  -7 -10  -2    3.40    5.50
  -7 -10  -2   -1.70    8.80
  -7 -10  -2   -2.30    7.80
   7  10   2   18.00   10.80
   7  10   2    4.60    6.80
   7  10   2   -6.90    7.50
   7  10   2  -14.90   11.40
   7  10   2   20.10    9.30
  -8 -10  -2   34.70   11.00
  -8 -10  -2   10.70    6.40
  -8 -10  -2  -19.20   11.10
  -8 -10  -2   -5.60    9.40
   8  10   2    3.30    9.20
   8  10   2  -12.70   11.10
   8  10   2   18.50    8.20
   8  10   2   21.90    9.70
  -9 -10  -2   25.50    9.40
  -9 -10  -2   44.00   13.50
  -9 -10  -2   19.20   11.20
  -9 -10  -2   56.89   12.20
   9  10   2   31.20   11.40
   9  10   2   42.80   11.90
   9  10   2   39.60   10.50
 -10 -10  -2    3.80   11.00
 -10 -10  -2   19.50   12.80
   0 -11  -2   35.00   13.90
  -1 -11  -2   40.30   11.10
   1  11   2   -0.90   11.70
   1  11   2   34.70   10.10
   1  11   2   22.00   10.20
   1  11   2   27.70   10.40
  -2 -11  -2  112.09   15.50
  -2 -11  -2  100.29   10.80
  -2 -11  -2   85.79   15.30
   2  11   2   82.59   11.20
   2  11   2  110.09   14.70
   2  11   2  110.29   23.20
   2  11   2   86.49   13.30
   2  11   2   91.79   11.20
  -3 -11  -2   33.60    9.80
  -3 -11  -2    3.30    8.80
   3  11   2    5.50    8.40
   3  11   2   21.80   10.90
   3  11   2   28.00    8.50
   3  11   2   14.50    8.60
  -4 -11  -2    0.60    8.80
  -4 -11  -2    4.00    9.50
   4  11   2   15.40   11.40
   4  11   2    4.40    7.70
   4  11   2   10.80    8.10
   4  11   2  -17.40   10.80
   4  11   2    5.60    8.20
  -5 -11  -2   52.69   10.10
  -5 -11  -2   46.80   10.50
   5  11   2   57.99    9.20
   5  11   2   35.40   12.00
   5  11   2   53.69   10.00
   5  11   2   54.79    9.90
   5  11   2   53.39   13.80
  -6 -11  -2   72.49   11.50
  -6 -11  -2   71.49   11.20
   6  11   2   69.39    8.90
   6  11   2   79.59   10.90
   6  11   2   54.99   13.00
   6  11   2   60.29    9.50
   6  11   2   55.79   10.60
   6  11   2   74.49   20.40
  -7 -11  -2   30.50    7.00
  -7 -11  -2   45.80   11.10
  -7 -11  -2   62.99   11.80
   7  11   2   38.50   11.70
   7  11   2   21.80   10.70
   7  11   2   30.60    8.90
   7  11   2   41.80   13.20
  -8 -11  -2   -9.10   11.60
  -8 -11  -2    6.70   12.20
  -8 -11  -2   -5.40    8.00
   8  11   2   -3.90   14.00
   8  11   2    9.30   11.20
   8  11   2  -11.60   15.40
   8  11   2   13.20   10.30
  -9 -11  -2   31.30   13.70
   9  11   2   25.10   13.60
   9  11   2   15.20   14.40
  -2 -12  -2  103.59   18.90
  -2 -12  -2   91.49   22.50
  -3 -12  -2   97.79   14.80
  -3 -12  -2   83.79   12.30
   3  12   2   70.59   20.30
   3  12   2  114.89   17.40
  -4 -12  -2   16.80   12.80
   4  12   2    4.50   10.50
  -5 -12  -2  -10.30   11.70
   5  12   2    7.10   10.00
   5  12   2   -1.50   10.30
  -6 -12  -2   19.30   12.70
   6  12   2   12.50   10.30
   6  12   2    0.30   12.30
  -7 -12  -2   43.30   15.60
   7  12   2   25.60   14.80
   7  12   2   33.30   11.40
   8  12   2  -36.50   15.90
   8  12   2   47.90   13.70
  -3 -13  -2   55.19   16.00
  -4 -13  -2   27.50   10.90
  -5 -13   3    2.80    9.10
  -4 -13   3   23.80    9.80
  -3 -13   3   42.20   12.30
  -5 -12   3   -0.90    7.00
  -4 -12   3   20.90    8.50
  -3 -12   3    0.30    7.70
  -2 -12   3   -1.80    8.50
  -1 -12   3   11.70   10.10
   0 -12   3   84.29   13.20
  -8 -11   3  -13.70   13.80
  -7 -11   3   42.40   12.50
   6  11  -3   27.20    9.60
   6  11  -3   21.40   10.70
   6  11  -3    6.70   12.90
  -6 -11   3   16.00   10.70
   5  11  -3    1.10    8.50
   5  11  -3   16.60    9.10
   5  11  -3    5.10    9.00
   5  11  -3    8.80   11.80
  -5 -11   3   20.80   10.60
   4  11  -3   24.90    8.90
   4  11  -3   34.40    8.20
   4  11  -3   59.79   11.60
   4  11  -3   20.80    8.50
  -4 -11   3   43.90    9.90
  -4 -11   3   41.20    8.20
   3  11  -3   23.90   12.00
   3  11  -3    9.00    9.30
   3  11  -3   18.00    7.80
   3  11  -3   22.50    7.20
  -3 -11   3   35.30    9.90
  -3 -11   3   11.90    6.80
   2  11  -3   27.60    7.30
   2  11  -3    6.90    7.50
   2  11  -3   12.70    9.10
  -2 -11   3   16.00    8.00
   1  11  -3   35.60   10.30
   1  11  -3   18.10    7.70
   1  11  -3   31.20    7.90
  -1 -11   3   11.60    8.00
   0  11  -3    2.90    7.60
   0 -11   3   24.50    8.90
  -1  11  -3  104.69   13.80
   1 -11   3   79.89   12.50
  -9 -10   3   12.10   19.80
   8  10  -3    2.20   11.90
   8  10  -3   12.80   11.00
  -8 -10   3   33.60   11.50
   7  10  -3    4.40    8.60
   7  10  -3   -5.30   13.00
   7  10  -3  -16.40    9.00
  -7 -10   3   22.40    9.60
   6  10  -3    2.20   10.90
   6  10  -3   28.90    8.30
   6  10  -3   19.10    8.90
   6  10  -3   33.90    8.30
   6  10  -3   15.60   10.40
  -6 -10   3   17.60    8.80
  -6 -10   3   32.10    9.30
   5  10  -3    8.40    7.10
   5  10  -3    6.70    6.60
   5  10  -3    4.50    6.30
   5  10  -3    0.50    8.20
   5  10  -3   14.90    9.40
  -5 -10   3    9.10    7.70
  -5 -10   3    8.10    7.30
   4  10  -3    2.20    6.00
   4  10  -3   -0.10    7.10
   4  10  -3    0.70    6.10
   4  10  -3   16.30    6.20
   4  10  -3    4.80    8.70
  -4 -10   3   10.10    6.70
  -4 -10   3    8.50    7.20
   3  10  -3    4.60    5.60
   3  10  -3   -1.20    5.10
   3  10  -3   -3.30    6.50
   3  10  -3    1.40    6.40
   3  10  -3   -0.80    8.20
  -3 -10   3   12.40    5.10
  -3 -10   3   -8.70    6.50
  -3 -10   3    5.80    8.50
   2  10  -3   44.60    7.00
   2  10  -3   43.70    9.20
   2  10  -3   28.20    6.00
   2  10  -3   25.60    7.20
   2  10  -3   38.40    8.10
  -2 -10   3   36.30    6.90
  -2 -10   3   35.20    6.80
  -2 -10   3   24.30    8.20
  -2 -10   3   38.40    7.60
   1  10  -3   13.20    5.60
   1  10  -3    2.70    6.60
   1  10  -3   13.30    7.10
   1  10  -3   11.80    5.50
   1  10  -3   15.00    6.80
  -1 -10   3    5.20    8.00
  -1 -10   3    7.60    6.30
  -1 -10   3    3.10    6.00
  -1 -10   3   11.20    6.00
   0  10  -3    7.50    7.60
   0  10  -3    3.10    7.60
   0  10  -3   -1.80    5.70
   0  10  -3    1.20    5.70
   0  10  -3    4.50    7.70
   0 -10   3    0.50    6.10
   0 -10   3    4.70    6.90
   0 -10   3    2.30    7.70
   0 -10   3   -6.50    7.10
  -1  10  -3   41.30    7.40
  -1  10  -3   51.09    7.40
  -1  10  -3   40.60    9.40
   1 -10   3   63.69    9.90
  -2  10  -3   76.29   10.60
   2 -10   3   60.59   11.00
  -3  10  -3   62.19    9.40
   9   9  -3    2.50   11.80
   9   9  -3   -8.40   12.00
  -9  -9   3   -7.80   12.20
  -9  -9   3   -4.30    9.20
   8   9  -3    7.30    9.40
   8   9  -3    5.40    9.30
   8   9  -3   24.30    9.00
   8   9  -3   31.10   12.40
   8   9  -3    5.00   10.20
  -8  -9   3    8.50    9.70
  -8  -9   3  -12.60    9.30
   7   9  -3   11.60    7.80
   7   9  -3   -4.30   10.10
   7   9  -3    3.40    9.90
   7   9  -3    8.90    8.50
   7   9  -3    5.40    7.40
   7   9  -3   15.70    7.70
  -7  -9   3    2.80    7.70
  -7  -9   3   -0.40    8.40
   6   9  -3   76.39   10.40
   6   9  -3   51.19    8.10
   6   9  -3   66.99    9.50
   6   9  -3   62.49    8.00
   6   9  -3   72.59    9.60
   6   9  -3   74.59   10.40
  -6  -9   3   67.19    9.20
  -6  -9   3   89.89   10.70
  -6  -9   3   66.99   11.90
   5   9  -3   -2.40    7.60
   5   9  -3    8.90    5.50
   5   9  -3    1.00    6.40
   5   9  -3   11.60    5.80
   5   9  -3    8.80    5.90
  -5  -9   3    9.30    5.80
  -5  -9   3    4.70    7.20
  -5  -9   3   -1.70    6.60
  -5  -9   3    4.90    6.00
   4   9  -3   38.50    6.10
   4   9  -3   45.50    6.50
   4   9  -3   27.40    6.40
   4   9  -3   38.90    7.10
   4   9  -3   44.30    8.20
  -4  -9   3   35.00    7.80
  -4  -9   3   48.00    7.40
  -4  -9   3   49.00    7.20
  -4  -9   3   57.79    8.10
   3   9  -3    4.30    4.50
   3   9  -3   12.80    5.60
   3   9  -3    5.60    6.40
   3   9  -3    4.60    4.20
   3   9  -3   16.90    5.60
  -3  -9   3   14.70    6.20
  -3  -9   3   18.30    6.00
  -3  -9   3   10.90    4.90
  -3  -9   3    2.60    5.30
   2   9  -3   72.39    8.50
   2   9  -3   58.19    6.80
   2   9  -3   56.19    7.50
   2   9  -3   67.79    9.10
   2   9  -3   59.39    7.60
  -2  -9   3   68.69    9.10
  -2  -9   3   60.99    7.40
  -2  -9   3   70.99    7.50
  -2  -9   3   59.89    8.20
   1   9  -3   37.00    5.50
   1   9  -3   35.00    5.50
   1   9  -3   38.30    6.50
   1   9  -3   39.20    6.70
   1   9  -3   34.90    6.60
  -1  -9   3   39.10    6.70
  -1  -9   3   48.90    6.80
  -1  -9   3   33.90    5.40
  -1  -9   3   40.10    6.70
  -1  -9   3   34.30    6.10
   0   9  -3   11.40    6.70
   0   9  -3    5.40    4.60
   0   9  -3    3.90    5.50
   0   9  -3    0.80    4.40
   0   9  -3   -0.50    5.60
   0  -9   3   -1.60    5.10
   0  -9   3   -2.90    4.70
   0  -9   3   -3.70    4.80
   0  -9   3    8.10    6.10
   0  -9   3   -1.40    5.70
  -1   9  -3   26.30    5.30
  -1   9  -3   15.30    5.90
  -1   9  -3   35.00    6.70
  -1   9  -3   18.00    7.50
  -1   9  -3   31.20    5.60
   1  -9   3   29.40    5.90
   1  -9   3   32.10    6.50
   1  -9   3   34.60    6.10
   1  -9   3   23.00    6.50
   1  -9   3   34.00    7.00
  -2   9  -3   68.59    8.50
  -2   9  -3   49.20    7.30
  -2   9  -3   53.99    7.10
  -2   9  -3   47.60    6.70
  -2   9  -3   46.10    9.60
   2  -9   3   48.60    8.60
   2  -9   3   52.99    7.40
   2  -9   3   53.49    7.90
  -3   9  -3  106.69   10.00
  -3   9  -3  102.89   11.00
   4  -9   3   21.90    8.80
   5  -9   3    7.90    7.70
  10   8  -3  110.59   16.20
 -10  -8   3   90.39   24.40
 -10  -8   3  138.19   19.40
   9   8  -3   13.60   11.20
   9   8  -3   17.00   11.00
   9   8  -3    3.10   12.80
   9   8  -3  -16.70   11.20
  -9  -8   3   10.60    8.40
  -9  -8   3  -18.10   10.10
  -9  -8   3  -19.00   10.90
   8   8  -3   14.20    8.70
   8   8  -3   -9.20    7.80
   8   8  -3   -7.10    8.40
   8   8  -3   18.90   11.40
   8   8  -3  -23.20    9.10
   8   8  -3   27.10   10.60
  -8  -8   3   -2.20    7.90
  -8  -8   3    2.00    8.90
  -8  -8   3    9.40    6.40
  -8  -8   3    2.10   10.10
   7   8  -3   23.10    8.50
   7   8  -3   20.20    6.90
   7   8  -3   14.90    7.00
   7   8  -3   42.00    9.60
   7   8  -3   19.20    7.30
   7   8  -3    8.00    7.30
  -7  -8   3    2.50    6.90
  -7  -8   3   10.60    8.00
  -7  -8   3   23.40    8.50
  -7  -8   3   22.80    7.60
  -7  -8   3   10.70    7.30
  -7  -8   3   24.90    5.80
   6   8  -3   84.19    9.50
   6   8  -3   73.99    9.00
   6   8  -3   92.29    9.60
   6   8  -3   85.99   11.30
   6   8  -3   79.89    9.20
   6   8  -3   80.29   10.90
  -6  -8   3   90.59    9.40
  -6  -8   3   82.89    9.70
  -6  -8   3   89.09   10.20
  -6  -8   3   77.79    9.10
  -6  -8   3   91.49   10.90
   5   8  -3   41.60    7.30
   5   8  -3   34.70    6.10
   5   8  -3   40.50    6.70
   5   8  -3   55.29    6.30
   5   8  -3   43.00    6.70
   5   8  -3   40.80    7.40
  -5  -8   3   36.30    6.40
  -5  -8   3   46.20   10.70
  -5  -8   3   37.90    6.00
  -5  -8   3   42.20    6.70
   4   8  -3  100.59    8.10
   4   8  -3  115.49    9.90
   4   8  -3  101.49    8.70
   4   8  -3   94.29    8.50
   4   8  -3   99.39    8.00
  -4  -8   3  102.89    8.30
  -4  -8   3   95.89    9.00
  -4  -8   3   91.89    8.40
  -4  -8   3   94.19    7.40
   3   8  -3   81.89    7.40
   3   8  -3   65.19    7.60
   3   8  -3   82.59    7.90
   3   8  -3   79.39    7.00
   3   8  -3   77.09    6.50
  -3  -8   3   79.49    6.70
  -3  -8   3   80.49    7.30
   2   8  -3    1.70    4.40
   2   8  -3   -1.90    3.60
   2   8  -3    0.70    4.40
   2   8  -3   -0.10    3.90
  -2  -8   3   -2.80    3.70
   1   8  -3  225.58    9.40
   1   8  -3  226.58   11.40
   1   8  -3  232.98    9.90
   1   8  -3  194.98    8.80
   1   8  -3  229.28   10.20
  -1  -8   3  222.18    9.00
  -1  -8   3  236.28    8.90
  -1  -8   3  229.58   10.60
   0   8  -3    6.60    4.20
   0   8  -3    6.80    6.60
   0   8  -3    1.90    5.00
   0   8  -3    6.00    7.50
   0   8  -3    6.30    3.70
   0  -8   3   12.60    4.20
   0  -8   3    5.40    4.90
   0  -8   3    3.00    4.40
   0  -8   3   -0.60    3.50
  -1   8  -3    7.10    4.30
  -1   8  -3   -1.30    4.10
  -1   8  -3    7.70    4.60
  -1   8  -3   -5.20    3.70
  -1   8  -3    7.90    5.30
   1  -8   3    1.00    4.70
   1  -8   3    3.30    4.40
   1  -8   3    6.10    4.30
   1  -8   3    6.80    4.20
  -2   8  -3   32.10    5.40
  -2   8  -3   31.60    5.30
  -2   8  -3   33.50    5.40
  -2   8  -3   23.00    5.10
   2  -8   3   25.20    5.40
   2  -8   3   31.90    7.00
   2  -8   3   25.00    5.20
  -3   8  -3   11.60    5.30
  -3   8  -3   16.90    5.20
  -3   8  -3    9.10    5.20
  -3   8  -3    6.50    5.00
   3  -8   3    7.20    5.90
  -4   8  -3   15.40    6.60
  -4   8  -3   19.70    6.10
   4  -8   3   13.70    7.70
  -5   8  -3   83.69    9.40
   5  -8   3   91.59   11.70
   6  -8   3    4.70    8.30
  10   7  -3  168.08   23.90
 -10  -7   3  142.59   16.80
 -10  -7   3  149.49   17.10
   9   7  -3   13.10    9.80
   9   7  -3   12.00   10.70
   9   7  -3    8.80   10.30
   9   7  -3   -1.50   11.40
  -9  -7   3   -7.10    9.70
  -9  -7   3   33.60    8.40
  -9  -7   3   19.20   11.30
  -9  -7   3    4.30    9.80
   8   7  -3   23.90    9.30
   8   7  -3   18.90    8.90
   8   7  -3    9.80    8.50
   8   7  -3   14.60    8.30
   8   7  -3    1.80    7.60
   8   7  -3   13.40    8.00
  -8  -7   3    1.90    8.10
  -8  -7   3    9.50    5.90
  -8  -7   3   10.60    8.50
  -8  -7   3   12.60    7.90
  -8  -7   3   11.50    8.50
  -8  -7   3   13.30   15.20
   7   7  -3    2.70    7.00
   7   7  -3    3.00    6.30
   7   7  -3    8.30    6.70
   7   7  -3   -9.60    8.40
   7   7  -3    1.80    5.50
   7   7  -3   -2.80    5.70
  -7  -7   3    1.80    5.00
  -7  -7   3   -5.70    6.30
  -7  -7   3   -7.20    5.60
  -7  -7   3   -1.30    6.60
  -7  -7   3    1.80    6.40
  -7  -7   3    4.90    6.80
   6   7  -3   -0.50    9.70
   6   7  -3   11.20    6.10
   6   7  -3   -0.40    5.00
   6   7  -3    0.60    4.80
   6   7  -3   -1.10    6.00
  -6  -7   3    7.90    3.60
  -6  -7   3    2.30    5.20
  -6  -7   3    2.50    4.70
  -6  -7   3    8.50    5.50
  -6  -7   3    9.70    5.70
  -6  -7   3   11.60    5.30
   5   7  -3  112.29    9.90
   5   7  -3  114.29   11.10
   5   7  -3  115.59    8.70
   5   7  -3  119.89    7.30
   5   7  -3  109.59    7.90
   5   7  -3  118.29    8.20
  -5  -7   3  119.79    7.90
  -5  -7   3  129.39    8.40
  -5  -7   3  116.89    6.20
  -5  -7   3  119.39    8.80
  -5  -7   3  138.59    8.90
   4   7  -3  270.57   11.30
   4   7  -3  263.27   11.10
   4   7  -3  278.07   10.50
   4   7  -3  276.67   10.80
   4   7  -3  280.97   10.70
  -4  -7   3  271.47   10.00
  -4  -7   3  281.07   10.60
  -4  -7   3  276.27   11.00
   3   7  -3  214.58    9.30
   3   7  -3  195.98    8.50
   3   7  -3  210.38    9.10
   3   7  -3  191.08    9.50
   3   7  -3  204.08    8.30
  -3  -7   3  204.48    8.30
  -3  -7   3  201.88    8.60
  -3  -7   3  219.28    9.20
  -3  -7   3  203.38    9.30
   2   7  -3   43.50    5.60
   2   7  -3   42.20    5.10
   2   7  -3   41.90    4.60
   2   7  -3   38.50    5.00
   2   7  -3   38.20    5.30
  -2  -7   3   45.70    5.10
  -2  -7   3   47.30    5.90
   1   7  -3  150.78    8.50
   1   7  -3  145.99    6.70
   1   7  -3  153.78    7.50
   1   7  -3  135.99    6.70
   1   7  -3  139.79    7.20
  -1  -7   3  152.68    6.80
  -1  -7   3  142.69    8.00
  -1  -7   3  151.58    7.70
  -1  -7   3  148.49    6.40
   0   7  -3  183.68    7.60
   0   7  -3  168.88    9.50
   0   7  -3  182.08    7.30
   0   7  -3  174.48    8.00
   0  -7   3  182.18    7.20
   0  -7   3  174.38    7.40
   0  -7   3  186.38    8.20
   0  -7   3  187.08    7.80
   0  -7   3  184.98    8.90
  -1   7  -3  283.17    9.50
  -1   7  -3  275.37    9.90
  -1   7  -3  291.17   10.00
   1  -7   3  307.67   11.50
   1  -7   3  284.87    9.80
   1  -7   3  298.47    9.20
   1  -7   3  294.27    9.60
  -2   7  -3   36.60    4.80
  -2   7  -3   23.40    4.30
  -2   7  -3   30.90    4.60
  -2   7  -3   38.50    4.90
   2  -7   3   24.20    6.00
   2  -7   3   44.00    6.50
   2  -7   3   37.30    4.90
   2  -7   3   32.40    4.70
  -3   7  -3   58.79    6.20
  -3   7  -3   60.59    6.50
  -3   7  -3   58.69    6.20
   3  -7   3   64.09    6.60
   3  -7   3   77.49    8.70
   3  -7   3   58.99    8.70
   3  -7   3   66.09    7.70
  -4   7  -3    1.30    4.90
  -4   7  -3    3.40    4.50
  -4   7  -3    1.50    4.80
   4  -7   3    5.90    6.30
   4  -7   3   -2.40    4.20
   4  -7   3    4.90    5.90
  -5   7  -3    7.30    6.20
   5  -7   3    9.40    7.70
   6  -7   3    6.90    7.00
   7  -7   3    3.50    8.70
  10   6  -3   14.50   12.50
  10   6  -3   17.70   12.70
 -10  -6   3   20.00   11.40
 -10  -6   3   16.40   10.90
   9   6  -3   48.80   11.70
   9   6  -3   35.60   11.20
   9   6  -3   35.50   11.20
   9   6  -3   62.89   11.20
  -9  -6   3   85.39   11.80
  -9  -6   3   54.89   10.80
  -9  -6   3   40.70   10.50
  -9  -6   3   50.49   10.70
   8   6  -3  580.64   19.70
   8   6  -3  594.34   21.10
   8   6  -3  646.04   20.80
   8   6  -3  573.94   21.20
   8   6  -3  582.04   21.40
   8   6  -3  579.44   20.90
  -8  -6   3  609.74   20.50
  -8  -6   3  546.45   19.60
  -8  -6   3  586.24   18.10
  -8  -6   3  571.14   20.50
  -8  -6   3  589.54   20.50
  -8  -6   3  551.14   20.20
   7   6  -3    3.80    5.20
   7   6  -3   18.50    7.70
   7   6  -3    5.60    5.90
   7   6  -3   10.80    6.70
   7   6  -3    7.20    6.00
   7   6  -3   18.90    6.50
  -7  -6   3    7.70    5.60
  -7  -6   3    9.80    5.90
  -7  -6   3    9.30    6.00
  -7  -6   3   -6.20    5.90
  -7  -6   3   20.50    6.10
  -7  -6   3    9.30    5.20
   6   6  -3   25.40    5.10
   6   6  -3   36.80    5.90
   6   6  -3   27.80    5.60
   6   6  -3   35.30    6.60
   6   6  -3   23.80    5.30
   6   6  -3   26.40    6.30
  -6  -6   3   22.30    4.80
  -6  -6   3   27.00    5.50
  -6  -6   3   26.80    5.60
  -6  -6   3   36.30    5.80
   5   6  -3    3.50    3.90
   5   6  -3    0.50    2.90
   5   6  -3    0.00    4.30
   5   6  -3   10.20    3.50
   5   6  -3    2.40    3.60
   5   6  -3   11.60    4.30
  -5  -6   3    3.10    2.80
  -5  -6   3    0.90    3.60
  -5  -6   3    2.80    4.40
  -5  -6   3    6.10    4.30
  -5  -6   3    3.60    3.40
   4   6  -3    7.60    3.30
   4   6  -3    6.90    3.50
   4   6  -3    7.00    2.50
   4   6  -3    7.50    3.00
   4   6  -3    5.70    3.40
   4   6  -3    4.00    3.70
  -4  -6   3   -0.10    3.10
  -4  -6   3    9.70    3.80
  -4  -6   3   12.20    3.90
  -4  -6   3    7.70    3.00
  -4  -6   3   12.00    3.70
   3   6  -3  233.28    8.20
   3   6  -3  216.98    8.40
   3   6  -3  213.68    8.90
   3   6  -3  218.08    8.00
   3   6  -3  212.38    6.30
   3   6  -3  230.78    8.80
  -3  -6   3  203.78    9.80
  -3  -6   3  217.68    8.00
  -3  -6   3  203.18   10.70
  -3  -6   3  228.28    8.20
  -3  -6   3  200.68    9.70
   2   6  -3  247.28    8.60
   2   6  -3  253.57    9.60
   2   6  -3  248.18    8.20
   2   6  -3  252.27    8.20
   2   6  -3  244.78    8.80
  -2  -6   3  249.58    9.00
  -2  -6   3  253.07    8.20
   1   6  -3    3.30    2.60
   1   6  -3   -1.60    2.40
   1   6  -3    3.40    2.20
   1   6  -3    1.80    2.00
   1   6  -3   -1.90    2.50
  -1  -6   3    1.00    2.00
  -1  -6   3    1.60    2.10
  -1  -6   3    2.60    3.30
  -1  -6   3    0.70    2.40
  -1  -6   3    5.30    2.80
   0   6  -3   18.60    3.90
   0   6  -3   20.20    3.00
   0   6  -3   22.30    3.50
   0   6  -3   17.70    3.60
   0   6  -3   21.40    3.00
   0  -6   3   21.20    4.00
   0  -6   3   19.00    3.70
   0  -6   3   22.40    3.30
   0  -6   3   19.10    3.60
   0  -6   3   22.10    2.90
  -1   6  -3  720.73   16.90
  -1   6  -3  721.13   16.60
  -1   6  -3  718.93   16.40
  -1   6  -3  727.33   16.90
   1  -6   3  724.23   16.60
   1  -6   3  692.63   20.10
   1  -6   3  752.52   16.90
   1  -6   3  720.53   18.70
   1  -6   3  744.83   16.10
   1  -6   3  740.13   16.40
  -2   6  -3   22.60    3.60
  -2   6  -3   22.10    3.50
  -2   6  -3   23.90    3.70
  -2   6  -3   19.40    3.40
   2  -6   3   23.10    3.50
   2  -6   3   25.70    3.80
   2  -6   3   17.80    5.10
   2  -6   3   28.70    5.00
  -3   6  -3   31.90    4.50
  -3   6  -3   37.00    4.40
  -3   6  -3   32.50    4.30
  -3   6  -3   30.50    4.20
   3  -6   3   34.70    4.80
   3  -6   3   44.70    6.10
   3  -6   3   39.70    7.20
  -4   6  -3   28.60    4.60
  -4   6  -3   35.00    4.40
  -4   6  -3   25.10    4.80
   4  -6   3   21.80    7.00
   4  -6   3   29.10    4.20
  -5   6  -3    2.90    4.90
  -5   6  -3   -3.90    3.90
  -5   6  -3    1.00    4.10
  -5   6  -3   -4.10    4.80
   5  -6   3   -3.90    4.50
  -6   6  -3    4.60    6.10
  -6   6  -3   13.50    6.50
  -6   6  -3    9.40    5.50
   6  -6   3    4.90    7.40
   6  -6   3    7.50    7.10
  -7   6  -3   13.30    8.50
   7  -6   3   11.50    8.10
   8  -6   3   24.80   10.30
  10   5  -3   22.20   12.40
  10   5  -3    8.10   12.10
 -10  -5   3   -3.30   13.20
 -10  -5   3    8.70   10.90
 -10  -5   3    8.20   12.50
   9   5  -3   29.50    9.00
   9   5  -3   25.50    9.90
   9   5  -3   27.30    9.90
  -9  -5   3    9.60    8.30
  -9  -5   3   24.10    7.00
  -9  -5   3   12.90    8.60
  -9  -5   3   26.60   10.00
   8   5  -3  805.42   24.00
   8   5  -3  785.72   24.90
   8   5  -3  790.02   23.90
   8   5  -3  782.12   23.20
   8   5  -3  827.52   24.00
   8   5  -3  773.92   24.10
  -8  -5   3  795.52   21.80
  -8  -5   3  775.92   23.40
  -8  -5   3  771.72   23.60
  -8  -5   3  750.12   23.40
  -8  -5   3  798.62   23.90
  -8  -5   3  812.22   23.40
   7   5  -3   23.30    6.70
   7   5  -3   15.10    5.30
   7   5  -3   13.70    6.30
   7   5  -3   33.40    7.10
   7   5  -3   18.50    5.70
   7   5  -3   29.80    6.90
  -7  -5   3   23.80    6.10
  -7  -5   3   20.50    6.20
  -7  -5   3   20.40    8.20
  -7  -5   3   21.40    6.10
  -7  -5   3   17.20    5.90
   6   5  -3   10.10    4.80
   6   5  -3   18.50    5.60
   6   5  -3    2.70    4.50
   6   5  -3   14.50    4.90
   6   5  -3   10.70    4.50
   6   5  -3   18.10    4.70
  -6  -5   3   18.50    5.10
  -6  -5   3   10.70    3.70
  -6  -5   3   11.40    4.20
  -6  -5   3   20.40    5.10
  -6  -5   3   10.60    4.60
  -6  -5   3   12.60    4.60
   5   5  -3    7.70    3.30
   5   5  -3    9.70    3.50
   5   5  -3    4.40    3.30
   5   5  -3    8.70    4.10
   5   5  -3    8.20    3.30
   5   5  -3    1.50    3.20
  -5  -5   3   10.20    3.40
  -5  -5   3   10.50    3.70
  -5  -5   3    5.30    6.60
  -5  -5   3    7.10    4.00
  -5  -5   3    5.50    2.90
  -5  -5   3    9.40    3.60
   4   5  -3    8.30    3.30
   4   5  -3   10.60    3.20
   4   5  -3   10.50    3.40
   4   5  -3   11.20    2.90
   4   5  -3   10.80    2.60
   4   5  -3   12.70    3.20
  -4  -5   3   12.20    3.60
  -4  -5   3   13.10    2.50
  -4  -5   3    7.10    4.10
  -4  -5   3    9.60    3.00
  -4  -5   3   13.90    3.00
  -4  -5   3    6.20    3.10
   3   5  -3  750.52   17.80
   3   5  -3  746.33   18.50
   3   5  -3  753.22   17.50
   3   5  -3  765.32   17.50
   3   5  -3  773.72   17.80
   3   5  -3  749.92   16.00
  -3  -5   3  766.12   19.10
  -3  -5   3  744.53   17.80
  -3  -5   3  719.13   17.10
  -3  -5   3  761.52   17.80
  -3  -5   3  758.92   17.50
   2   5  -3  597.94   14.50
   2   5  -3  613.94   14.20
   2   5  -3  618.24   14.70
   2   5  -3  593.64   14.10
   2   5  -3  610.64   15.60
  -2  -5   3  621.94   14.60
  -2  -5   3  628.44   14.70
  -2  -5   3  609.64   16.10
  -2  -5   3  618.74   14.20
  -2  -5   3  515.45   13.60
   1   5  -3 1197.28   24.70
   1   5  -3 1179.88   24.50
   1   5  -3 1191.88   24.20
   1   5  -3 1188.18   24.20
   1   5  -3 1171.18   26.20
  -1  -5   3 1181.08   24.10
  -1  -5   3 1166.88   23.90
  -1  -5   3 1191.18   24.60
  -1  -5   3 1201.08   24.50
   0   5  -3  103.79    4.70
   0   5  -3  104.59    4.40
   0   5  -3  108.19    4.40
   0   5  -3  110.89    6.00
   0   5  -3  107.99    4.80
   0  -5   3  105.49    4.50
   0  -5   3  106.69    4.30
   0  -5   3  102.59    4.70
   0  -5   3  110.39    4.80
   0  -5   3  104.39    5.60
  -1   5  -3  227.48    6.60
  -1   5  -3  214.48    6.60
  -1   5  -3  221.38    6.80
  -1   5  -3  221.58    6.90
   1  -5   3  228.68    6.80
   1  -5   3  211.98    9.20
   1  -5   3  216.18    8.30
  -2   5  -3  360.46    9.50
  -2   5  -3  363.06    9.40
  -2   5  -3  367.46    9.50
  -2   5  -3  354.56    9.30
   2  -5   3  366.26   11.50
   2  -5   3  332.17   12.70
  -3   5  -3  218.38    7.10
  -3   5  -3  201.58    7.20
  -3   5  -3  203.78    6.90
  -3   5  -3  207.38    6.20
  -3   5  -3  204.98    7.00
   3  -5   3  197.38   10.20
   3  -5   3  216.88    6.70
   3  -5   3  213.18    8.90
  -4   5  -3  489.75   13.00
  -4   5  -3  500.95   12.20
  -4   5  -3  501.75   12.50
   4  -5   3  502.35   17.90
   4  -5   3  500.95   13.30
  -5   5  -3   26.70    4.10
  -5   5  -3   25.30    3.60
  -5   5  -3   27.40    4.80
  -5   5  -3   19.20    3.80
  -5   5  -3   19.50    4.30
   5  -5   3   24.50    5.10
   5  -5   3   18.80    6.50
   5  -5   3   22.80    3.90
  -6   5  -3   12.10    4.40
  -6   5  -3    3.60    4.00
  -6   5  -3    1.60    5.00
  -6   5  -3    8.00    5.10
  -6   5  -3   13.80    4.60
   6  -5   3    0.90    5.60
   6  -5   3   -4.90    5.80
  -7   5  -3   -6.50    6.50
  -7   5  -3    1.20    5.40
  -7   5  -3   14.20    6.70
  -7   5  -3   15.50    7.40
   7  -5   3   10.90    7.40
   7  -5   3    6.10    6.80
   7  -5   3   21.60    8.40
  -8   5  -3  -11.40    9.10
  -8   5  -3    6.40    7.20
   8  -5   3   -6.50    8.20
  11   4  -3   -2.50    6.50
  10   4  -3    8.90   12.80
 -10  -4   3   10.60   10.30
 -10  -4   3  -15.70   19.10
   9   4  -3    1.10    9.40
   9   4  -3  -10.70    9.20
   9   4  -3    2.60    9.10
  -9  -4   3    4.40    7.60
  -9  -4   3   14.30    6.60
  -9  -4   3   13.40    8.00
  -9  -4   3   -8.30   13.50
  -9  -4   3   23.90    9.40
  -9  -4   3   14.60    9.60
   8   4  -3   15.60    7.50
   8   4  -3   15.70    6.70
   8   4  -3   19.30    7.00
   8   4  -3   17.30    7.60
   8   4  -3   15.80    6.80
   8   4  -3   25.50    7.90
  -8  -4   3   21.40    7.10
  -8  -4   3    4.30    7.10
  -8  -4   3    3.10    6.10
  -8  -4   3   21.60    7.20
  -8  -4   3   12.60   10.30
  -8  -4   3   15.00    5.70
   7   4  -3  113.29    9.90
   7   4  -3  126.39    9.50
   7   4  -3   79.19   14.30
   7   4  -3  118.59   11.10
   7   4  -3  120.59    9.90
   7   4  -3  106.29   10.20
  -7  -4   3  116.19    9.40
  -7  -4   3  123.39    9.60
  -7  -4   3  133.49    8.50
  -7  -4   3   97.69   10.70
  -7  -4   3  127.29   10.20
  -7  -4   3  113.99    9.80
   6   4  -3  636.64   18.80
   6   4  -3  662.93   18.10
   6   4  -3  631.14   17.70
   6   4  -3  628.04   17.90
   6   4  -3  672.43   18.40
   6   4  -3  627.34   18.00
  -6  -4   3  622.74   16.80
  -6  -4   3  648.14   17.80
  -6  -4   3  661.33   18.00
  -6  -4   3  653.53   18.30
  -6  -4   3  661.23   18.30
  -6  -4   3  634.04   18.20
   5   4  -3   -2.40    2.90
   5   4  -3   -3.30    2.80
   5   4  -3    2.90    3.60
   5   4  -3   -4.50    3.00
   5   4  -3    1.40    3.30
   5   4  -3    5.10    3.00
  -5  -4   3    0.60    2.70
  -5  -4   3    3.00    3.10
  -5  -4   3    2.00    3.60
  -5  -4   3   -3.00    2.40
  -5  -4   3    6.40    3.50
   4   4  -3   44.20    4.30
   4   4  -3   41.30    4.40
   4   4  -3   40.70    4.40
   4   4  -3   40.40    4.20
   4   4  -3   31.00    3.80
   4   4  -3   39.50    4.50
  -4  -4   3   49.99    4.60
  -4  -4   3   40.40    4.10
  -4  -4   3   40.80    4.30
  -4  -4   3   40.80    3.70
  -4  -4   3   39.00    4.60
  -4  -4   3   36.70    4.70
   3   4  -3   24.00    3.40
   3   4  -3   27.20    3.40
   3   4  -3   26.10    3.30
   3   4  -3   22.10    2.70
   3   4  -3   27.70    3.30
   3   4  -3   29.00    3.30
  -3  -4   3   21.50    2.60
  -3  -4   3   24.50    3.10
  -3  -4   3   23.90    3.50
  -3  -4   3   25.90    3.10
  -3  -4   3   28.10    3.50
  -3  -4   3   31.80    3.60
   2   4  -3  266.77    8.70
   2   4  -3  283.47    8.20
   2   4  -3  279.57    7.90
   2   4  -3  287.27    8.10
   2   4  -3  281.37    7.90
   2   4  -3  279.47    6.80
  -2  -4   3  281.87    8.10
  -2  -4   3  276.27    7.90
  -2  -4   3  280.17    7.80
  -2  -4   3  293.67    8.10
  -2  -4   3  285.37    9.10
   1   4  -3   23.20    3.10
   1   4  -3   25.30    2.80
   1   4  -3   22.00    2.30
   1   4  -3   22.10    2.30
   1   4  -3   22.70    2.60
  -1  -4   3   22.20    2.50
  -1  -4   3   28.30    2.70
  -1  -4   3   24.50    2.50
  -1  -4   3   29.40    2.50
   0   4  -3   18.10    2.10
   0   4  -3   16.50    2.70
   0   4  -3   17.00    2.10
   0   4  -3   16.20    2.30
   0   4  -3   19.00    2.30
   0  -4   3   18.10    2.40
   0  -4   3   18.50    2.20
   0  -4   3   18.20    3.00
   0  -4   3   18.40    2.00
   0  -4   3   19.90    2.30
  -1   4  -3  194.58    5.30
  -1   4  -3  185.38    5.60
  -1   4  -3  192.78    5.70
   1  -4   3  185.48    7.10
   1  -4   3  188.08    7.90
  -2   4  -3    6.80    1.40
  -2   4  -3    9.50    1.90
   2  -4   3    4.30    2.90
   2  -4   3    5.60    2.70
  -3   4  -3   19.30    2.30
   3  -4   3   19.50    2.90
   3  -4   3   19.10    4.90
   3  -4   3   24.80    4.20
  -4   4  -3  251.47    8.20
  -4   4  -3  254.27    7.50
  -4   4  -3  257.97    8.00
  -4   4  -3  260.37    7.70
  -4   4  -3  263.17    8.10
   4  -4   3  255.27   11.60
   4  -4   3  265.77    8.90
   4  -4   3  272.97    7.50
  -5   4  -3   16.30    4.70
  -5   4  -3   21.70    3.50
  -5   4  -3   31.00    4.10
  -5   4  -3   28.60    3.70
  -5   4  -3   18.40    3.80
   5  -4   3   23.70    4.50
   5  -4   3   27.30    3.80
   5  -4   3   24.50    6.80
  -6   4  -3   80.79    7.00
  -6   4  -3   56.79    8.30
  -6   4  -3   78.49    6.20
  -6   4  -3   86.79    6.10
  -6   4  -3   74.09    5.90
   6  -4   3   74.09    9.60
   6  -4   3   89.69    8.00
  -7   4  -3   -2.80    4.40
  -7   4  -3   -2.60    5.50
  -7   4  -3   -2.30    4.60
  -7   4  -3   -3.50    5.40
  -7   4  -3   -3.50    4.60
   7  -4   3   -0.30    6.10
   7  -4   3    1.40    6.30
  -8   4  -3   17.40    7.70
  -8   4  -3    7.20    6.00
  -8   4  -3  -15.30    7.40
   8  -4   3   -9.80    9.50
   8  -4   3   10.50    8.20
  -9   4  -3   27.00    9.80
   9  -4   3   25.60   10.40
  11   3  -3    5.60    7.30
  10   3  -3  -20.20   13.50
  10   3  -3    6.80    5.70
 -10  -3   3    1.60   11.60
   9   3  -3   24.30    9.40
   9   3  -3   22.20    9.60
   9   3  -3   17.90    9.30
  -9  -3   3   12.60    8.70
  -9  -3   3   15.50    8.40
  -9  -3   3   14.40    8.80
  -9  -3   3   18.80    7.20
  -9  -3   3   16.60    9.80
   8   3  -3   -8.60    6.80
   8   3  -3    9.80    6.30
   8   3  -3    0.90    6.70
  -8  -3   3    1.10    6.40
  -8  -3   3    5.70    5.80
  -8  -3   3   -4.20    4.80
  -8  -3   3   -4.50    5.90
  -8  -3   3    4.80    7.80
  -8  -3   3    1.30    6.60
   7   3  -3   51.79    7.30
   7   3  -3   57.09    8.30
   7   3  -3   57.89    8.30
   7   3  -3   50.69    8.80
   7   3  -3   53.99    7.00
   7   3  -3   54.39    7.10
  -7  -3   3   48.40    6.30
  -7  -3   3   49.60    9.50
  -7  -3   3   57.79    8.10
  -7  -3   3   52.49    7.40
  -7  -3   3   55.79    7.40
  -7  -3   3   50.49    6.80
   6   3  -3  931.51   24.60
   6   3  -3  979.50   23.50
   6   3  -3  968.70   23.20
   6   3  -3  969.40   23.20
   6   3  -3  886.11   23.20
  -6  -3   3  919.41   23.50
  -6  -3   3  994.90   23.30
  -6  -3   3  966.40   22.60
  -6  -3   3  920.21   23.10
  -6  -3   3 1000.20   23.10
  -6  -3   3  918.51   23.00
   5   3  -3  109.69    6.90
   5   3  -3  115.39    6.80
   5   3  -3  112.19    6.80
   5   3  -3  103.59    6.60
   5   3  -3  114.39    7.10
   5   3  -3  121.99    6.70
  -5  -3   3  120.19    6.70
  -5  -3   3  117.89    6.60
  -5  -3   3  106.69    7.10
  -5  -3   3  110.39    6.60
  -5  -3   3  120.69    6.80
  -5  -3   3  107.69    6.10
   4   3  -3   59.19    4.50
   4   3  -3   56.09    4.50
   4   3  -3   65.29    4.70
   4   3  -3   63.09    4.70
   4   3  -3   54.19    4.50
   4   3  -3   56.39    4.80
  -4  -3   3   45.30    4.10
  -4  -3   3   61.49    4.60
  -4  -3   3   66.79    5.00
  -4  -3   3   62.89    4.60
  -4  -3   3   65.79    4.80
  -4  -3   3   59.99    4.80
   3   3  -3  390.06   10.30
   3   3  -3  399.56   10.40
   3   3  -3  388.96   10.20
   3   3  -3  375.76   10.70
   3   3  -3  379.46    9.70
   3   3  -3  390.86   10.30
  -3  -3   3  403.06   10.90
  -3  -3   3  392.46   10.30
  -3  -3   3  383.46   10.10
  -3  -3   3  394.46   10.20
  -3  -3   3  379.66    9.70
  -3  -3   3  391.36   10.20
   2   3  -3   29.90    3.00
   2   3  -3   33.10    2.80
   2   3  -3   31.90    2.20
   2   3  -3   33.40    2.70
   2   3  -3   28.40    2.70
   2   3  -3   29.80    2.60
  -2  -3   3   31.20    2.70
  -2  -3   3   30.20    2.70
  -2  -3   3   35.10    2.70
  -2  -3   3   30.20    2.70
  -2  -3   3   31.00    3.00
   1   3  -3  144.89    4.50
   1   3  -3  154.88    4.70
   1   3  -3  148.29    4.70
   1   3  -3  147.69    4.00
   1   3  -3  149.49    4.70
   1   3  -3  151.48    5.50
  -1  -3   3  150.28    5.70
  -1  -3   3  157.68    4.70
  -1  -3   3  151.08    3.90
  -1  -3   3  146.09    4.50
  -1  -3   3  145.89    4.60
   0   3  -3  911.11   17.90
   0   3  -3  934.81   18.00
   0   3  -3  923.81   18.20
   0   3  -3  933.91   18.20
   0   3  -3  920.51   19.90
   0  -3   3  929.21   18.10
   0  -3   3  924.81   17.80
   0  -3   3  937.51   20.10
   0  -3   3  919.41   18.10
   0  -3   3  949.21   18.40
  -1   3  -3  147.79    5.80
   1  -3   3  148.89    5.80
   1  -3   3  151.78    6.40
  -2   3  -3  200.48    5.50
   2  -3   3  214.48    7.40
   2  -3   3  204.38    8.20
  -3   3  -3  381.16    9.30
   3  -3   3  370.86   10.90
   3  -3   3  369.86   12.40
   3  -3   3  371.66    9.80
  -4   3  -3   42.30    3.00
  -4   3  -3   38.40    3.50
  -4   3  -3   45.70    3.50
  -4   3  -3   37.80    3.10
   4  -3   3   50.69    7.00
   4  -3   3   39.80    4.10
  -5   3  -3  239.48    8.10
  -5   3  -3  248.88    8.50
  -5   3  -3  255.37    8.20
  -5   3  -3  245.78    7.70
  -5   3  -3  246.48    7.40
   5  -3   3  253.77    7.60
   5  -3   3  245.68    9.50
   5  -3   3  253.77   11.70
   5  -3   3  216.98    8.20
  -6   3  -3  985.90   21.20
  -6   3  -3  968.30   22.00
  -6   3  -3  935.71   21.80
  -6   3  -3  971.00   22.20
  -6   3  -3  954.00   20.90
   6  -3   3  957.00   20.80
   6  -3   3  943.01   21.80
   6  -3   3  963.80   23.80
   6  -3   3  884.21   26.70
  -7   3  -3   51.69    7.40
  -7   3  -3   57.19    6.90
  -7   3  -3   63.19    6.90
  -7   3  -3   51.59    6.60
  -7   3  -3   56.29    6.30
   7  -3   3   51.29    7.00
   7  -3   3   66.99   16.00
   7  -3   3   50.79    7.40
   7  -3   3   69.59    8.30
   7  -3   3   49.80    6.80
   7  -3   3   58.79    8.20
  -8   3  -3    4.30    5.50
  -8   3  -3   17.30    6.20
  -8   3  -3    4.70    6.20
  -8   3  -3    5.20    5.10
  -8   3  -3   18.00    6.30
  -8   3  -3   -1.60    9.10
   8  -3   3   17.60    7.50
   8  -3   3    6.00    7.80
   8  -3   3    4.30    7.20
   8  -3   3   10.60    7.70
   8  -3   3    6.90    6.90
  -9   3  -3   -3.40    6.80
  -9   3  -3   -4.90    8.50
   9  -3   3   21.10    8.50
  10  -3   3   -7.90    9.60
  11   2  -3    4.80    8.60
  10   2  -3    1.60    6.90
  10   2  -3   11.50   14.00
 -10  -2   3   16.30   11.90
   9   2  -3   32.50   10.80
   9   2  -3    8.10    6.60
   9   2  -3   30.70   11.00
  -9  -2   3   25.30    7.50
  -9  -2   3    0.40    8.60
  -9  -2   3   -4.80    8.90
  -9  -2   3   14.80    8.60
  -9  -2   3   -1.30    9.20
   8   2  -3  -12.50    7.40
   8   2  -3   -3.00    6.90
   8   2  -3  -12.50    6.40
   8   2  -3   -7.00    7.40
   8   2  -3   -5.30    6.90
  -8  -2   3    6.80    6.30
  -8  -2   3   -1.70    6.30
  -8  -2   3    9.40    5.10
  -8  -2   3   -1.20    6.10
  -8  -2   3   -0.70    6.50
  -8  -2   3    2.50    6.80
   7   2  -3   16.30    5.70
   7   2  -3   20.20    5.60
   7   2  -3    2.60    5.00
  -7  -2   3   16.80    5.40
  -7  -2   3   10.00    5.10
  -7  -2   3   14.70    4.70
  -7  -2   3   17.40    5.70
  -7  -2   3   15.40    5.40
  -7  -2   3   10.90    5.10
   6   2  -3    6.00    4.40
   6   2  -3   -3.90    4.10
   6   2  -3    5.50    4.20
   6   2  -3    5.80    4.00
  -6  -2   3    7.60    4.10
  -6  -2   3    4.40    3.60
  -6  -2   3    5.00    3.90
  -6  -2   3    6.50    3.70
  -6  -2   3    6.60    4.20
   5   2  -3   53.39    5.20
   5   2  -3   44.30    5.90
   5   2  -3   37.90    5.60
   5   2  -3   37.20    5.10
   5   2  -3   47.60    5.40
   5   2  -3   47.40    5.40
  -5  -2   3   50.09    5.50
  -5  -2   3   43.10    4.90
  -5  -2   3   47.70    5.70
  -5  -2   3   59.09    5.40
  -5  -2   3   38.80    4.70
  -5  -2   3   52.39    4.60
   4   2  -3  126.59    5.90
   4   2  -3  115.69    6.20
   4   2  -3  123.79    6.50
   4   2  -3  114.69    5.80
   4   2  -3  117.69    6.00
   4   2  -3  123.19    5.80
  -4  -2   3  127.59    6.30
  -4  -2   3  121.39    5.80
  -4  -2   3  122.49    5.70
  -4  -2   3  113.09    5.60
  -4  -2   3  126.69    6.00
  -4  -2   3  132.39    5.90
   3   2  -3  519.95   13.30
   3   2  -3  529.15   12.70
   3   2  -3  507.85   12.70
   3   2  -3  523.55   12.50
   3   2  -3  517.45   12.30
   3   2  -3  524.45   12.70
  -3  -2   3  540.25   12.70
  -3  -2   3  536.55   12.60
  -3  -2   3  508.45   12.30
  -3  -2   3  524.25   13.10
  -3  -2   3  515.25   12.50
  -3  -2   3  519.65   12.50
   2   2  -3   -0.40    1.20
   2   2  -3    1.00    1.20
   2   2  -3    0.30    1.20
   2   2  -3    4.40    1.50
   2   2  -3   -0.60    1.20
   2   2  -3   -0.80    1.10
  -2  -2   3    1.10    1.20
  -2  -2   3    0.30    1.30
  -2  -2   3   -1.40    1.20
  -2  -2   3   -0.50    1.20
  -2  -2   3    1.60    1.30
   1   2  -3  719.03   14.80
   1   2  -3  723.03   15.70
   1   2  -3  704.43   14.80
   1   2  -3  737.43   14.60
   1   2  -3  728.23   14.80
   1   2  -3  717.13   14.70
  -1  -2   3  780.72   14.00
  -1  -2   3  732.33   14.80
  -1  -2   3  733.63   15.80
  -1  -2   3  720.33   14.80
  -1  -2   3  722.83   14.80
   0   2  -3    3.70    1.00
   0   2  -3    4.10    0.90
   0   2  -3    3.30    1.10
   0   2  -3    4.20    1.00
   0   2  -3    4.10    1.00
   0  -2   3    3.80    0.90
   0  -2   3    3.80    0.90
   0  -2   3    3.90    1.30
   0  -2   3    3.20    1.30
   0  -2   3    2.80    1.40
  -1   2  -3   28.50    2.30
  -1   2  -3   31.60    3.10
   1  -2   3   29.10    2.60
   1  -2   3   28.30    2.30
   1  -2   3   32.60    3.20
  -2   2  -3  700.83   14.70
   2  -2   3  708.73   15.30
   2  -2   3  698.43   16.20
   2  -2   3  699.63   16.80
  -3   2  -3  227.28    6.60
   3  -2   3  231.48    7.10
   3  -2   3  227.98    7.30
   3  -2   3  229.78    8.70
  -4   2  -3  124.39    4.50
  -4   2  -3  121.69    4.20
  -4   2  -3  124.09    5.20
  -4   2  -3  125.99    4.30
  -4   2  -3  128.99    4.50
   4  -2   3  118.99    7.10
   4  -2   3  127.99    5.70
  -5   2  -3   28.40    3.60
  -5   2  -3   32.40    3.50
  -5   2  -3   32.60    3.40
  -5   2  -3   25.90    3.10
  -5   2  -3   30.90    3.60
   5  -2   3   31.60    4.30
   5  -2   3   30.20    3.30
   5  -2   3   29.10    3.80
   5  -2   3   40.20    4.60
   5  -2   3   35.60    6.20
  -6   2  -3  308.17    9.90
  -6   2  -3  302.27   10.30
  -6   2  -3  313.07    9.80
  -6   2  -3  306.57    9.30
  -6   2  -3  309.07    9.20
   6  -2   3  302.77    9.30
   6  -2   3  283.17   13.00
   6  -2   3  316.67   11.70
   6  -2   3  308.67   10.00
   6  -2   3  325.17    9.30
   6  -2   3  317.37   10.00
  -7   2  -3   74.19    8.90
  -7   2  -3   94.39    6.50
  -7   2  -3   86.59    7.40
  -7   2  -3   99.39    6.70
  -7   2  -3   89.99    8.80
   7  -2   3   89.19    9.50
   7  -2   3  108.09    7.10
   7  -2   3   97.89    8.10
   7  -2   3   78.39    8.00
  -8   2  -3   15.10    5.40
  -8   2  -3   25.40    8.20
  -8   2  -3   24.20    5.60
  -8   2  -3   18.50    5.70
  -8   2  -3   19.10    5.20
  -8   2  -3   19.70    5.10
   8  -2   3   18.60    6.80
   8  -2   3   23.10    6.30
   8  -2   3   29.70    6.70
   8  -2   3   20.70    6.20
   8  -2   3   17.40    6.80
   8  -2   3   20.80    7.20
  -9   2  -3    8.00    7.30
  -9   2  -3    8.00   10.80
  -9   2  -3    5.00    6.40
  -9   2  -3    9.10    7.30
   9  -2   3   -2.40    6.90
  10  -2   3   30.70   10.50
  10   1  -3    7.80    8.00
  10   1  -3   22.80   15.90
   9   1  -3    7.30    7.00
   9   1  -3    5.20   11.90
   9   1  -3   26.40   11.30
  -9  -1   3   -5.40    9.20
  -9  -1   3   14.70    8.50
  -9  -1   3    3.90    8.40
  -9  -1   3   26.50   10.20
  -9  -1   3   16.30   10.20
   8   1  -3   32.10    8.80
   8   1  -3   47.30    9.40
   8   1  -3   46.90    8.30
   8   1  -3   45.30    9.60
   8   1  -3   42.00    8.30
   8   1  -3   50.39    8.30
  -8  -1   3   36.30    6.50
  -8  -1   3   42.40    8.20
  -8  -1   3   45.40    8.00
  -8  -1   3   50.19    9.10
  -8  -1   3   52.29    8.50
   7   1  -3    0.40    6.10
   7   1  -3    8.80    5.90
   7   1  -3    1.60    5.90
   7   1  -3    1.80    5.10
  -7  -1   3    6.30    6.00
  -7  -1   3    9.00    5.30
  -7  -1   3    5.90    5.10
  -7  -1   3    4.30    4.30
  -7  -1   3    3.60    5.80
  -7  -1   3   13.50    5.40
   6   1  -3    5.80    4.30
   6   1  -3   -0.40    3.80
   6   1  -3    2.80    3.70
   6   1  -3    8.80    4.20
  -6  -1   3    7.70    4.00
  -6  -1   3    2.10    3.50
  -6  -1   3   -1.30    4.20
  -6  -1   3    8.00    3.70
  -6  -1   3    6.60    4.30
  -6  -1   3   -5.20    3.80
   5   1  -3    0.60    3.40
   5   1  -3    0.30    2.80
   5   1  -3    0.30    3.30
  -5  -1   3   -5.30    2.80
  -5  -1   3    1.00    2.70
  -5  -1   3    1.20    2.40
  -5  -1   3   -2.70    3.00
  -5  -1   3    4.10    2.70
   4   1  -3   44.70    4.30
   4   1  -3   43.60    4.10
   4   1  -3   44.30    4.90
   4   1  -3   43.40    4.10
  -4  -1   3   42.10    4.10
  -4  -1   3   45.10    4.30
  -4  -1   3   35.60    4.30
  -4  -1   3   46.10    4.50
  -4  -1   3   42.10    3.80
  -4  -1   3   45.50    4.30
   3   1  -3  109.09    4.90
   3   1  -3  110.09    4.80
   3   1  -3  100.49    4.60
   3   1  -3   88.19    5.20
   3   1  -3  112.39    5.50
   3   1  -3   95.69    5.00
  -3  -1   3  110.49    5.00
  -3  -1   3  115.59    5.20
  -3  -1   3  104.59    4.90
  -3  -1   3  108.89    4.80
  -3  -1   3  106.69    4.80
  -3  -1   3  109.29    4.70
   2   1  -3  295.17    7.60
   2   1  -3  290.57    7.90
   2   1  -3  291.47    7.60
   2   1  -3  291.07    7.60
   2   1  -3  277.07    8.10
   2   1  -3  290.97    7.80
  -2  -1   3  291.27    7.70
  -2  -1   3  283.57    8.00
  -2  -1   3  282.07    7.60
  -2  -1   3  292.07    7.70
  -2  -1   3  290.27    7.70
   1   1  -3  801.42   16.30
   1   1  -3  818.72   16.30
   1   1  -3  826.02   17.00
   1   1  -3  794.22   16.50
   1   1  -3  814.12   16.50
  -1  -1   3  837.52   16.40
  -1  -1   3  821.72   16.40
  -1  -1   3  792.32   16.30
  -1  -1   3  840.32   17.00
  -1  -1   3  821.92   16.50
   0   1  -3  243.88    5.40
   0   1  -3  239.08    6.10
   0   1  -3  230.08    5.40
   0   1  -3  229.48    5.40
   0   1  -3  258.47    6.50
   0  -1   3  241.28    6.10
   0  -1   3  267.27    5.70
   0  -1   3  234.38    5.40
   0  -1   3  244.78    6.60
   0  -1   3  237.88    5.30
   0  -1   3  239.68    5.50
  -1   1  -3 5269.87   94.89
   1  -1   3 5140.89   94.89
  -2   1  -3  155.88    5.70
  -2   1  -3  152.18    4.90
   2  -1   3  161.68    5.10
   2  -1   3  162.88    5.70
   2  -1   3  155.38    5.90
  -3   1  -3    7.50    1.80
   3  -1   3    7.80    1.90
   3  -1   3    7.90    2.40
   3  -1   3    4.20    2.00
  -4   1  -3    2.30    1.40
  -4   1  -3    1.90    1.70
  -4   1  -3    2.00    1.20
  -4   1  -3    1.80    1.30
  -4   1  -3    1.70    1.20
   4  -1   3    0.90    1.40
   4  -1   3    0.50    1.80
   4  -1   3   -1.70    2.50
   4  -1   3    2.10    2.20
   4  -1   3    2.60    1.40
  -5   1  -3   -0.90    1.50
  -5   1  -3    1.40    1.80
  -5   1  -3   -0.30    1.60
  -5   1  -3    2.40    1.80
  -5   1  -3    0.40    1.90
   5  -1   3    2.00    2.00
   5  -1   3    7.20    3.50
   5  -1   3    0.40    1.90
   5  -1   3    1.60    2.00
   5  -1   3    3.40    2.90
   5  -1   3    4.20    2.10
  -6   1  -3  137.99    7.00
  -6   1  -3  143.09    5.90
  -6   1  -3  132.89    6.20
  -6   1  -3  138.39    6.20
  -6   1  -3  126.79    5.80
   6  -1   3  132.19    7.50
   6  -1   3  141.79    6.40
   6  -1   3  137.09    6.80
   6  -1   3  128.19    8.60
   6  -1   3  144.19    6.10
   6  -1   3  148.09    8.10
  -7   1  -3  474.85   12.80
  -7   1  -3  460.55   13.40
  -7   1  -3  458.45   13.30
  -7   1  -3  455.65   14.30
  -7   1  -3  377.86   16.70
  -7   1  -3  488.45   15.60
   7  -1   3  455.35   17.10
   7  -1   3  417.96   12.60
   7  -1   3  466.15   13.70
   7  -1   3  465.25   13.00
   7  -1   3  471.05   13.60
  -8   1  -3  104.39    7.80
  -8   1  -3   95.49    8.00
  -8   1  -3   91.29    8.50
  -8   1  -3   97.69    9.90
  -8   1  -3   99.99    8.10
   8  -1   3  115.89   13.00
   8  -1   3  103.99   10.40
   8  -1   3   98.79    9.60
   8  -1   3  118.29    9.00
   8  -1   3   94.59    8.20
   8  -1   3  104.59    9.40
  -9   1  -3    2.30    6.00
  -9   1  -3    5.80    6.30
  -9   1  -3    7.60    5.90
  -9   1  -3    0.30    6.10
  -9   1  -3  -15.80    8.20
   9  -1   3    0.40    8.30
   9  -1   3   -8.00    6.80
   9  -1   3   18.10    8.50
   9  -1   3   -6.30    8.40
 -10   1  -3    4.50    8.50
 -10   1  -3    5.30    9.10
  10  -1   3   -3.70    6.30
  11  -1   3    8.40    9.60
  10   0  -3   29.80    9.20
   9   0  -3   63.29   13.20
   9   0  -3   50.19   10.00
  -9   0   3   60.19   11.00
  -9   0   3   45.10   11.70
  -9   0   3   67.09   11.60
   8   0  -3    6.40    9.10
   8   0  -3   22.00    9.20
   8   0  -3   11.50    7.70
  -8   0   3    9.20    7.30
  -8   0   3   18.10    6.10
  -8   0   3   22.00    7.50
  -8   0   3    9.50    8.90
  -8   0   3    3.30    8.20
  -8   0   3    2.10    7.30
   7   0  -3   32.90    6.40
   7   0  -3   32.00    6.40
   7   0  -3   25.60    7.10
   7   0  -3   27.40    7.90
   7   0  -3   45.80    6.90
   7   0  -3   25.40    6.00
  -7   0   3   44.70    6.60
  -7   0   3   37.80    5.70
  -7   0   3   27.30    6.40
  -7   0   3   37.50    6.90
  -7   0   3   35.10    7.00
  -7   0   3   39.60    7.10
   6   0  -3   16.60    5.20
   6   0  -3   15.50    4.80
   6   0  -3   23.10    5.00
   6   0  -3   21.60    5.30
   6   0  -3   25.80    5.20
  -6   0   3   24.60    4.60
  -6   0   3   16.70    5.50
  -6   0   3   26.70    5.60
  -6   0   3   19.70    5.60
  -6   0   3   29.60    5.60
  -6   0   3   20.60    6.00
   5   0  -3   -2.50    2.90
   5   0  -3   -0.70    3.50
   5   0  -3   -0.20    3.10
   5   0  -3    2.20    3.10
   5   0  -3    1.30    3.50
  -5   0   3    0.30    2.40
  -5   0   3    1.40    3.70
  -5   0   3    2.60    2.90
  -5   0   3    0.00    2.80
  -5   0   3    1.20    3.00
  -5   0   3    0.00    3.50
   4   0  -3  114.19    5.80
   4   0  -3  121.99    5.90
   4   0  -3  105.89    5.90
   4   0  -3  117.29    6.60
  -4   0   3  118.79    6.10
  -4   0   3  131.39    5.70
  -4   0   3  117.39    5.90
  -4   0   3  124.59    6.20
  -4   0   3  116.69    6.60
  -4   0   3  127.49    6.30
   3   0  -3  919.71   20.50
   3   0  -3  900.01   20.20
   3   0  -3  918.01   19.70
   3   0  -3  919.11   19.90
  -3   0   3  929.01   20.00
  -3   0   3  904.01   20.10
  -3   0   3  920.91   20.10
  -3   0   3  894.91   20.60
  -3   0   3  907.41   20.00
   2   0  -3    0.30    1.40
   2   0  -3    1.80    1.30
   2   0  -3   -1.00    1.50
   2   0  -3    0.80    1.40
   2   0  -3    0.70    1.10
   2   0  -3   -0.60    1.20
  -2   0   3    0.00    1.40
  -2   0   3   -2.40    1.20
  -2   0   3   -0.70    1.30
  -2   0   3    0.80    1.40
  -2   0   3    0.30    1.30
   1   0  -3  411.36    9.60
   1   0  -3  416.76   10.20
   1   0  -3  421.06   10.00
   1   0  -3  420.26    9.90
   1   0  -3  426.16    9.70
  -1   0   3  424.16    9.90
  -1   0   3  431.46    9.90
  -1   0   3  443.06   10.10
  -1   0   3  424.36    9.70
  -1   0   3  436.46    9.90
  -1   0   3  423.46    9.30
   0   0  -3 2643.64   44.40
   0   0  -3 2379.16   44.90
   0   0  -3 2429.76   44.90
   0   0  -3 2592.34   45.20
   0   0  -3 2415.76   45.00
   0   0  -3 2402.46   45.10
   0   0  -3 2405.16   44.80
   0   0   3 2399.96   44.80
   0   0   3 2408.46   45.00
   0   0   3 2449.95   44.90
   0   0   3 2366.86   44.90
   0   0   3 2416.66   45.20
  -1   0  -3  608.94   12.20
  -1   0  -3  668.93   13.50
  -1   0  -3  610.04   12.00
  -1   0  -3  613.24   12.20
  -1   0  -3  605.24   12.20
  -1   0  -3  618.34   12.20
   1   0   3  649.54   12.80
   1   0   3  606.64   12.10
   1   0   3  668.63   12.80
   1   0   3  615.54   12.20
   1   0   3  615.94   13.50
   1   0   3  605.84   12.00
   1   0   3  596.54   12.10
  -2   0  -3 2179.28   40.70
  -2   0  -3 2031.70   40.00
   2   0   3 2126.49   39.70
   2   0   3 2134.89   40.60
  -3   0  -3 1366.36   25.90
  -3   0  -3 1339.37   26.00
  -3   0  -3 1407.76   27.90
  -3   0  -3 1373.76   25.90
  -3   0  -3 1377.16   26.10
   3   0   3 1449.65   28.50
   3   0   3 1379.26   26.10
   3   0   3 1412.06   27.50
  -4   0  -3 1050.99   20.80
  -4   0  -3 1058.79   22.50
  -4   0  -3 1023.60   20.80
  -4   0  -3 1027.00   21.10
  -4   0  -3 1064.59   20.80
   4   0   3 1075.29   20.90
   4   0   3 1049.49   22.80
   4   0   3 1072.69   22.40
   4   0   3 1071.29   20.90
   4   0   3 1079.29   23.80
   4   0   3 1064.89   20.80
  -5   0  -3  326.77    8.30
  -5   0  -3  316.67    8.90
  -5   0  -3  306.77    9.50
  -5   0  -3  311.27    8.20
  -5   0  -3  310.87    8.30
  -5   0  -3  307.97    9.10
   5   0   3  296.47    9.40
   5   0   3  304.67    8.40
   5   0   3  306.57    8.30
   5   0   3  290.37   10.70
   5   0   3  316.87   10.10
   5   0   3  313.37    8.30
   5   0   3  308.87    8.20
  -6   0  -3   45.90    4.10
  -6   0  -3   50.29    4.90
  -6   0  -3   49.40    4.10
  -6   0  -3   51.09    4.30
  -6   0  -3   50.89    4.90
  -6   0  -3   47.10    4.10
   6   0   3   52.79    4.80
   6   0   3   53.69    5.90
   6   0   3   47.90    4.50
   6   0   3   39.90    6.00
  -7   0  -3    3.00    3.30
  -7   0  -3    2.60    3.30
  -7   0  -3   -0.20    3.20
  -7   0  -3    5.20    3.90
  -7   0  -3    3.20    3.40
   7   0   3    6.50    3.60
   7   0   3    6.00    3.30
   7   0   3   -2.70    3.70
   7   0   3    0.20    4.20
   7   0   3   -2.10    3.50
  -8   0  -3   73.99    7.30
  -8   0  -3   79.69    7.20
  -8   0  -3   78.09    7.20
  -8   0  -3  100.19    8.70
  -8   0  -3   80.19    7.90
  -8   0  -3   86.29    7.70
   8   0   3   82.89    7.70
   8   0   3   72.59    8.50
   8   0   3   73.09    8.60
   8   0   3   73.99    7.40
   8   0   3   71.49    8.40
  -9   0  -3  115.19   10.10
  -9   0  -3   92.89    9.40
  -9   0  -3  105.39   11.10
  -9   0  -3  114.19    9.70
  -9   0  -3   83.79    9.30
  -9   0  -3   74.99    9.50
   9   0   3   95.79   10.70
   9   0   3   81.69   11.10
   9   0   3   83.09   11.80
   9   0   3   85.59   10.30
   9   0   3   96.09   12.30
 -10   0  -3    4.40    7.70
 -10   0  -3   18.90    8.50
 -10   0  -3   19.70    8.20
 -10   0  -3   -5.40    9.30
  10   0   3    9.00    7.40
  11   0   3    1.00    9.60
  10  -1  -3  -16.40    9.90
   9  -1  -3   33.30   10.20
   9  -1  -3   36.40   14.70
  -9   1   3   25.80   15.60
   8  -1  -3   61.39   11.90
   8  -1  -3   35.20    8.30
   8  -1  -3   62.09   12.00
  -8   1   3   24.30    8.80
  -8   1   3   45.90    9.70
  -8   1   3   50.79    9.40
  -8   1   3   53.19   10.10
   7  -1  -3   59.19    9.80
   7  -1  -3   41.20    7.40
   7  -1  -3   43.70    7.40
   7  -1  -3   42.10    7.90
   7  -1  -3   53.99    9.30
   7  -1  -3   52.39    7.80
  -7   1   3   54.69    8.70
  -7   1   3   39.60    7.30
  -7   1   3   46.50    7.40
  -7   1   3   54.19    8.30
  -7   1   3   46.30    7.80
   6  -1  -3  243.38   11.70
   6  -1  -3  260.17   12.70
   6  -1  -3  259.27   11.00
   6  -1  -3  287.67   12.90
  -6   1   3  255.77   12.00
  -6   1   3  258.67   11.40
  -6   1   3  257.67   12.70
  -6   1   3  242.08   11.60
  -6   1   3  270.17   11.90
   5  -1  -3    4.70    3.80
   5  -1  -3    1.80    3.60
   5  -1  -3    2.40    4.40
   5  -1  -3    1.80    3.60
   5  -1  -3    9.00    4.60
   5  -1  -3    0.70    3.60
  -5   1   3    5.20    3.90
  -5   1   3    9.90    3.90
  -5   1   3    9.00    4.40
  -5   1   3    3.40    4.20
  -5   1   3    1.40    3.40
   4  -1  -3  249.78    9.10
   4  -1  -3  270.77   10.10
   4  -1  -3  265.67    9.80
   4  -1  -3  273.17    9.30
   4  -1  -3  262.17    9.20
   4  -1  -3  267.87    9.10
  -4   1   3  259.37   10.20
  -4   1   3  277.27    9.40
  -4   1   3  264.37    9.50
  -4   1   3  274.27    9.50
  -4   1   3  246.88    9.20
   3  -1  -3  822.62   18.40
   3  -1  -3  811.62   19.30
   3  -1  -3  829.12   18.60
   3  -1  -3  828.02   19.10
   3  -1  -3  803.32   18.30
   3  -1  -3  843.02   18.60
  -3   1   3  804.02   18.80
  -3   1   3  814.92   18.70
  -3   1   3  812.32   19.60
  -3   1   3  815.72   19.00
  -3   1   3  823.02   18.80
   2  -1  -3 1641.04   32.40
   2  -1  -3 1643.14   32.90
   2  -1  -3 1653.33   32.50
   2  -1  -3 1656.33   32.20
   2  -1  -3 1614.94   33.10
  -2   1   3 1625.64   33.30
  -2   1   3 1648.04   32.80
  -2   1   3 1622.54   32.80
   1  -1  -3 1455.95   28.40
   1  -1  -3 1440.66   28.50
   1  -1  -3 1448.36   28.70
   1  -1  -3 1420.36   28.20
  -1   1   3 1450.45   28.70
  -1   1   3 1414.16   28.50
  -1   1   3 1416.36   28.50
  -1   1   3 1435.36   28.40
  -1  -1  -3 3440.76   62.19
  -1  -1  -3 3379.96   62.29
  -1  -1  -3 3683.23   62.49
  -1  -1  -3 3328.77   62.09
  -1  -1  -3 3346.57   62.19
   1   1   3 3340.27   62.09
   1   1   3 3332.47   62.19
   1   1   3 3375.56   62.29
  -2  -1  -3  358.36    8.10
  -2  -1  -3  348.37    8.10
  -2  -1  -3  355.06    8.10
  -2  -1  -3  353.66    8.10
   2   1   3  372.56    8.40
   2   1   3  392.46    8.40
   2   1   3  348.77    8.20
   2   1   3  348.47    8.20
   2   1   3  359.36    8.10
  -3  -1  -3   56.09    2.70
  -3  -1  -3   57.79    2.60
  -3  -1  -3   57.99    3.40
  -3  -1  -3   53.79    2.60
  -3  -1  -3   52.79    2.70
   3   1   3   52.09    2.50
   3   1   3   55.79    2.80
   3   1   3   54.69    2.80
   3   1   3   60.99    3.40
   3   1   3   55.59    3.00
   3   1   3   51.69    2.50
  -4  -1  -3 1155.78   22.80
  -4  -1  -3 1117.79   24.00
  -4  -1  -3 1146.69   22.60
  -4  -1  -3 1151.78   22.10
  -4  -1  -3 1116.69   22.60
  -4  -1  -3 1130.99   22.80
   4   1   3 1167.68   22.80
   4   1   3 1130.99   24.30
   4   1   3 1150.78   23.50
   4   1   3 1137.29   22.60
   4   1   3 1116.99   22.40
   4   1   3 1178.98   24.60
   4   1   3 1135.49   22.90
  -5  -1  -3 1618.14   33.20
  -5  -1  -3 1645.64   31.90
  -5  -1  -3 1597.64   31.50
  -5  -1  -3 1598.84   31.60
  -5  -1  -3 1624.84   31.50
  -5  -1  -3 1570.34   31.70
   5   1   3 1642.74   32.00
   5   1   3 1569.94   31.50
   5   1   3 1612.14   34.30
   5   1   3 1617.74   33.70
   5   1   3 1599.64   31.60
   5   1   3 1590.04   32.60
   5   1   3 1681.63   31.90
  -6  -1  -3    1.50    2.30
  -6  -1  -3    0.30    2.10
  -6  -1  -3   -2.00    2.00
  -6  -1  -3    2.50    2.40
  -6  -1  -3    2.40    2.20
  -6  -1  -3    2.60    2.20
   6   1   3    2.40    2.90
   6   1   3    2.40    2.80
   6   1   3    1.30    2.90
   6   1   3    3.30    3.40
   6   1   3    5.90    2.50
   6   1   3    1.10    2.80
  -7  -1  -3    3.20    3.10
  -7  -1  -3   -0.80    3.10
  -7  -1  -3    3.60    3.00
  -7  -1  -3    5.10    3.30
  -7  -1  -3    4.30    3.10
  -7  -1  -3    1.40    3.00
   7   1   3    3.90    3.80
   7   1   3   -1.00    4.00
   7   1   3    3.90    3.80
   7   1   3    3.90    3.40
  -8  -1  -3   81.19    7.70
  -8  -1  -3   85.49    7.70
  -8  -1  -3  101.09    7.50
  -8  -1  -3   84.59    7.10
  -8  -1  -3   95.09    7.20
  -8  -1  -3   91.69    7.80
   8   1   3   91.79    8.80
   8   1   3  101.69    8.50
   8   1   3   94.59    8.10
   8   1   3   93.19    9.20
  -9  -1  -3   81.29    9.40
  -9  -1  -3   78.29    9.10
  -9  -1  -3   99.99    8.60
  -9  -1  -3   78.29    9.20
  -9  -1  -3   77.59    9.20
  -9  -1  -3   72.79    8.80
   9   1   3   83.09    9.60
   9   1   3   77.49   11.00
   9   1   3   55.49    8.70
   9   1   3   75.29   10.40
   9   1   3   96.79   10.60
   9   1   3   74.89    9.80
 -10  -1  -3   71.69   10.40
 -10  -1  -3   57.89    8.80
 -10  -1  -3   61.49    8.80
 -10  -1  -3   54.79    8.20
 -10  -1  -3   47.10    8.60
  10   1   3   62.99   11.40
  10   1   3   35.60    9.30
  11   1   3   -3.10    7.40
   9  -2  -3    7.10    8.60
   8  -2  -3   25.30   11.70
   8  -2  -3   15.60    8.20
  -8   2   3   11.90    9.00
  -8   2   3   16.80   10.10
  -8   2   3   43.90   10.60
   7  -2  -3  270.07   14.80
   7  -2  -3  255.37   25.80
   7  -2  -3  251.87   15.70
   7  -2  -3  287.47   18.70
   7  -2  -3  269.47   13.70
   7  -2  -3  229.58   14.60
  -7   2   3  274.27   14.20
  -7   2   3  279.17   14.00
  -7   2   3  268.67   14.60
  -7   2   3  227.48   16.90
  -7   2   3  281.77   14.10
   6  -2  -3  136.29    9.70
   6  -2  -3  126.59   10.80
   6  -2  -3  124.59    9.50
   6  -2  -3  143.29   11.20
   6  -2  -3  134.69   10.00
  -6   2   3  129.59   10.10
  -6   2   3  120.79    9.80
  -6   2   3  146.99    9.60
  -6   2   3  141.99    9.80
  -6   2   3  133.19   11.70
   5  -2  -3    0.50    4.20
   5  -2  -3    2.30    4.90
   5  -2  -3    4.30    4.20
   5  -2  -3    2.60    4.50
   5  -2  -3    0.00    3.80
  -5   2   3    3.20    4.40
  -5   2   3   -7.40    4.50
  -5   2   3    3.90    4.50
  -5   2   3    0.80    3.90
  -5   2   3    6.50    4.00
   4  -2  -3  557.24   15.90
   4  -2  -3  563.54   15.00
   4  -2  -3  518.75   19.20
   4  -2  -3  538.35   15.50
   4  -2  -3  553.44   15.10
   4  -2  -3  566.44   16.30
  -4   2   3  566.34   15.70
  -4   2   3  561.54   15.20
  -4   2   3  562.44   16.70
  -4   2   3  561.44   15.80
  -4   2   3  576.84   15.70
   3  -2  -3  102.59    5.70
   3  -2  -3  108.39    5.40
   3  -2  -3   96.39    5.40
   3  -2  -3   98.09    6.40
   3  -2  -3   95.49    5.80
   3  -2  -3  100.49    6.10
  -3   2   3  100.59    5.90
  -3   2   3  104.49    6.00
  -3   2   3  106.09    6.70
   2  -2  -3   93.69    4.30
   2  -2  -3   84.69    4.90
   2  -2  -3   85.39    4.70
   2  -2  -3   87.49    4.70
   2  -2  -3   89.49    5.40
   2  -2  -3   85.59    4.70
  -2   2   3   89.59    5.00
  -2   2   3   99.29    5.20
  -2   2   3   88.39    4.90
  -2   2   3   91.69    5.10
   1  -2  -3 3836.62   71.59
   1  -2  -3 4030.80   70.39
   1  -2  -3 3841.12   71.89
   1  -2  -3 3842.52   72.19
   1  -2  -3 3790.72   71.59
  -1   2   3 3804.72   71.89
  -1   2   3 3792.32   71.89
  -1   2   3 3828.02   71.89
  -1   2   3 3836.52   71.69
   0  -2  -3 1250.07   25.80
   0  -2  -3 1283.77   26.20
   0  -2  -3 1299.27   26.00
   0  -2  -3 1297.87   26.10
   0   2   3 1287.27   26.20
   0   2   3 1275.67   26.00
   0   2   3 1305.77   26.00
   0   2   3 1290.67   26.10
  -1  -2  -3 1570.14   30.60
  -1  -2  -3 1571.24   30.80
  -1  -2  -3 1575.94   30.60
  -1  -2  -3 1564.74   30.70
   1   2   3 1541.35   30.50
   1   2   3 1580.44   30.80
   1   2   3 1568.74   30.60
   1   2   3 1583.94   30.70
  -2  -2  -3  195.98    5.80
  -2  -2  -3  190.58    5.70
  -2  -2  -3  196.38    5.80
  -2  -2  -3  194.18    5.80
   2   2   3  196.98    5.80
   2   2   3  185.58    5.70
   2   2   3  189.18    5.90
  -3  -2  -3    4.70    1.40
  -3  -2  -3    4.00    1.50
  -3  -2  -3    4.20    1.60
  -3  -2  -3    2.80    1.30
  -3  -2  -3    4.10    1.40
   3   2   3    4.40    1.60
   3   2   3    2.60    1.40
   3   2   3    3.50    1.30
   3   2   3    2.50    1.40
   3   2   3    2.60    1.40
  -4  -2  -3  392.96   10.00
  -4  -2  -3  391.06   10.70
  -4  -2  -3  391.96    9.80
  -4  -2  -3  404.06   10.00
  -4  -2  -3  406.06    9.80
   4   2   3  415.76   10.00
   4   2   3  398.16   10.20
   4   2   3  384.06    9.90
   4   2   3  393.06    9.70
  -5  -2  -3   29.30    3.60
  -5  -2  -3   31.50    3.40
  -5  -2  -3   30.00    3.40
  -5  -2  -3   37.40    3.40
  -5  -2  -3   31.00    3.30
  -5  -2  -3   35.20    2.50
   5   2   3   35.80    3.70
   5   2   3   32.40    3.80
   5   2   3   34.00    3.30
   5   2   3   29.60    3.80
   5   2   3   30.90    3.20
   5   2   3   24.80    3.10
  -6  -2  -3  310.57    9.20
  -6  -2  -3  302.07    9.10
  -6  -2  -3  307.77    9.40
  -6  -2  -3  309.57    8.40
  -6  -2  -3  309.57   10.30
  -6  -2  -3  311.37    9.50
   6   2   3  307.37   10.00
   6   2   3  297.57   10.60
   6   2   3  311.77   12.20
   6   2   3  291.57    9.40
   6   2   3  306.97    9.30
   6   2   3  290.77    9.10
  -7  -2  -3  208.48    8.20
  -7  -2  -3  205.98    9.10
  -7  -2  -3  218.88    8.60
  -7  -2  -3  209.68    7.50
  -7  -2  -3  218.18    8.40
  -7  -2  -3  221.48    8.60
   7   2   3  225.88    8.70
   7   2   3  207.48    8.80
   7   2   3  206.08    8.40
   7   2   3  236.98    9.30
   7   2   3  190.48    9.60
  -8  -2  -3   42.10    5.70
  -8  -2  -3   42.90    5.90
  -8  -2  -3   40.30    5.70
  -8  -2  -3   29.20    5.40
  -8  -2  -3   38.70    5.50
  -8  -2  -3   33.20    5.60
   8   2   3   31.00    7.40
   8   2   3   40.30    7.70
   8   2   3   40.70    6.00
   8   2   3   25.30    5.80
  -9  -2  -3   20.30    5.60
  -9  -2  -3    8.30    4.90
  -9  -2  -3    5.70    5.50
  -9  -2  -3   14.60    6.20
  -9  -2  -3   16.40    5.80
  -9  -2  -3    9.80    5.50
   9   2   3   13.60    6.50
   9   2   3   10.70    7.30
   9   2   3   21.20    7.80
   9   2   3   25.60    6.40
   9   2   3   17.90    7.10
   9   2   3    8.30   10.20
 -10  -2  -3   -1.60    6.70
 -10  -2  -3   -3.80    7.10
 -10  -2  -3    5.80    6.20
 -10  -2  -3    5.00    7.10
 -10  -2  -3   18.30   10.10
 -10  -2  -3    2.90    6.50
  10   2   3    8.80    6.60
  11   2   3   20.70    7.70
  12   2   3   13.90    9.40
   9  -3  -3    4.90   10.30
   8  -3  -3   -4.40    9.80
   8  -3  -3   23.00   13.10
  -8   3   3    4.60   17.10
   7  -3  -3   53.39   11.00
   7  -3  -3   43.60   11.20
  -7   3   3   53.49    8.70
  -7   3   3   58.69    9.40
  -7   3   3   62.69    9.50
  -7   3   3   75.09    9.90
   6  -3  -3  368.36   16.70
   6  -3  -3  337.17   15.20
   6  -3  -3  350.36   16.40
   6  -3  -3  342.67   14.40
   6  -3  -3  370.06   14.20
   6  -3  -3  331.77   14.30
  -6   3   3  329.97   17.40
  -6   3   3  374.56   15.00
  -6   3   3  361.96   14.70
  -6   3   3  386.96   15.60
  -6   3   3  360.26   14.90
   5  -3  -3   66.49    7.50
   5  -3  -3   75.99    9.30
   5  -3  -3   67.09    7.90
   5  -3  -3   69.49    9.10
  -5   3   3   63.39    8.20
  -5   3   3   62.79    8.60
  -5   3   3   68.09    7.60
   4  -3  -3  364.66   13.50
   4  -3  -3  349.47   12.90
   4  -3  -3  345.27   12.60
   4  -3  -3  375.66   11.90
   4  -3  -3  374.86   12.20
  -4   3   3  357.86   13.00
  -4   3   3  356.06   12.60
  -4   3   3  367.36   12.30
  -4   3   3  368.26   12.70
   3  -3  -3   27.60    4.70
   3  -3  -3   37.80    5.00
   3  -3  -3   41.80    5.50
   3  -3  -3   39.00    4.90
   3  -3  -3   21.60    3.30
  -3   3   3   26.60    4.10
  -3   3   3   25.70    4.50
  -3   3   3   25.50    4.20
  -3   3   3   15.20    3.60
   2  -3  -3 1157.08   23.80
   2  -3  -3 1121.99   24.80
   2  -3  -3 1141.49   24.40
   2  -3  -3 1147.99   24.70
   2  -3  -3 1125.99   25.60
   2  -3  -3 1114.19   25.20
  -2   3   3 1116.79   25.30
  -2   3   3 1133.19   25.20
  -2   3   3 1124.19   24.90
  -2   3   3 1119.19   25.10
   1  -3  -3  943.01   19.70
   1  -3  -3  966.20   19.90
   1  -3  -3  953.00   20.80
   1  -3  -3  931.21   20.80
   1  -3  -3  935.51   21.40
   1  -3  -3  932.71   21.10
  -1   3   3  909.71   20.80
  -1   3   3  941.21   21.10
  -1   3   3  946.51   21.20
  -1   3   3  902.21   21.00
   0  -3  -3 1543.95   31.40
   0  -3  -3 1609.24   29.50
   0  -3  -3 1559.94   31.80
   0  -3  -3 1543.95   31.50
   0  -3  -3 1528.95   31.40
   0   3   3 1528.05   31.60
   0   3   3 1563.24   31.80
   0   3   3 1563.44   31.50
   0   3   3 1520.25   31.30
  -1  -3  -3 3031.40   58.09
  -1  -3  -3 3042.00   58.29
  -1  -3  -3 3087.69   58.09
  -1  -3  -3 3027.80   57.99
   1   3   3 3070.19   58.09
   1   3   3 3168.38   58.19
   1   3   3 3081.59   58.19
   1   3   3 3076.19   58.29
  -2  -3  -3  199.08    6.50
  -2  -3  -3  199.38    6.60
  -2  -3  -3  193.68    6.40
  -2  -3  -3  198.08    6.60
   2   3   3  193.68    6.70
   2   3   3  198.98    6.60
   2   3   3  197.48    6.40
   2   3   3  194.78    6.40
  -3  -3  -3 1136.29   23.20
  -3  -3  -3 1138.79   23.40
  -3  -3  -3 1098.39   23.30
  -3  -3  -3 1095.29   23.40
  -3  -3  -3 1116.09   23.40
   3   3   3 1139.39   23.30
   3   3   3 1111.29   23.40
   3   3   3 1148.39   22.40
   3   3   3 1119.49   23.60
   3   3   3 1112.19   23.10
  -4  -3  -3  200.68    6.80
  -4  -3  -3  201.68    6.70
  -4  -3  -3  198.98    6.70
  -4  -3  -3  204.08    6.90
  -4  -3  -3  201.58    7.10
   4   3   3  206.28    7.00
   4   3   3  200.08    7.00
   4   3   3  207.78    6.20
   4   3   3  203.98    6.70
   4   3   3  201.88    6.70
  -5  -3  -3  721.63   16.30
  -5  -3  -3  686.43   17.00
  -5  -3  -3  712.53   16.40
  -5  -3  -3  700.53   16.60
  -5  -3  -3  716.53   14.60
  -5  -3  -3  707.43   16.70
   5   3   3  681.73   16.10
   5   3   3  703.03   14.90
   5   3   3  699.03   15.70
   5   3   3  705.83   16.90
   5   3   3  700.23   16.30
   5   3   3  704.43   16.70
   5   3   3  718.13   17.60
  -6  -3  -3   92.59    6.00
  -6  -3  -3   98.19    4.30
  -6  -3  -3   97.99    5.70
  -6  -3  -3  100.09    5.60
  -6  -3  -3  104.69    5.70
  -6  -3  -3   96.49    5.40
   6   3   3   94.19    7.10
   6   3   3   96.29    6.50
   6   3   3   86.89    6.10
   6   3   3   94.49    5.70
   6   3   3  101.29    5.60
   6   3   3   93.39    5.20
  -7  -3  -3  709.23   18.60
  -7  -3  -3  699.33   17.50
  -7  -3  -3  702.73   17.80
  -7  -3  -3  680.73   17.30
  -7  -3  -3  713.23   16.10
  -7  -3  -3  718.33   18.00
   7   3   3  684.73   17.60
   7   3   3  724.13   18.20
   7   3   3  695.93   18.30
   7   3   3  663.13   17.20
   7   3   3  665.43   17.00
  -8  -3  -3    0.50    4.10
  -8  -3  -3    6.70    3.50
  -8  -3  -3   10.70    4.50
  -8  -3  -3    6.90    4.10
  -8  -3  -3    5.20    4.40
  -8  -3  -3    9.30    4.60
   8   3   3    5.40    4.10
   8   3   3   -1.90    5.20
   8   3   3   17.60    4.80
   8   3   3    8.20    4.80
  -9  -3  -3    3.30    6.10
  -9  -3  -3    2.60    4.70
  -9  -3  -3   -3.80    5.10
  -9  -3  -3    3.50    5.00
  -9  -3  -3    4.70    5.20
  -9  -3  -3    6.80    5.30
   9   3   3   -3.20    6.30
   9   3   3    6.00    4.80
   9   3   3   16.20    7.90
   9   3   3   17.50    6.40
   9   3   3    5.40    6.00
   9   3   3    6.80    5.60
 -10  -3  -3   42.30    7.10
 -10  -3  -3   36.60    7.40
 -10  -3  -3   43.30    7.60
 -10  -3  -3   46.50    8.20
 -10  -3  -3   59.19    8.30
 -10  -3  -3   66.49    9.20
  10   3   3   43.30    8.80
  10   3   3   42.20    9.50
  10   3   3   33.70    9.10
  11   3   3    3.60    6.50
  12   3   3  108.39   13.40
   8  -4  -3    5.80   11.00
   7  -4  -3   26.80   11.10
   7  -4  -3    7.40    8.70
  -7   4   3    1.20    9.60
  -7   4   3  -18.00    9.40
  -7   4   3    6.10    9.10
   6  -4  -3   20.30    9.50
   6  -4  -3    9.30    7.40
   6  -4  -3    2.20    8.70
   6  -4  -3   12.90    7.30
  -6   4   3   -0.60    6.90
  -6   4   3   30.60    7.80
  -6   4   3   10.60    7.10
  -6   4   3   36.80    8.00
   5  -4  -3   69.79    8.60
   5  -4  -3   70.19    8.90
   5  -4  -3   76.89   10.20
   5  -4  -3   91.89    9.20
   5  -4  -3   54.69    7.50
   5  -4  -3   73.59    7.80
  -5   4   3   81.69    9.80
  -5   4   3   73.99    8.50
  -5   4   3   67.19    9.40
  -5   4   3   71.69    8.80
  -5   4   3   77.29   10.60
   4  -4  -3  269.37   10.70
   4  -4  -3  261.77   12.30
   4  -4  -3  262.87   10.60
   4  -4  -3  280.97   12.60
   4  -4  -3  263.47   11.80
  -4   4   3  262.77   11.80
  -4   4   3  276.87   12.30
   3  -4  -3   66.89    6.90
   3  -4  -3   63.69    6.70
   3  -4  -3   71.09    5.80
   3  -4  -3   62.59    7.40
   3  -4  -3   65.69    6.40
  -3   4   3   70.19    6.50
  -3   4   3   60.39    6.40
  -3   4   3   76.89    7.10
  -3   4   3   66.39    6.90
   2  -4  -3  606.04   16.70
   2  -4  -3  630.04   16.10
   2  -4  -3  630.04   16.20
   2  -4  -3  612.24   16.70
   2  -4  -3  605.14   17.10
   2  -4  -3  634.44   14.90
  -2   4   3  618.14   16.80
  -2   4   3  616.34   16.90
  -2   4   3  611.94   16.70
  -2   4   3  617.14   16.40
   1  -4  -3  325.27   10.20
   1  -4  -3  317.17    8.80
   1  -4  -3  329.67    9.70
   1  -4  -3  313.97   10.10
   1  -4  -3  314.77   10.40
   1  -4  -3  323.37   10.80
  -1   4   3  305.17   10.20
  -1   4   3  326.87   10.60
  -1   4   3  306.47   10.40
  -1   4   3  307.27   10.40
   0  -4  -3   29.20    3.70
   0  -4  -3   26.60    3.70
   0  -4  -3   26.00    3.80
   0  -4  -3   24.30    3.30
   0   4   3   31.60    4.20
   0   4   3   28.40    3.70
   0   4   3   26.00    3.50
   0   4   3   24.90    3.60
  -1  -4  -3  716.33   16.90
  -1  -4  -3  714.53   17.00
  -1  -4  -3  705.43   17.20
  -1  -4  -3  700.43   17.10
   1   4   3  727.63   17.10
   1   4   3  732.73   17.30
   1   4   3  713.63   17.10
   1   4   3  720.93   17.00
  -2  -4  -3  316.67    9.50
  -2  -4  -3  329.07    9.70
  -2  -4  -3  327.27    9.70
  -2  -4  -3  325.47    9.70
   2   4   3  305.37    9.70
   2   4   3  322.27    9.70
   2   4   3  311.27    9.50
   2   4   3  324.07    9.40
  -3  -4  -3 1756.42   36.00
  -3  -4  -3 1788.92   36.10
  -3  -4  -3 1773.32   36.20
  -3  -4  -3 1795.12   35.60
  -3  -4  -3 1826.62   36.00
   3   4   3 1776.52   36.10
   3   4   3 1785.22   35.80
   3   4   3 1792.72   36.00
   3   4   3 1838.32   36.50
   3   4   3 1761.02   34.20
  -4  -4  -3  266.57    8.60
  -4  -4  -3  259.17    8.50
  -4  -4  -3  264.07    8.70
  -4  -4  -3  261.67    8.50
  -4  -4  -3  261.37    8.60
   4   4   3  277.37    7.50
   4   4   3  254.97    8.40
   4   4   3  253.77    8.50
   4   4   3  262.57    9.00
   4   4   3  263.27    8.40
   4   4   3  261.27    6.70
  -5  -4  -3   50.59    4.50
  -5  -4  -3   48.00    4.60
  -5  -4  -3   44.20    4.40
  -5  -4  -3   45.20    4.30
  -5  -4  -3   54.29    4.50
  -5  -4  -3   48.70    3.20
   5   4   3   41.90    3.10
   5   4   3   41.40    3.50
   5   4   3   39.30    4.10
   5   4   3   49.90    4.50
   5   4   3   43.70    4.70
   5   4   3   39.20    4.90
  -6  -4  -3    8.40    3.10
  -6  -4  -3    6.00    2.10
  -6  -4  -3    5.90    2.90
  -6  -4  -3   11.00    3.60
  -6  -4  -3    5.60    2.90
  -6  -4  -3   11.70    3.30
   6   4   3   10.60    2.80
   6   4   3    7.50    2.40
   6   4   3    8.90    3.70
   6   4   3    6.00    3.80
   6   4   3    9.10    3.00
   6   4   3    8.70    4.00
   6   4   3    8.40    3.00
  -7  -4  -3   48.60    6.00
  -7  -4  -3   44.10    5.80
  -7  -4  -3   46.80    5.50
  -7  -4  -3   30.40    4.00
  -7  -4  -3   33.90    5.00
  -7  -4  -3   39.50    5.10
   7   4   3   47.90    5.70
   7   4   3   40.00    4.50
   7   4   3   50.69    7.20
   7   4   3   41.30    5.90
   7   4   3   42.70    5.10
  -8  -4  -3   63.19    8.10
  -8  -4  -3   50.69    6.50
  -8  -4  -3   51.59    6.50
  -8  -4  -3   56.39    7.20
  -8  -4  -3   53.39    5.80
  -8  -4  -3   66.49    7.60
   8   4   3   68.09    6.80
   8   4   3   52.09   10.40
   8   4   3   64.69    7.70
   8   4   3   51.19    5.90
   8   4   3   57.09    8.10
   8   4   3   63.19    7.70
  -9  -4  -3   10.10    5.20
  -9  -4  -3   -5.90    4.80
  -9  -4  -3   -7.60    4.40
  -9  -4  -3    5.00    6.20
  -9  -4  -3    5.00    6.20
  -9  -4  -3    4.80    4.90
   9   4   3   -0.10    5.30
   9   4   3    0.50    6.00
   9   4   3  -10.60    6.80
   9   4   3   -5.60    6.50
   9   4   3   13.70    7.20
 -10  -4  -3   20.90    8.10
 -10  -4  -3    5.20    6.30
 -10  -4  -3   -4.80    6.70
 -10  -4  -3    9.70    7.90
 -10  -4  -3    5.60    6.60
 -10  -4  -3    6.40    6.80
  10   4   3   12.90    7.20
  10   4   3   -1.20    7.90
  10   4   3   19.40    8.30
 -11  -4  -3   27.10   16.00
  11   4   3    4.60   11.70
  11   4   3   -1.10    5.20
  12   4   3    3.30    7.70
   8  -5  -3  -11.50   11.00
   7  -5  -3    4.30    9.50
   6  -5  -3   10.10    8.60
   6  -5  -3   36.30   11.60
   6  -5  -3   15.30   13.30
  -6   5   3   16.70    8.80
  -6   5   3   11.10    9.40
  -6   5   3   24.50    9.10
   5  -5  -3    3.90    5.90
   5  -5  -3    4.60    6.90
   5  -5  -3   13.70    7.80
   5  -5  -3    8.30    8.10
   5  -5  -3   12.30    7.00
   5  -5  -3   11.50    6.80
  -5   5   3   13.20   10.30
  -5   5   3   20.90    7.20
  -5   5   3   11.70    6.50
  -5   5   3   17.10    6.70
  -5   5   3   16.70    7.20
   4  -5  -3  119.59    9.90
   4  -5  -3  140.09   10.70
   4  -5  -3  129.09    8.70
   4  -5  -3  119.39    9.40
   4  -5  -3  126.89    8.80
   4  -5  -3  137.89   10.70
  -4   5   3  103.09    9.60
  -4   5   3  120.89   10.10
   3  -5  -3  143.49    8.60
   3  -5  -3  149.49    9.40
   3  -5  -3  130.19    9.10
   3  -5  -3  137.19    9.30
   3  -5  -3  153.48    9.90
  -3   5   3  157.68    8.90
  -3   5   3  144.29    9.80
  -3   5   3  159.88    9.80
  -3   5   3  150.48    9.40
   2  -5  -3   52.79    6.40
   2  -5  -3   40.50    4.80
   2  -5  -3   39.20    6.20
   2  -5  -3   51.19    5.90
   2  -5  -3   46.60    6.20
  -2   5   3   43.20    6.00
  -2   5   3   41.80    5.90
  -2   5   3   49.99    6.60
  -2   5   3   40.00    5.40
   1  -5  -3 1437.96   30.30
   1  -5  -3 1422.56   32.20
   1  -5  -3 1414.46   31.10
   1  -5  -3 1504.25   29.20
   1  -5  -3 1424.96   31.70
  -1   5   3 1424.96   31.50
  -1   5   3 1412.86   31.70
  -1   5   3 1408.26   31.80
  -1   5   3 1418.36   31.60
   0  -5  -3   86.19    5.80
   0  -5  -3   87.29    5.90
   0  -5  -3   93.09    6.20
   0  -5  -3   83.89    6.30
   0   5   3   85.29    5.90
   0   5   3   82.89    5.90
   0   5   3   93.59    6.50
   0   5   3   86.49    5.90
  -1  -5  -3  396.36   11.90
  -1  -5  -3  412.56   12.10
  -1  -5  -3  401.56   12.30
  -1  -5  -3  401.66   12.10
   1   5   3  404.36   12.10
   1   5   3  388.26   11.90
   1   5   3  413.46   12.40
   1   5   3  390.36   12.00
  -2  -5  -3    3.00    2.50
  -2  -5  -3    2.70    2.70
  -2  -5  -3    1.00    2.50
  -2  -5  -3    3.10    2.50
   2   5   3    1.30    2.20
   2   5   3    0.10    2.50
   2   5   3   -1.90    3.00
   2   5   3    5.70    2.70
  -3  -5  -3 1345.77   28.10
  -3  -5  -3 1362.76   29.30
  -3  -5  -3 1387.76   29.40
  -3  -5  -3 1357.26   29.10
  -3  -5  -3 1339.67   29.40
   3   5   3 1381.16   29.80
   3   5   3 1370.76   29.20
   3   5   3 1317.47   27.60
   3   5   3 1358.16   29.30
   3   5   3 1361.96   29.10
  -4  -5  -3  590.94   15.50
  -4  -5  -3  606.24   15.40
  -4  -5  -3  599.54   14.90
  -4  -5  -3  579.94   15.60
  -4  -5  -3  591.94   15.80
   4   5   3  595.04   16.00
   4   5   3  580.04   13.50
   4   5   3  602.14   15.80
   4   5   3  599.74   15.30
   4   5   3  598.44   15.40
  -5  -5  -3  208.78    8.70
  -5  -5  -3  201.58    8.30
  -5  -5  -3  204.58    8.20
  -5  -5  -3  213.48    8.00
  -5  -5  -3  190.38    8.00
   5   5   3  204.88    6.70
   5   5   3  199.48    8.20
   5   5   3  205.48    8.80
   5   5   3  200.18    6.50
   5   5   3  210.38    9.20
   5   5   3  198.28    8.20
  -6  -5  -3   19.10    4.40
  -6  -5  -3    8.10    3.30
  -6  -5  -3   13.00    3.40
  -6  -5  -3    7.90    3.50
  -6  -5  -3   18.80    4.20
   6   5   3   12.10    2.70
   6   5   3   11.30    3.00
   6   5   3   16.70    4.20
   6   5   3   19.40    4.00
   6   5   3   16.90    3.90
  -7  -5  -3  147.09    6.50
  -7  -5  -3  165.58    9.40
  -7  -5  -3  142.09    8.30
  -7  -5  -3  154.08    8.60
  -7  -5  -3  146.79    8.40
  -7  -5  -3  147.39    8.20
   7   5   3  165.28    8.50
   7   5   3  154.08    7.20
   7   5   3  166.38    9.10
   7   5   3  147.19    8.20
   7   5   3  150.18    6.60
  -8  -5  -3  335.77   13.00
  -8  -5  -3  315.67   12.60
  -8  -5  -3  327.67   13.10
  -8  -5  -3  360.86   14.40
  -8  -5  -3  327.07   10.70
  -8  -5  -3  312.57   12.50
   8   5   3  328.77   10.70
   8   5   3  353.46   12.90
   8   5   3  333.57   14.20
   8   5   3  316.67   12.60
   8   5   3  331.17   13.50
  -9  -5  -3  106.29   10.70
  -9  -5  -3  119.19   11.40
  -9  -5  -3  121.69    9.90
  -9  -5  -3  113.29    9.40
  -9  -5  -3  117.09    8.70
  -9  -5  -3  126.29   10.00
   9   5   3  108.69   10.50
   9   5   3  121.79   12.40
   9   5   3  116.79   11.50
   9   5   3  116.09   12.90
   9   5   3  116.69   10.50
 -10  -5  -3  -11.50    7.90
 -10  -5  -3    9.40    6.80
 -10  -5  -3   -2.00    6.30
 -10  -5  -3   -6.10    8.40
 -10  -5  -3   -5.80    7.10
 -10  -5  -3   -0.40    6.20
  10   5   3   -1.90    7.70
 -11  -5  -3  -15.30   10.10
 -11  -5  -3   -5.30   12.20
  11   5   3    6.90    6.50
  11   5   3   31.30   11.80
  12   5   3    0.00    7.90
   7  -6  -3    0.20   11.70
   6  -6  -3   10.90   10.30
   6  -6  -3   32.10   14.20
   5  -6  -3   25.90   17.60
   5  -6  -3   11.70    7.40
   5  -6  -3   20.00    9.90
   5  -6  -3   16.80    9.30
  -5   6   3   25.70    8.90
  -5   6   3   17.10    9.60
  -5   6   3   10.30    8.00
  -5   6   3   18.10    8.50
   4  -6  -3    0.50    7.00
   4  -6  -3   11.00    6.20
   4  -6  -3  -12.90    6.40
   4  -6  -3    7.90    7.40
   4  -6  -3   -5.40    6.50
  -4   6   3    2.10    6.70
  -4   6   3   -2.20    6.40
   3  -6  -3   -8.50    5.60
   3  -6  -3   -6.60    5.80
   3  -6  -3   -2.70    4.80
   3  -6  -3   -4.00    5.00
   3  -6  -3   -3.20    5.50
   3  -6  -3   -3.90    4.00
  -3   6   3    0.30    5.90
  -3   6   3   10.50    6.00
  -3   6   3   -3.70    4.90
  -3   6   3   12.20    5.30
   2  -6  -3    0.70    3.30
   2  -6  -3    2.20    5.00
   2  -6  -3   -2.80    3.80
   2  -6  -3    5.00    4.80
   2  -6  -3   10.80    5.20
  -2   6   3   -1.00    4.20
  -2   6   3    0.90    4.50
  -2   6   3    6.20    4.60
  -2   6   3    2.20    5.10
   1  -6  -3 1090.79   25.60
   1  -6  -3 1166.08   24.00
   1  -6  -3 1101.99   27.00
   1  -6  -3 1103.29   26.50
   1  -6  -3 1135.79   27.60
  -1   6   3 1093.09   27.20
  -1   6   3 1106.89   27.00
  -1   6   3 1133.69   27.30
  -1   6   3 1138.29   27.00
   0  -6  -3   30.60    5.20
   0  -6  -3   25.90    4.80
   0  -6  -3   17.10    2.90
   0  -6  -3   22.70    4.80
   0  -6  -3   20.70    5.40
   0   6   3   16.00    4.20
   0   6   3   14.10    4.60
   0   6   3   23.20    4.20
   0   6   3   17.30    4.30
  -1  -6  -3  975.00   28.90
  -1  -6  -3 1133.69   26.10
  -1  -6  -3 1117.99   26.30
  -1  -6  -3 1145.19   26.10
   1   6   3 1141.49   26.70
   1   6   3 1146.69   26.20
   1   6   3 1108.59   26.00
   1   6   3 1115.79   25.90
  -2  -6  -3  322.67   11.30
  -2  -6  -3  332.97   11.30
  -2  -6  -3  326.47   11.50
  -2  -6  -3  344.17   11.80
   2   6   3  329.97   11.30
   2   6   3  331.97   11.50
   2   6   3  336.27   11.30
   2   6   3  360.96   12.30
  -3  -6  -3   73.99    5.90
  -3  -6  -3   64.09    6.20
  -3  -6  -3   73.89    5.90
  -3  -6  -3   70.29    6.20
  -3  -6  -3   67.39    4.80
   3   6   3   72.49    6.00
   3   6   3   75.49    6.80
   3   6   3   65.29    6.10
   3   6   3   74.99    5.80
   3   6   3   71.79    5.00
  -4  -6  -3    3.50    2.60
  -4  -6  -3    6.20    3.80
  -4  -6  -3    3.30    3.50
  -4  -6  -3    4.20    3.40
  -4  -6  -3    3.40    3.50
   4   6   3    3.70    3.30
   4   6   3    8.50    2.70
   4   6   3    4.50    3.80
   4   6   3    3.30    3.20
   4   6   3    9.10    4.60
  -5  -6  -3  268.37   10.20
  -5  -6  -3  268.77   10.20
  -5  -6  -3  284.07   11.10
  -5  -6  -3  273.77   10.50
  -5  -6  -3  260.87    9.30
   5   6   3  262.37   10.80
   5   6   3  250.97    9.90
   5   6   3  272.27    8.00
   5   6   3  268.27   11.30
   5   6   3  265.77    8.40
   5   6   3  279.17   10.40
  -6  -6  -3   46.70    6.90
  -6  -6  -3   48.00    6.20
  -6  -6  -3   53.89    6.30
  -6  -6  -3   47.60    5.30
  -6  -6  -3   48.20    6.20
   6   6   3   52.69    6.90
   6   6   3   43.70    6.00
   6   6   3   47.90    4.20
   6   6   3   49.40    6.10
   6   6   3   48.50    4.70
   6   6   3   45.30    6.20
  -7  -6  -3   12.70    4.90
  -7  -6  -3    4.80    3.60
  -7  -6  -3    1.10    5.00
  -7  -6  -3    5.30    4.80
  -7  -6  -3   10.30    7.90
   7   6   3    3.60    4.90
   7   6   3   10.00    3.50
   7   6   3    0.70    5.00
   7   6   3   10.30    4.40
   7   6   3    7.50    4.50
   7   6   3   -0.80    3.40
  -8  -6  -3    6.40    4.60
  -8  -6  -3   13.20    5.80
  -8  -6  -3   16.90    5.50
  -8  -6  -3   19.30    6.10
  -8  -6  -3    6.80    4.10
  -8  -6  -3   14.30    5.10
   8   6   3   23.70    4.70
   8   6   3   13.40    5.40
   8   6   3   16.40    5.80
   8   6   3    6.10    6.30
   8   6   3   18.70    6.50
   8   6   3   14.50    5.00
  -9  -6  -3   25.30    7.90
  -9  -6  -3   29.70    6.70
  -9  -6  -3   19.50    8.10
  -9  -6  -3   26.00    6.50
  -9  -6  -3   14.70    6.00
  -9  -6  -3   27.30    6.10
   9   6   3   42.00    6.10
   9   6   3   28.70    7.20
   9   6   3   23.50    9.00
   9   6   3   33.60    8.20
   9   6   3   38.10    8.30
 -10  -6  -3   46.80    7.40
 -10  -6  -3   36.20    8.00
 -10  -6  -3   40.40   10.20
 -10  -6  -3   46.10    8.20
 -10  -6  -3   35.70    7.40
 -10  -6  -3   46.10   10.80
  10   6   3   37.60    9.30
  10   6   3   39.00    9.10
 -11  -6  -3    5.80   10.60
 -11  -6  -3    6.90   13.10
  11   6   3    6.30   12.10
  12   6   3   -0.40    8.30
   6  -7  -3   12.20   11.90
   5  -7  -3   -7.10    9.30
   5  -7  -3   21.90   12.80
   5  -7  -3   -8.90   10.70
   4  -7  -3   -1.60   10.30
   4  -7  -3    8.40    8.60
   4  -7  -3    7.60    9.40
   4  -7  -3   10.10    6.90
  -4   7   3    6.00    7.90
  -4   7   3   -0.80    7.90
   3  -7  -3    5.10    7.00
   3  -7  -3   -1.90    7.00
   3  -7  -3   10.00    5.30
   3  -7  -3    0.10    7.30
   3  -7  -3    6.30    6.80
   3  -7  -3   25.80    7.30
  -3   7   3   17.30    6.80
  -3   7   3    0.40    7.40
  -3   7   3   14.10    6.90
  -3   7   3    3.70    7.00
   2  -7  -3   -8.80    5.10
   2  -7  -3   -5.40    5.70
   2  -7  -3    1.20    4.20
   2  -7  -3    0.00    5.90
   2  -7  -3    4.40    5.40
   2  -7  -3    1.10    5.40
  -2   7   3    1.70    6.20
  -2   7   3    5.10    5.30
  -2   7   3    0.20    5.50
  -2   7   3    0.20    5.20
   1  -7  -3   37.90    5.00
   1  -7  -3   38.20    6.80
   1  -7  -3   43.20    6.50
   1  -7  -3   50.19    7.50
  -1   7   3   33.90    6.30
  -1   7   3   43.60    6.50
  -1   7   3   42.60   11.30
   0  -7  -3   25.30    5.40
   0  -7  -3   21.60    5.70
   0  -7  -3   22.40    5.20
   0  -7  -3   29.10    4.10
   0   7   3   27.80    6.20
   0   7   3   18.50    5.70
   0   7   3   14.40    5.00
   0   7   3   23.00    5.70
  -1  -7  -3 2364.96   49.40
  -1  -7  -3 2409.06   49.90
  -1  -7  -3 2382.06   49.50
   1   7   3 2388.26   50.29
   1   7   3 2301.37   49.40
   1   7   3 2337.47   49.40
   1   7   3 2383.96   49.70
  -2  -7  -3  690.43   26.70
  -2  -7  -3  683.23   19.20
  -2  -7  -3  695.53   19.00
  -2  -7  -3  666.83   19.30
   2   7   3  699.83   19.30
   2   7   3  719.43   20.20
   2   7   3  710.73   19.20
   2   7   3  705.83   19.00
  -3  -7  -3   54.49    5.00
  -3  -7  -3   56.39    6.70
  -3  -7  -3   60.69    6.80
  -3  -7  -3   62.59    7.00
  -3  -7  -3   62.69    6.90
   3   7   3   62.79    6.40
   3   7   3   73.69   12.00
   3   7   3   57.59    5.90
   3   7   3   62.19    6.80
   3   7   3   51.49    6.30
  -4  -7  -3   40.10    4.90
  -4  -7  -3   45.20    6.00
  -4  -7  -3   38.00    5.70
  -4  -7  -3   40.70    5.70
  -4  -7  -3   45.70    6.50
   4   7   3   36.90    6.40
   4   7   3   46.50    6.20
   4   7   3   43.30    6.10
   4   7   3   35.50    4.90
   4   7   3   47.60    6.10
  -5  -7  -3  128.29    9.10
  -5  -7  -3  126.89    8.60
  -5  -7  -3  144.49    8.50
  -5  -7  -3  130.89    8.80
  -5  -7  -3  134.29    7.10
   5   7   3  139.89    9.30
   5   7   3  136.09    9.80
   5   7   3  119.79    6.60
   5   7   3  134.99    8.20
   5   7   3  121.69    8.10
   5   7   3  130.39    5.60
  -6  -7  -3  182.18   10.50
  -6  -7  -3  186.58   10.30
  -6  -7  -3  186.88   10.40
  -6  -7  -3  193.08   10.00
  -6  -7  -3  184.58    8.60
   6   7   3  172.88    9.80
   6   7   3  179.68    7.80
   6   7   3  178.48    6.90
   6   7   3  170.88   11.20
   6   7   3  185.88   10.80
   6   7   3  174.08    9.70
  -7  -7  -3   19.90    5.60
  -7  -7  -3   20.30    5.10
  -7  -7  -3   19.10    6.00
  -7  -7  -3   23.80    6.10
  -7  -7  -3   19.80    5.60
   7   7   3   10.30    5.00
   7   7   3   19.80    6.40
   7   7   3   11.60    6.70
   7   7   3   26.30    6.10
   7   7   3   11.90    4.20
   7   7   3   23.90    4.20
  -8  -7  -3    0.10    4.80
  -8  -7  -3   -1.40    6.20
  -8  -7  -3   -0.70    6.60
  -8  -7  -3    6.40    5.60
  -8  -7  -3    2.80    6.10
   8   7   3    7.40    7.00
   8   7   3   -1.40    6.20
   8   7   3    6.80    4.50
   8   7   3   -3.30    7.30
   8   7   3   -2.00    5.00
  -9  -7  -3   -5.10    5.60
  -9  -7  -3    7.10    8.60
  -9  -7  -3   12.40    7.10
  -9  -7  -3    6.40    6.40
   9   7   3   13.60    7.40
   9   7   3    6.20    8.70
   9   7   3   16.00    6.70
   9   7   3    4.70    7.50
   9   7   3    6.30    5.50
 -10  -7  -3   23.40   10.80
 -10  -7  -3   44.50    8.20
 -10  -7  -3   26.80    8.80
 -10  -7  -3   18.30    8.10
 -10  -7  -3   20.80    8.80
 -10  -7  -3   28.20   11.00
  10   7   3   17.10    9.40
  10   7   3   27.30    9.80
 -11  -7  -3   12.90   17.00
  11   7   3   27.80   12.20
   5  -8  -3   22.80   11.40
   4  -8  -3   12.90    9.80
   4  -8  -3   21.70   13.10
   3  -8  -3    1.40   10.00
   3  -8  -3    2.40    6.40
   3  -8  -3   -0.70    8.20
  -3   8   3   -4.30    9.40
  -3   8   3   16.20    8.20
  -3   8   3   30.00    9.00
  -3   8   3   -1.40    9.20
   2  -8  -3  150.68   12.80
   2  -8  -3  138.39   13.10
   2  -8  -3  139.99    9.60
   2  -8  -3  122.69   13.80
  -2   8   3  140.29   13.00
  -2   8   3  139.39   12.40
  -2   8   3  123.99   12.40
  -2   8   3  139.09   12.10
   1  -8  -3    7.80    6.00
   1  -8  -3   13.20    6.60
   1  -8  -3   14.90    7.10
   1  -8  -3    8.70    6.80
   1  -8  -3   18.60    4.40
  -1   8   3   24.70    6.90
  -1   8   3   19.80    7.50
  -1   8   3   10.30    6.40
  -1   8   3   13.20    5.90
   0  -8  -3   -4.80    5.10
   0  -8  -3    1.30    3.10
   0  -8  -3   -0.90    5.30
   0  -8  -3    5.90    5.60
   0  -8  -3   -3.40    5.80
   0   8   3   -9.20    5.00
   0   8   3    2.70    6.40
   0   8   3    3.20    5.80
   0   8   3   -0.40    4.80
  -1  -8  -3  232.68   11.50
  -1  -8  -3  209.38   11.60
  -1  -8  -3  203.78    7.20
  -1  -8  -3  187.18   11.40
   1   8   3  213.18   11.60
   1   8   3  216.28   11.70
   1   8   3  208.78   11.50
   1   8   3  198.48   12.10
  -2  -8  -3   42.20    6.60
  -2  -8  -3   35.60    6.20
  -2  -8  -3   32.10    6.30
   2   8   3   45.00    7.70
   2   8   3   26.60    6.20
   2   8   3   33.40    7.00
   2   8   3   32.60    6.20
  -3  -8  -3  529.35   17.50
  -3  -8  -3  532.25   17.10
  -3  -8  -3  527.85   14.00
  -3  -8  -3  561.34   17.50
  -3  -8  -3  534.05   17.40
   3   8   3  547.75   17.70
   3   8   3  494.15   20.30
   3   8   3  568.54   18.60
   3   8   3  531.75   16.40
   3   8   3  528.95   16.90
  -4  -8  -3   18.40    5.80
  -4  -8  -3   15.10    3.80
  -4  -8  -3   13.20    5.70
  -4  -8  -3   18.60    5.10
  -4  -8  -3   13.50    5.50
   4   8   3   10.60    5.10
   4   8   3   12.80    5.90
   4   8   3   29.20    7.00
   4   8   3   15.80    4.80
   4   8   3    9.60    4.10
  -5  -8  -3   37.50    6.00
  -5  -8  -3   41.50    7.20
  -5  -8  -3   39.90    6.70
  -5  -8  -3   42.70    5.00
  -5  -8  -3   29.30    6.30
   5   8   3   45.30    6.80
   5   8   3   55.89    8.10
   5   8   3   45.20    5.60
   5   8   3   28.60    7.30
  -6  -8  -3   27.80    4.80
  -6  -8  -3   29.90    6.20
  -6  -8  -3   17.50    6.50
  -6  -8  -3   25.00    6.30
  -6  -8  -3   22.60    6.10
   6   8   3   21.10    7.00
   6   8   3   34.10    4.60
   6   8   3   26.10    4.70
   6   8   3   20.00    7.00
   6   8   3   26.60    7.10
   6   8   3   26.20    6.40
  -7  -8  -3   18.40    5.30
  -7  -8  -3   30.30    7.20
  -7  -8  -3   25.90    6.80
  -7  -8  -3   29.50    7.20
  -7  -8  -3   38.80    7.20
   7   8   3   38.40    4.90
   7   8   3   27.60    7.10
   7   8   3   36.30    8.80
   7   8   3   41.70    8.40
   7   8   3   31.50    7.30
   7   8   3   34.30    5.70
  -8  -8  -3   18.80    7.00
  -8  -8  -3   13.90    7.60
  -8  -8  -3   25.30    7.80
  -8  -8  -3    7.00    5.70
  -8  -8  -3   -2.00    7.60
   8   8   3   10.80    7.10
   8   8   3   -0.40    6.80
   8   8   3   -0.40    5.50
   8   8   3    6.60    4.90
   8   8   3   -5.70    7.80
   8   8   3   18.50    8.80
  -9  -8  -3   16.30    7.70
  -9  -8  -3   14.70    6.70
  -9  -8  -3    1.20    7.60
  -9  -8  -3   -6.80    9.30
  -9  -8  -3   -9.70    7.90
   9   8   3   10.50    9.50
   9   8   3  -14.00    6.60
   9   8   3    7.70    6.10
   9   8   3    3.00    8.30
   9   8   3   -3.20    8.10
 -10  -8  -3    9.90    8.30
 -10  -8  -3    3.30    9.40
 -10  -8  -3    2.70    9.50
 -10  -8  -3   15.20   12.50
  10   8   3   25.70   10.20
  10   8   3   16.30   10.10
  10   8   3    4.80    9.90
  11   8   3   12.90   12.90
   2  -9  -3   52.29   12.10
  -2   9   3   35.60    9.90
  -2   9   3   34.90    9.70
  -2   9   3   41.50   11.70
   1  -9  -3  191.98   15.00
   1  -9  -3  168.38   21.00
  -1   9   3  193.38   15.10
  -1   9   3  159.38   13.80
  -1   9   3  186.28   13.60
  -1   9   3  190.88   14.30
   0  -9  -3   19.70    8.60
   0  -9  -3   15.20    8.50
   0  -9  -3   16.80    7.80
   0  -9  -3    7.60    7.60
   0   9   3   11.20    7.10
   0   9   3    4.40    7.80
   0   9   3   -5.50    7.40
   0   9   3    6.10    6.90
  -1  -9  -3  106.69   11.10
  -1  -9  -3   98.29   12.00
  -1  -9  -3  127.49   11.70
  -1  -9  -3   94.99   10.80
   1   9   3  107.59   10.00
   1   9   3   92.89   11.40
   1   9   3  102.69   10.40
   1   9   3   83.29   11.80
  -2  -9  -3   84.19   10.20
  -2  -9  -3   87.59   10.00
  -2  -9  -3   94.79   10.00
  -2  -9  -3   96.49   10.30
   2   9   3   76.99    9.50
   2   9   3   81.29    9.60
   2   9   3   89.09   11.30
   2   9   3   94.49   10.00
  -3  -9  -3  194.88    8.50
  -3  -9  -3  194.48   12.20
  -3  -9  -3  180.68   12.00
  -3  -9  -3  195.98   12.20
  -3  -9  -3  206.48   13.10
   3   9   3  213.98   13.20
   3   9   3  186.58   12.40
   3   9   3  190.98   11.80
   3   9   3  184.88   13.50
  -4  -9  -3   90.69   10.60
  -4  -9  -3   90.09   10.20
  -4  -9  -3   95.39    7.20
  -4  -9  -3  100.79   10.80
   4   9   3  117.59   12.80
   4   9   3   86.69   12.10
   4   9   3   98.29    9.20
   4   9   3  102.69   10.40
   4   9   3   94.49    9.90
  -5  -9  -3   -3.10    6.40
  -5  -9  -3   -5.90    6.80
  -5  -9  -3   -0.20    7.10
  -5  -9  -3   -6.40    6.00
  -5  -9  -3   -0.60    4.00
   5   9   3   11.80    7.60
   5   9   3    1.20    6.40
   5   9   3    0.40    7.40
   5   9   3    2.20    4.80
   5   9   3   -0.10    5.40
  -6  -9  -3    2.70    4.50
  -6  -9  -3   -2.00    6.50
  -6  -9  -3   -2.10    6.20
  -6  -9  -3   -3.10    7.10
  -6  -9  -3   19.60    6.30
   6   9   3   -4.30    5.90
   6   9   3    2.10    4.90
   6   9   3   14.90    8.60
   6   9   3   -3.00    7.50
   6   9   3    7.10    4.00
   6   9   3    3.80    6.40
  -7  -9  -3   84.99   10.90
  -7  -9  -3  121.39   11.60
  -7  -9  -3   82.59   10.00
  -7  -9  -3   62.69    9.20
   7   9   3   93.29    7.40
   7   9   3   82.69   10.40
   7   9   3   77.69    9.10
   7   9   3  105.69   14.10
   7   9   3   96.49   12.00
   7   9   3   81.39   11.60
  -8  -9  -3   17.10    7.50
  -8  -9  -3   -8.80    9.90
  -8  -9  -3   14.80    7.80
  -8  -9  -3   13.70    9.50
  -8  -9  -3   -1.00    5.90
   8   9   3   -5.40    7.70
   8   9   3    4.70    5.40
   8   9   3   -2.30    6.80
   8   9   3    2.30    8.10
   8   9   3   30.60    9.80
  -9  -9  -3   -4.20    9.20
  -9  -9  -3   19.50   10.90
  -9  -9  -3   -3.20    6.70
  -9  -9  -3  -10.00    9.10
   9   9   3   13.60   10.00
   9   9   3  -19.60   18.30
   9   9   3   12.70   10.00
 -10  -9  -3   25.20    9.10
 -10  -9  -3    6.70   10.70
  10   9   3   26.20   13.90
  10   9   3   23.80   12.80
  10   9   3   27.90   11.50
  11   9   3   -1.40   24.70
   1 -10  -3   50.69   12.40
  -1  10   3   25.40   10.70
  -1  10   3   20.20   11.90
   0 -10  -3  123.99   15.60
   0 -10  -3  120.29   13.30
   0  10   3  115.29   13.10
   0  10   3  105.59   12.10
   0  10   3  132.49   16.10
   0  10   3  101.79   13.70
  -1 -10  -3   78.89   11.10
  -1 -10  -3   63.79   11.00
   1  10   3   50.09    9.40
   1  10   3   46.50   10.90
   1  10   3   73.19   11.50
   1  10   3   66.29    9.30
  -2 -10  -3    1.80    5.00
  -2 -10  -3   -4.20    8.30
  -2 -10  -3    0.50    8.30
  -2 -10  -3    1.70    8.60
   2  10   3   12.50    9.20
   2  10   3    9.10    7.50
   2  10   3   11.00    7.50
   2  10   3   -8.30    8.90
   2  10   3   -2.70    6.80
  -3 -10  -3    0.90    7.50
  -3 -10  -3    4.90    7.40
  -3 -10  -3   -0.50    7.80
  -3 -10  -3    5.80    8.80
   3  10   3    6.00    6.90
   3  10   3    9.40    7.00
   3  10   3   -4.80   14.60
   3  10   3    1.20    6.20
   3  10   3    8.70    8.90
  -4 -10  -3  140.29   14.20
  -4 -10  -3  176.78   13.40
  -4 -10  -3  149.09   13.60
  -4 -10  -3  174.58   14.20
   4  10   3  176.78   13.00
   4  10   3  178.38   12.80
   4  10   3  166.88   15.20
   4  10   3  169.68   12.00
   4  10   3  166.38   15.30
  -5 -10  -3   14.00    5.30
  -5 -10  -3    2.00    8.90
  -5 -10  -3   33.50    8.00
  -5 -10  -3   19.30    8.20
  -5 -10  -3   29.60    8.60
   5  10   3   23.20    7.50
   5  10   3   13.10   10.30
   5  10   3   20.30    7.30
   5  10   3   21.00    6.60
   5  10   3   21.10    9.20
  -6 -10  -3   18.20   10.60
  -6 -10  -3   12.40    8.80
  -6 -10  -3   10.60    5.20
  -6 -10  -3   15.30    8.70
  -6 -10  -3    6.60    7.70
   6  10   3    7.20    5.10
   6  10   3    4.70    6.40
   6  10   3   -4.00   10.20
   6  10   3   10.50    8.60
   6  10   3   11.30    8.10
   6  10   3   14.40   10.70
  -7 -10  -3    9.80    8.60
  -7 -10  -3   -3.80    9.80
  -7 -10  -3   -2.70    6.40
  -7 -10  -3   22.20    8.50
   7  10   3   10.50    6.80
   7  10   3    7.60    8.50
   7  10   3   -0.70    5.90
   7  10   3   10.10   10.80
   7  10   3   -2.10    8.90
  -8 -10  -3    0.60    9.50
  -8 -10  -3   12.30   10.10
  -8 -10  -3   19.60    7.00
  -8 -10  -3   24.80   10.30
   8  10   3    9.20    9.30
   8  10   3    9.30   13.50
   8  10   3   -1.70    8.10
   8  10   3   -0.40    9.30
  -9 -10  -3   23.80    8.20
  -9 -10  -3    4.70   11.50
  -9 -10  -3  -25.50   11.60
  -9 -10  -3   -1.10   11.00
   9  10   3   20.10   12.10
   9  10   3    8.70   11.10
   9  10   3   17.20    9.90
 -10 -10  -3   28.00   11.10
 -10 -10  -3  -27.70   13.60
   0 -11  -3   81.39   15.30
  -1 -11  -3  104.99   13.70
   1  11   3  108.09   15.40
   1  11   3   83.79   12.50
  -2 -11  -3   -4.70   10.10
  -2 -11  -3   20.20   17.20
   2  11   3  -10.50   12.10
   2  11   3    1.00    8.60
   2  11   3   -3.30    8.80
   2  11   3  -10.20    9.40
  -3 -11  -3    8.10   10.00
  -3 -11  -3   -1.80    9.60
   3  11   3  -20.70   12.10
   3  11   3  -26.90   10.60
   3  11   3    2.00    9.20
   3  11   3    2.70    8.70
  -4 -11  -3    4.40    9.80
  -4 -11  -3   13.80    9.40
   4  11   3   23.40    9.50
   4  11   3   31.90   12.40
   4  11   3   26.80    8.50
   4  11   3   23.70    8.60
   4  11   3   41.00   11.90
  -5 -11  -3   16.90   10.20
  -5 -11  -3   17.10    9.70
   5  11   3   23.90   13.00
   5  11   3   -8.40    8.30
   5  11   3   17.60    8.30
   5  11   3   10.10    9.20
   5  11   3   16.20   12.10
  -6 -11  -3    3.80    6.10
  -6 -11  -3    1.00    9.80
  -6 -11  -3   -6.40   11.90
   6  11   3   16.50    9.50
   6  11   3   -8.30    9.40
   6  11   3  -18.40   11.00
   6  11   3    5.90    6.40
   6  11   3   19.00    7.60
  -7 -11  -3   29.50   10.70
  -7 -11  -3   17.40    8.40
  -7 -11  -3   24.20   11.30
   7  11   3   33.60   14.70
   7  11   3   17.30    7.50
   7  11   3    4.50    8.20
   7  11   3   14.00   10.70
   7  11   3   17.30   12.00
  -8 -11  -3   17.40   11.70
  -8 -11  -3   -2.80   11.70
  -8 -11  -3    8.10    7.90
   8  11   3    0.00    9.70
   8  11   3   13.00   12.70
   8  11   3   34.60   13.70
  -9 -11  -3   27.40   11.40
  -9 -11  -3   12.70   15.10
   9  11   3   39.90   14.20
  -2 -12  -3   53.89   15.30
  -3 -12  -3   20.30    9.50
   3  12   3    0.80   13.60
  -4 -12  -3   20.10   12.20
   4  12   3   13.10   10.50
   4  12   3   -4.80   11.70
  -5 -12  -3   20.20   12.50
   5  12   3    9.10   10.20
   5  12   3  -14.40   11.50
  -6 -12  -3   20.20   13.80
   6  12   3   10.20    8.30
   6  12   3   12.80   10.40
   6  12   3   16.70   12.90
  -7 -12  -3   26.90   24.10
   7  12   3    7.40   13.70
   7  12   3   12.90   10.80
   8  12   3  -28.30   16.20
  -4 -13  -3    1.90   10.30
  -5 -12   4   20.20    8.20
  -4 -12   4   -8.20    7.80
  -3 -12   4    8.20    9.20
  -2 -12   4   26.60   10.00
  -1 -12   4   64.99   12.20
   0 -12   4   13.80   11.70
  -7 -11   4   12.90   22.40
  -6 -11   4   22.40   11.80
   5  11  -4    0.10   10.50
   4  11  -4   13.90    8.40
   4  11  -4   13.00    9.60
   4  11  -4   24.20    8.70
  -4 -11   4   -0.80    6.50
  -4 -11   4   -1.00   11.10
   3  11  -4   -4.40    7.60
   3  11  -4   -5.70    7.50
   3  11  -4   -4.30    9.40
  -3 -11   4    5.80    6.90
   2  11  -4   11.80    8.70
   2  11  -4   -5.20    7.20
   2  11  -4   -4.90   10.20
  -2 -11   4   -3.20    6.70
   1  11  -4   24.80    7.30
  -1 -11   4    7.30    8.20
   0  11  -4   24.10    7.40
   0 -11   4   28.90    9.50
  -1  11  -4   60.29    9.30
   1 -11   4   91.49   14.10
   2 -11   4   -2.00   12.80
  -8 -10   4   36.20   12.90
   7  10  -4   14.30   14.60
   7  10  -4    3.80   10.00
   7  10  -4    9.20   10.00
  -7 -10   4    2.30   10.40
   6  10  -4   18.00   11.90
   6  10  -4    1.30    8.80
   6  10  -4   -2.90    7.70
   6  10  -4   15.70    9.00
  -6 -10   4   -2.00    9.10
   5  10  -4   12.50    8.60
   5  10  -4   17.20    8.10
   5  10  -4   23.20    7.20
   5  10  -4    8.40    9.60
   5  10  -4    7.50    7.50
  -5 -10   4   16.10    7.40
  -5 -10   4   13.00    8.30
   4  10  -4   15.00    7.00
   4  10  -4   17.90    7.80
   4  10  -4   18.20    6.40
   4  10  -4   15.90    7.80
   4  10  -4   -8.80    9.00
  -4 -10   4   15.30    7.50
  -4 -10   4   14.50    6.90
   3  10  -4   42.50    7.70
   3  10  -4   45.40    7.30
   3  10  -4   64.89   10.00
   3  10  -4   30.60    8.10
   3  10  -4   48.50    7.10
  -3 -10   4   46.60   11.00
  -3 -10   4   50.39    8.40
  -3 -10   4   52.79    8.30
   2  10  -4    7.30    5.20
   2  10  -4   12.30    6.90
   2  10  -4    0.10    5.00
   2  10  -4    6.90    6.50
   2  10  -4   -1.60    7.70
  -2 -10   4    4.50    5.60
  -2 -10   4   -4.30    6.00
  -2 -10   4   -1.00    7.80
  -2 -10   4    7.00    6.80
   1  10  -4   35.10    6.10
   1  10  -4   27.10    8.00
   1  10  -4   32.00    7.80
   1  10  -4   26.90    5.80
   1  10  -4   38.60    8.10
  -1 -10   4   46.20    8.30
  -1 -10   4   31.80    8.60
  -1 -10   4   49.10    7.70
  -1 -10   4   37.70    7.30
   0  10  -4    7.60    5.70
   0  10  -4   13.30    8.00
   0  10  -4    1.30    7.00
   0  10  -4    7.50    5.80
   0 -10   4   -2.00    7.80
   0 -10   4    7.60    6.50
  -1  10  -4   33.90    6.90
  -1  10  -4   31.50    6.40
  -1  10  -4   41.60   10.80
   1 -10   4   35.00    8.30
  -2  10  -4   11.60    6.50
   2 -10   4   -1.50    9.20
   9   9  -4  -17.00   16.00
  -9  -9   4   -1.80   15.40
   8   9  -4   16.90   11.80
   8   9  -4   23.40   10.90
   8   9  -4  -16.60   11.40
  -8  -9   4    7.00   11.50
   7   9  -4   23.00    9.50
   7   9  -4   37.50   12.20
   7   9  -4   42.40   10.00
   7   9  -4   36.10    8.60
   7   9  -4    5.40   10.60
  -7  -9   4   19.70    9.20
  -7  -9   4    7.20    8.70
   6   9  -4   43.20    9.50
   6   9  -4   54.19    8.10
   6   9  -4   50.69    7.40
   6   9  -4   36.10    9.70
   6   9  -4   43.60    8.20
   6   9  -4   44.20    8.40
  -6  -9   4   32.80    7.90
   5   9  -4   45.10    7.40
   5   9  -4   37.80    7.50
   5   9  -4   40.80    9.00
   5   9  -4   40.20    7.10
   5   9  -4   34.60    7.70
  -5  -9   4   41.20    7.10
  -5  -9   4   41.70    7.20
  -5  -9   4   23.60    8.80
  -5  -9   4   38.40    8.30
   4   9  -4   -5.20    5.80
   4   9  -4    3.30    5.30
   4   9  -4   -2.90    5.30
   4   9  -4    4.00    5.10
   4   9  -4   -4.60    7.30
  -4  -9   4   12.00    7.40
  -4  -9   4   -0.20    5.80
  -4  -9   4    1.60    6.60
  -4  -9   4   -7.00    5.10
   3   9  -4  163.58   11.00
   3   9  -4  138.89   10.00
   3   9  -4  154.18    9.00
   3   9  -4  142.49   10.60
   3   9  -4  146.89    9.30
  -3  -9   4  147.29   10.20
  -3  -9   4  150.88   10.60
  -3  -9   4  154.68   11.10
  -3  -9   4  136.29    9.00
   2   9  -4   -0.40    4.00
   2   9  -4    5.70    4.60
   2   9  -4    2.20    5.10
   2   9  -4   -1.70    5.60
   2   9  -4    2.30    5.40
  -2  -9   4    2.90    5.20
  -2  -9   4  -10.20    5.80
  -2  -9   4   -2.50    4.80
  -2  -9   4    4.50    6.20
  -2  -9   4    0.40    4.80
   1   9  -4    3.60    5.60
   1   9  -4    8.10    6.50
   1   9  -4    1.20    4.70
   1   9  -4    7.60    4.20
   1   9  -4    7.50    5.70
  -1  -9   4    5.50    4.80
  -1  -9   4    5.20    5.80
  -1  -9   4    5.20    5.30
  -1  -9   4   -3.50    5.70
  -1  -9   4   -0.40    4.80
   0   9  -4   21.80    5.00
   0   9  -4   27.60    6.30
   0   9  -4   21.70    6.80
   0   9  -4   29.30    6.50
   0   9  -4   17.70    4.60
   0  -9   4   23.10    5.20
   0  -9   4   24.40    6.50
   0  -9   4   27.10    6.50
   0  -9   4   20.90    6.80
   0  -9   4   27.70    5.60
  -1   9  -4   -1.30    6.70
  -1   9  -4    2.40    5.10
  -1   9  -4    9.40    4.60
  -1   9  -4    6.70    4.80
  -1   9  -4   -6.50    5.20
   1  -9   4   -7.00    5.40
   1  -9   4    1.40    6.00
  -2   9  -4   16.40    7.60
  -2   9  -4   -2.60    6.00
  -2   9  -4    8.20    5.10
  -2   9  -4   -4.40    5.00
  -2   9  -4    1.50    5.70
   2  -9   4    5.60    7.20
  -3   9  -4   56.79   10.80
  -3   9  -4   51.19    7.00
   5  -9   4    5.20    8.20
  10   8  -4   11.80   24.90
   9   8  -4   -6.40   13.80
   9   8  -4    8.60   12.00
  -9  -8   4   -7.20   12.80
  -9  -8   4   16.10   12.80
   8   8  -4    6.40    9.20
   8   8  -4    7.40   10.10
   8   8  -4  -14.40   10.20
   8   8  -4    5.30   10.40
   8   8  -4   17.70   12.80
   8   8  -4   28.10   10.40
  -8  -8   4    1.50    8.70
  -8  -8   4   10.60    9.80
   7   8  -4   28.70    8.50
   7   8  -4   26.60    7.80
   7   8  -4   36.20    8.50
   7   8  -4   19.50    7.80
   7   8  -4   25.20   13.00
   7   8  -4   34.90   10.30
  -7  -8   4   26.90    8.00
  -7  -8   4   22.20    8.90
  -7  -8   4   33.80    8.90
  -7  -8   4   36.90   12.40
   6   8  -4   70.09    9.60
   6   8  -4   67.59    9.50
   6   8  -4   62.99    9.10
   6   8  -4   65.09    8.20
   6   8  -4   37.60    7.70
   6   8  -4   63.79    9.30
  -6  -8   4   60.99    8.40
  -6  -8   4   53.79    8.90
  -6  -8   4   73.19    9.00
  -6  -8   4   64.49    8.30
  -6  -8   4   70.59   10.70
   5   8  -4   57.79    8.00
   5   8  -4   52.79    6.90
   5   8  -4   50.59    7.40
   5   8  -4   67.79    8.40
   5   8  -4   68.09    9.20
   5   8  -4   38.10    6.70
  -5  -8   4   50.29    7.20
  -5  -8   4   49.20    6.70
  -5  -8   4   42.40    7.30
  -5  -8   4   69.89   10.00
   4   8  -4   27.20    6.50
   4   8  -4   32.00    5.70
   4   8  -4   22.20    5.40
   4   8  -4   25.40    5.50
   4   8  -4   29.10    5.80
  -4  -8   4   30.80    6.00
  -4  -8   4   33.20    6.10
  -4  -8   4   31.40    6.20
  -4  -8   4   26.50    5.50
   3   8  -4   44.60    6.70
   3   8  -4   43.70    5.70
   3   8  -4   54.39    6.50
   3   8  -4   43.00    6.50
   3   8  -4   41.90    5.60
  -3  -8   4   48.60    6.00
  -3  -8   4   43.80    5.90
  -3  -8   4   47.70    6.40
   2   8  -4   62.19    6.90
   2   8  -4   60.29    6.50
   2   8  -4   59.39    7.70
   2   8  -4   62.89    7.30
   2   8  -4   55.59    6.30
  -2  -8   4   58.79    6.00
  -2  -8   4   56.99    6.70
  -2  -8   4   44.70    6.60
   1   8  -4  171.28    8.00
   1   8  -4  170.78   10.60
   1   8  -4  164.78    9.20
  -1  -8   4  180.48    8.90
  -1  -8   4  193.18    8.30
  -1  -8   4  172.98    9.90
  -1  -8   4  186.28    8.10
   0   8  -4   32.00    5.50
   0   8  -4   30.50    4.60
   0   8  -4   25.10    5.20
   0   8  -4   34.80    6.20
   0   8  -4   37.10    5.50
   0  -8   4   31.10    4.60
   0  -8   4   37.20    5.00
   0  -8   4   42.10    6.60
   0  -8   4   25.90    5.10
   0  -8   4   34.90    5.70
  -1   8  -4   37.30    5.30
  -1   8  -4   41.70    4.90
  -1   8  -4   41.70    7.10
  -1   8  -4   44.70    5.70
   1  -8   4   49.70    7.30
   1  -8   4   42.10    7.30
  -2   8  -4   24.70    4.30
  -2   8  -4   33.70    6.90
  -2   8  -4   29.30    4.90
  -2   8  -4   27.30    4.80
   2  -8   4   30.80    7.10
  -3   8  -4   19.20    5.00
  -3   8  -4    0.10    6.90
   3  -8   4    5.10    6.10
   3  -8   4    2.10    6.30
   4  -8   4   10.00    7.10
   5  -8   4   25.00    8.50
   6  -8   4   75.39   12.30
  10   7  -4  117.49   16.90
   9   7  -4   34.40   11.70
   9   7  -4   13.90   12.40
   9   7  -4   25.00   13.30
   9   7  -4   -3.80   11.40
  -9  -7   4   19.60   10.90
  -9  -7   4    0.80   11.70
   8   7  -4   -1.10    8.10
   8   7  -4    6.70    9.80
   8   7  -4   14.50    9.20
   8   7  -4   -9.90    7.70
   8   7  -4    2.20    8.00
   8   7  -4    7.40   10.60
  -8  -7   4   -2.80    9.20
  -8  -7   4    2.60    8.90
  -8  -7   4   -0.60    8.90
   7   7  -4    2.10    6.60
   7   7  -4   -0.40    6.00
   7   7  -4   -0.50    6.50
   7   7  -4   13.00   12.60
   7   7  -4   10.80    6.80
   7   7  -4    1.30    7.90
  -7  -7   4   -3.30    6.40
  -7  -7   4  -14.80    7.10
  -7  -7   4    3.70    7.50
  -7  -7   4   -1.90    7.30
  -7  -7   4    3.90    6.80
   6   7  -4   -2.40    5.00
   6   7  -4    1.20    5.80
   6   7  -4   -5.10    4.80
   6   7  -4   -4.50    5.30
   6   7  -4    1.10    5.60
   6   7  -4    5.60    6.40
  -6  -7   4   -1.80    5.00
  -6  -7   4    6.10    5.80
  -6  -7   4   -0.30    5.70
  -6  -7   4   -3.70    5.00
  -6  -7   4    5.30    5.60
   5   7  -4   54.49    8.10
   5   7  -4   78.49   13.40
   5   7  -4   60.99    7.70
   5   7  -4   70.99    6.70
   5   7  -4   54.29    7.50
   5   7  -4   68.69    8.40
  -5  -7   4   68.79    7.20
  -5  -7   4   75.39    8.20
  -5  -7   4   73.09    8.40
  -5  -7   4   64.49    7.80
   4   7  -4   65.79    7.10
   4   7  -4   48.90    4.70
   4   7  -4   65.79    7.60
   4   7  -4   58.29    9.40
   4   7  -4   64.89    8.90
  -4  -7   4   57.19    6.70
  -4  -7   4   50.19    6.90
  -4  -7   4   54.39    7.40
  -4  -7   4   56.89    6.20
   3   7  -4   16.10    4.20
   3   7  -4   13.30    3.80
   3   7  -4   13.10    3.80
   3   7  -4   11.30    4.50
   3   7  -4   15.50    4.60
  -3  -7   4   14.10    4.50
  -3  -7   4   11.20    4.00
   2   7  -4    1.20    3.00
   2   7  -4   -3.80    3.40
   2   7  -4   -1.00    3.50
   2   7  -4    1.10    2.90
   2   7  -4    4.60    3.20
  -2  -7   4   -2.10    3.60
  -2  -7   4   -1.50    3.70
  -2  -7   4    4.10    3.20
  -2  -7   4    2.40    2.90
   1   7  -4  174.58    9.60
   1   7  -4  166.58    9.20
   1   7  -4  179.68    8.00
   1   7  -4  169.48    6.90
   1   7  -4  159.38    7.10
  -1  -7   4  172.28    7.70
  -1  -7   4  177.88    9.20
  -1  -7   4  182.28    8.20
  -1  -7   4  187.48    7.20
  -1  -7   4  169.28    7.20
   0   7  -4  102.09    6.50
   0   7  -4   95.09    5.70
   0   7  -4   94.99    5.60
   0   7  -4   99.29    6.30
   0   7  -4   97.19    8.00
   0  -7   4  111.79    6.70
   0  -7   4  105.29    6.10
   0  -7   4   97.99    5.50
   0  -7   4   94.39    5.50
   0  -7   4  106.19    8.00
  -1   7  -4   85.79    8.30
  -1   7  -4   73.39    5.20
  -1   7  -4   69.69    5.90
  -1   7  -4   77.69    5.80
  -1   7  -4   84.49    6.00
   1  -7   4   95.09    7.80
   1  -7   4   74.99    6.10
  -2   7  -4   32.00    6.40
  -2   7  -4   14.10    3.70
  -2   7  -4   19.20    3.90
   2  -7   4   18.60    5.40
   2  -7   4   27.20    6.10
   3  -7   4   10.10    6.10
   4  -7   4    9.90    6.00
   5  -7   4   14.50    7.40
   6  -7   4   11.50    8.50
   7  -7   4    1.10    8.00
  10   6  -4  111.59   16.40
 -10  -6   4   66.79   14.40
   9   6  -4  -11.50   10.10
   9   6  -4   26.60   13.10
   9   6  -4   18.70   11.90
   9   6  -4   18.80   10.90
  -9  -6   4   -3.30    9.60
  -9  -6   4   -7.10   12.10
  -9  -6   4   -8.60    9.80
   8   6  -4    4.90    8.90
   8   6  -4   10.10    8.50
   8   6  -4    3.40    8.70
   8   6  -4   -7.30    8.20
   8   6  -4   10.50    7.90
   8   6  -4    4.30    8.20
  -8  -6   4   -8.80    8.30
  -8  -6   4    4.30    8.20
  -8  -6   4    2.90    8.10
  -8  -6   4    9.80    8.20
  -8  -6   4   -0.70    6.60
   7   6  -4  -12.10    6.80
   7   6  -4   -8.30    5.90
   7   6  -4    8.40    7.60
   7   6  -4   -9.00    6.50
   7   6  -4   -0.10    6.60
   7   6  -4   -2.50    5.60
  -7  -6   4    4.50    5.60
  -7  -6   4  -10.20    5.90
  -7  -6   4   -1.50    5.10
  -7  -6   4   -6.70    6.40
  -7  -6   4   -7.80    6.20
  -7  -6   4   -5.90    5.90
   6   6  -4   -1.60    5.50
   6   6  -4   -2.50    5.70
   6   6  -4   12.10    4.90
   6   6  -4   -2.10    5.60
   6   6  -4   -1.00    4.90
   6   6  -4    3.60    5.80
  -6  -6   4    7.80    5.10
  -6  -6   4   -0.50    4.60
  -6  -6   4    1.50    4.50
  -6  -6   4   -1.10    4.80
  -6  -6   4   -0.10    4.90
   5   6  -4   55.29    7.50
   5   6  -4   64.89    6.30
   5   6  -4   62.49    6.40
   5   6  -4   70.79    8.00
   5   6  -4   71.49    7.40
  -5  -6   4   57.79    6.80
  -5  -6   4   59.59    6.50
  -5  -6   4   53.59    7.40
  -5  -6   4   54.89    6.90
   4   6  -4   83.79    7.20
   4   6  -4   83.19    6.10
   4   6  -4   74.19    6.60
   4   6  -4   64.79    6.30
   4   6  -4   86.69    5.00
   4   6  -4   79.19    6.80
  -4  -6   4   80.59    5.90
  -4  -6   4   82.19    9.10
  -4  -6   4   85.99    7.40
  -4  -6   4   79.49    6.50
  -4  -6   4   79.09    6.40
   3   6  -4  181.88    8.60
   3   6  -4  187.38    8.00
   3   6  -4  191.88    8.40
   3   6  -4  191.38    7.80
   3   6  -4  191.18    6.10
   3   6  -4  171.68    7.40
  -3  -6   4  190.58    8.40
  -3  -6   4  187.08    7.80
  -3  -6   4  193.28    7.50
  -3  -6   4  175.08    8.00
   2   6  -4  116.79    6.10
   2   6  -4   98.69    5.40
   2   6  -4   99.99    6.60
   2   6  -4  119.39    6.40
   2   6  -4  103.09    5.50
  -2  -6   4  117.29    6.20
  -2  -6   4  111.79    5.70
   1   6  -4   48.50    3.90
   1   6  -4   40.90    3.80
   1   6  -4   49.30    4.60
   1   6  -4   44.00    4.90
   1   6  -4   34.60    5.10
  -1  -6   4   47.00    4.60
  -1  -6   4   42.00    4.80
  -1  -6   4   43.00    3.90
  -1  -6   4   46.50    4.20
  -1  -6   4   41.10    5.00
   0   6  -4  104.29    4.90
   0   6  -4  100.59    5.40
   0   6  -4  101.59    5.40
   0   6  -4  104.49    6.70
   0   6  -4  100.79    4.80
   0  -6   4  106.69    5.60
   0  -6   4  100.09    5.30
   0  -6   4   94.89    7.10
   0  -6   4  110.39    7.00
   0  -6   4  106.69    4.80
  -1   6  -4   72.59    4.20
  -1   6  -4   63.09    4.70
  -1   6  -4   74.49    4.80
  -1   6  -4   65.09    6.50
  -1   6  -4   65.39    4.40
   1  -6   4   72.39    6.40
  -2   6  -4 1506.25   34.20
   2  -6   4 1462.25   33.10
   2  -6   4 1397.06   34.80
   3  -6   4   21.90    6.00
   3  -6   4   23.60    5.70
   4  -6   4   -6.40    5.00
  -5   6  -4   16.10    3.50
   5  -6   4   17.30    7.30
  -6   6  -4    1.30    4.50
   6  -6   4    0.10    6.20
  -7   6  -4  120.39   13.50
   7  -6   4   86.49   12.40
   8  -6   4   81.59   13.80
 -10  -5   4   17.30   12.90
   9   5  -4   16.10   11.70
   9   5  -4   28.20    9.80
   9   5  -4   -4.70   10.00
  -9  -5   4    3.40    8.80
  -9  -5   4    7.20    9.30
  -9  -5   4   -0.30   10.60
  -9  -5   4   28.40    9.30
   8   5  -4   81.89   10.70
   8   5  -4   71.99   10.00
   8   5  -4   92.89   13.50
   8   5  -4   75.19   10.70
   8   5  -4   92.79   12.70
   8   5  -4  101.09   13.90
  -8  -5   4   75.69   10.40
  -8  -5   4   86.19   10.20
  -8  -5   4   93.19   11.50
  -8  -5   4   97.89   12.90
  -8  -5   4   71.39   10.30
  -8  -5   4  103.89   13.80
   7   5  -4   14.90    5.70
   7   5  -4   19.20    6.20
   7   5  -4    7.60    7.10
   7   5  -4   21.00    6.70
   7   5  -4   15.60    6.70
   7   5  -4   20.10    6.80
  -7  -5   4   18.90    6.40
  -7  -5   4   18.50    6.70
  -7  -5   4   21.60    6.40
  -7  -5   4    6.90    6.20
  -7  -5   4    8.10    5.10
  -7  -5   4   19.70    6.40
   6   5  -4    0.70    4.80
   6   5  -4    6.60    5.10
   6   5  -4   -0.60    4.60
   6   5  -4   -3.30    4.50
   6   5  -4   -7.20    3.90
   6   5  -4    5.90    5.60
  -6  -5   4   -1.80    4.60
  -6  -5   4   -3.40    4.70
  -6  -5   4   -0.80    4.30
  -6  -5   4   -1.70    4.60
  -6  -5   4    1.60    4.60
  -6  -5   4    5.10    3.90
   5   5  -4    8.70    4.10
   5   5  -4    6.70    3.70
   5   5  -4   14.40    4.20
   5   5  -4   14.00    4.10
   5   5  -4    2.50    4.00
   5   5  -4    8.80    4.40
  -5  -5   4   13.00    4.20
  -5  -5   4    9.50    3.50
  -5  -5   4   14.50    4.00
  -5  -5   4   11.20    4.00
   4   5  -4    7.80    2.60
   4   5  -4    5.30    2.90
   4   5  -4    4.80    3.30
   4   5  -4    2.20    3.10
   4   5  -4    6.60    3.50
   4   5  -4    3.00    2.80
  -4  -5   4    7.70    3.40
  -4  -5   4    3.50    2.90
  -4  -5   4    4.90    2.90
  -4  -5   4    5.50    3.30
  -4  -5   4    6.60    3.20
   3   5  -4   20.40    3.50
   3   5  -4   23.30    3.70
   3   5  -4   21.80    3.10
   3   5  -4   32.20    4.10
   3   5  -4   23.10    3.50
   3   5  -4   22.00    3.50
  -3  -5   4   28.40    3.80
  -3  -5   4   24.80    4.60
  -3  -5   4   17.90    3.90
  -3  -5   4   24.60    3.60
  -3  -5   4   21.10    3.70
   2   5  -4    3.10    2.20
   2   5  -4    5.30    2.60
   2   5  -4    6.00    2.40
   2   5  -4    4.00    1.60
   2   5  -4    6.40    2.60
   2   5  -4    6.10    2.40
  -2  -5   4    6.60    2.80
  -2  -5   4   10.20    2.80
  -2  -5   4    6.20    2.40
  -2  -5   4    1.80    2.50
   1   5  -4   37.00    3.30
   1   5  -4   31.10    3.10
   1   5  -4   37.50    3.70
   1   5  -4   32.20    3.70
   1   5  -4   39.50    4.20
  -1  -5   4   36.10    4.20
  -1  -5   4   32.00    3.40
  -1  -5   4   32.70    3.10
  -1  -5   4   31.60    3.70
  -1  -5   4   30.50    3.70
   0   5  -4    3.60    2.00
   0   5  -4    2.60    2.00
   0   5  -4    6.90    2.80
   0   5  -4    4.60    1.70
   0   5  -4    3.70    1.70
   0  -5   4    2.30    2.10
   0  -5   4    4.20    2.70
   0  -5   4    5.20    2.10
   0  -5   4    3.70    1.70
  -1   5  -4   13.00    3.20
  -1   5  -4   17.80    2.30
   1  -5   4   19.20    4.70
   1  -5   4   17.30    3.60
   2  -5   4  331.97   12.80
   2  -5   4  338.67   11.50
   3  -5   4  219.28    9.80
   3  -5   4  197.58   10.70
  -4   5  -4  251.67    7.60
   4  -5   4  228.78   12.30
  -5   5  -4   15.00    3.20
   5  -5   4   12.10    6.60
  -6   5  -4   71.49    6.70
   6  -5   4   68.29   10.10
  -7   5  -4   37.10    6.20
   7  -5   4   33.90    9.30
  -8   5  -4    3.30    7.80
   8  -5   4    8.80    8.30
  10   4  -4   15.90   15.50
  10   4  -4   21.40   18.70
 -10  -4   4  -10.70   12.70
   9   4  -4    5.20   11.30
  -9  -4   4    7.30    7.60
  -9  -4   4   -1.10    9.30
  -9  -4   4  -11.70   10.90
  -9  -4   4   12.30    9.30
   8   4  -4   62.09    9.00
   8   4  -4   92.99   13.00
   8   4  -4   59.89    9.40
   8   4  -4   63.29   15.20
   8   4  -4   51.79   10.30
  -8  -4   4   90.29   11.30
  -8  -4   4   57.89    8.90
  -8  -4   4   62.29    9.30
  -8  -4   4   61.39    9.60
   7   4  -4   19.50    6.50
   7   4  -4   19.70    6.50
   7   4  -4   29.00    7.10
   7   4  -4   17.70    5.90
   7   4  -4   26.00    6.50
   7   4  -4   26.70    7.70
  -7  -4   4   22.70    6.00
  -7  -4   4   21.50    6.50
  -7  -4   4   18.50    6.40
  -7  -4   4   21.00    5.50
  -7  -4   4   19.40    6.00
  -7  -4   4   13.90    6.00
   6   4  -4    4.70    4.90
   6   4  -4    6.50    4.70
   6   4  -4    7.60    4.80
   6   4  -4    5.00    5.00
   6   4  -4    4.40    4.80
   6   4  -4    3.50    5.60
  -6  -4   4    7.20    4.50
  -6  -4   4    0.60    4.10
  -6  -4   4   -4.60    4.00
  -6  -4   4    3.60    4.20
  -6  -4   4    9.20    4.70
  -6  -4   4   -0.80    3.40
   5   4  -4  112.39    7.50
   5   4  -4   91.29    7.00
   5   4  -4   99.09    6.70
   5   4  -4   98.49    7.30
   5   4  -4  110.69    7.30
   5   4  -4  107.99    6.90
  -5  -4   4  102.69    6.80
  -5  -4   4  114.89    7.10
  -5  -4   4  107.29    7.50
  -5  -4   4   79.29    6.10
  -5  -4   4  105.49    7.20
   4   4  -4    1.30    2.80
   4   4  -4    9.00    3.00
   4   4  -4    1.10    2.40
   4   4  -4    9.50    3.00
   4   4  -4    4.50    2.70
   4   4  -4    8.20    2.80
  -4  -4   4   -3.60    2.80
  -4  -4   4    7.50    3.00
  -4  -4   4    4.00    2.70
  -4  -4   4    4.80    2.80
   3   4  -4   80.29    4.20
   3   4  -4   82.89    4.80
   3   4  -4   82.59    5.30
   3   4  -4   78.09    5.00
   3   4  -4   84.29    4.90
   3   4  -4   79.29    4.80
  -3  -4   4   79.69    4.90
  -3  -4   4   78.49    5.10
  -3  -4   4   81.79    5.10
  -3  -4   4   78.99    4.90
  -3  -4   4   83.59    5.60
   2   4  -4  104.79    4.90
   2   4  -4  111.29    5.70
   2   4  -4  103.29    4.90
   2   4  -4  107.79    4.80
   2   4  -4  107.89    4.00
   2   4  -4  105.39    4.70
  -2  -4   4  100.59    4.60
  -2  -4   4   99.99    4.90
  -2  -4   4  101.39    4.80
  -2  -4   4  101.69    5.60
   1   4  -4    0.40    1.70
   1   4  -4   -2.50    1.70
   1   4  -4   -2.30    1.40
   1   4  -4    1.00    1.00
   1   4  -4   -1.60    1.60
   1   4  -4   -0.60    1.60
  -1  -4   4    1.80    1.90
  -1  -4   4   -1.10    1.70
  -1  -4   4   -1.80    1.70
  -1  -4   4   -0.40    1.50
  -1  -4   4   -0.70    1.60
  -1  -4   4   -0.70    1.50
   0   4  -4  273.57    8.90
   0   4  -4  277.07    7.20
   0   4  -4  273.97    7.20
   0   4  -4  270.77    6.70
   0   4  -4  267.37    6.80
   0  -4   4  266.77    7.10
   0  -4   4  287.77    9.50
  -1   4  -4  223.78    8.20
   1  -4   4  221.98    8.90
   1  -4   4  225.08    8.40
  -2   4  -4   92.29    3.60
   2  -4   4   99.49    6.60
   2  -4   4   94.69    5.60
  -3   4  -4  645.04   14.20
   3  -4   4  638.54   17.20
   3  -4   4  640.34   18.80
  -4   4  -4 1329.87   26.60
   4  -4   4 1261.57   32.00
  -5   4  -4   44.20    4.40
   5  -4   4   39.50    7.10
  -6   4  -4    3.80    3.50
   6  -4   4    7.40    5.10
   6  -4   4   -0.50    5.60
  -7   4  -4    5.30    4.80
  -7   4  -4    5.90    5.40
  -7   4  -4   21.50    4.60
  -7   4  -4   12.30    4.20
   7  -4   4    7.90    7.00
   7  -4   4    8.40    7.60
  -8   4  -4   -9.20    5.70
  -8   4  -4  -14.10    7.10
   8  -4   4   20.10    9.80
   8  -4   4   -5.80    7.70
  -9   4  -4   70.99   10.10
   9  -4   4   72.49   12.10
  10   3  -4    8.00    6.50
  10   3  -4    3.60   15.90
 -10  -3   4    9.80   14.00
   9   3  -4   24.00   10.70
   9   3  -4   15.30   12.60
  -9  -3   4    1.70   10.00
  -9  -3   4    9.90   11.10
   8   3  -4    4.40    7.50
   8   3  -4   16.10    8.60
   8   3  -4    2.20    8.10
  -8  -3   4    2.00    7.50
  -8  -3   4   10.40    7.40
  -8  -3   4   24.90    7.60
  -8  -3   4   15.60    6.20
  -8  -3   4   30.20    8.40
  -8  -3   4    8.80    6.60
   7   3  -4   14.90    6.10
   7   3  -4    1.30    5.40
   7   3  -4   16.50    6.30
   7   3  -4    8.10    5.70
   7   3  -4   11.40    6.90
  -7  -3   4    8.40    6.30
  -7  -3   4    7.60    5.60
  -7  -3   4    6.90    5.70
  -7  -3   4   13.00    5.00
  -7  -3   4   16.70    5.50
  -7  -3   4   18.90    5.40
   6   3  -4   12.20    5.10
   6   3  -4   16.30    5.60
   6   3  -4    6.40    4.80
   6   3  -4   23.20    5.30
   6   3  -4    9.00    5.10
   6   3  -4   19.70    5.10
  -6  -3   4   13.70    4.60
  -6  -3   4   14.00    5.30
  -6  -3   4   10.60    4.90
  -6  -3   4   13.80    4.60
  -6  -3   4   17.30    4.70
  -6  -3   4   15.00    4.70
   5   3  -4   13.00    4.30
   5   3  -4    1.90    3.10
   5   3  -4   -2.10    3.80
   5   3  -4    7.90    4.00
   5   3  -4    5.90    3.60
   5   3  -4    5.00    3.80
  -5  -3   4   10.40    3.90
  -5  -3   4    0.50    3.20
  -5  -3   4    4.30    3.70
  -5  -3   4   10.80    3.90
  -5  -3   4    9.50    3.40
  -5  -3   4    7.20    3.80
   4   3  -4   13.40    3.10
   4   3  -4   11.10    3.40
   4   3  -4   12.80    3.40
   4   3  -4   11.80    3.00
   4   3  -4   12.00    3.20
   4   3  -4   10.40    3.20
  -4  -3   4   11.30    3.20
  -4  -3   4   13.90    3.20
  -4  -3   4   10.00    3.20
  -4  -3   4   14.90    3.30
  -4  -3   4   18.60    3.70
   3   3  -4  254.47    8.80
   3   3  -4  264.67    8.30
   3   3  -4  267.47    8.20
   3   3  -4  265.77    8.30
   3   3  -4  256.37    8.20
   3   3  -4  258.17    7.70
  -3  -3   4  264.77    8.20
  -3  -3   4  265.67    8.20
  -3  -3   4  261.37    8.30
  -3  -3   4  259.27    8.80
  -3  -3   4  259.77    8.10
   2   3  -4    2.20    1.70
   2   3  -4    4.10    1.40
   2   3  -4    1.80    1.80
   2   3  -4    2.80    1.80
   2   3  -4    4.60    2.10
   2   3  -4    3.20    1.70
  -2  -3   4    4.70    1.80
  -2  -3   4    2.50    1.90
  -2  -3   4    2.30    1.70
  -2  -3   4    5.10    1.70
   1   3  -4  233.98    6.30
   1   3  -4  226.98    6.20
   1   3  -4  221.58    7.30
   1   3  -4  218.38    6.20
   1   3  -4  224.18    6.30
   1   3  -4  232.28    5.90
  -1  -3   4  223.08    6.30
  -1  -3   4  227.48    6.10
  -1  -3   4  213.28    7.50
  -1  -3   4  224.18    6.20
  -1  -3   4  225.38    6.20
  -1  -3   4  230.78    5.60
  -1  -3   4  229.98    7.50
   0   3  -4  753.52   15.30
   0   3  -4  748.63   15.10
   0   3  -4  767.42   15.30
   0   3  -4  761.92   17.20
   0   3  -4  755.02   15.10
   0  -3   4  769.12   15.70
   0  -3   4  758.72   15.20
   0  -3   4  769.12   17.90
  -1   3  -4    5.90    1.90
  -1   3  -4    5.40    1.40
   1  -3   4    2.80    2.40
   1  -3   4    7.70    2.20
   1  -3   4    5.50    2.40
  -2   3  -4  125.29    4.30
   2  -3   4  115.89    5.80
   2  -3   4  119.29    5.10
   2  -3   4  114.99    6.40
  -3   3  -4  331.27    8.70
   3  -3   4  329.37   11.70
   3  -3   4  329.47   10.70
  -4   3  -4  595.14   14.10
   4  -3   4  558.74   17.60
  -5   3  -4  837.72   19.10
   5  -3   4  773.02   23.10
   5  -3   4  841.22   20.20
  -6   3  -4    5.30    3.20
  -6   3  -4    7.40    3.60
  -6   3  -4   12.50    2.90
  -6   3  -4    9.60    2.90
   6  -3   4    4.90    4.60
   6  -3   4    6.60    5.70
  -7   3  -4   45.50    5.00
  -7   3  -4   34.90    5.60
  -7   3  -4   38.80    4.70
  -7   3  -4   35.50    5.40
  -7   3  -4   37.00    5.20
   7  -3   4   38.60    7.00
  -8   3  -4   79.89    7.80
  -8   3  -4   59.99    9.90
  -8   3  -4   63.79    8.30
  -8   3  -4   56.79    7.10
  -8   3  -4   67.79    8.90
  -8   3  -4   80.49    8.20
   8  -3   4   64.99   11.00
   8  -3   4   47.60    9.00
  -9   3  -4  -10.90    7.90
  -9   3  -4   -7.60    6.80
   9  -3   4    6.70    8.60
  10  -3   4    0.10    9.00
  10   2  -4  -32.40   16.80
  10   2  -4   10.60    6.80
   9   2  -4   25.40   19.00
   9   2  -4    1.20   11.10
   9   2  -4   -2.60    6.00
  -9  -2   4   -4.30   10.00
  -9  -2   4   13.50    9.70
  -9  -2   4   12.40    9.70
   8   2  -4   32.20    8.80
   8   2  -4    9.80    8.40
   8   2  -4    9.10    7.80
   8   2  -4   22.40    8.70
  -8  -2   4   17.00    8.00
  -8  -2   4   10.30    8.10
  -8  -2   4   10.20    7.30
  -8  -2   4   -5.20    7.60
  -8  -2   4   -4.80    7.00
   7   2  -4   19.00    6.20
   7   2  -4   19.10    6.60
   7   2  -4   10.80    5.80
   7   2  -4   17.50    5.70
   7   2  -4   14.10    6.90
  -7  -2   4    8.70    5.70
  -7  -2   4   11.90    5.90
  -7  -2   4   16.30    6.30
  -7  -2   4   10.40    5.60
  -7  -2   4   17.40    5.10
  -7  -2   4   18.90    6.20
   6   2  -4    8.10    4.60
   6   2  -4   11.80    8.10
   6   2  -4   11.00    4.10
  -6  -2   4    4.00    4.20
  -6  -2   4   11.00    4.60
  -6  -2   4    5.60    4.50
  -6  -2   4    7.60    4.70
  -6  -2   4    7.70    4.30
  -6  -2   4   12.50    5.20
   5   2  -4   21.60    4.10
   5   2  -4   14.60    4.60
   5   2  -4   23.10    3.90
   5   2  -4   20.80    7.60
   5   2  -4   25.20    5.20
  -5  -2   4   20.40    4.50
  -5  -2   4   21.20    4.50
  -5  -2   4   26.40    4.50
  -5  -2   4   24.00    4.20
  -5  -2   4   26.70    4.50
   4   2  -4  359.16   10.60
   4   2  -4  362.46   10.70
   4   2  -4  353.76   10.90
   4   2  -4  349.17   11.60
   4   2  -4  362.76   10.80
  -4  -2   4  355.36   11.40
  -4  -2   4  355.86   10.70
  -4  -2   4  344.47   10.60
  -4  -2   4  365.76   10.90
  -4  -2   4  349.17   10.80
   3   2  -4   10.70    2.50
   3   2  -4   15.80    2.90
   3   2  -4   12.90    2.50
   3   2  -4   12.00    2.80
   3   2  -4   12.30    2.50
  -3  -2   4   15.70    2.70
  -3  -2   4   12.90    2.50
  -3  -2   4   12.80    2.70
  -3  -2   4   19.30    3.30
  -3  -2   4   10.20    2.60
   2   2  -4  354.66    9.20
   2   2  -4  355.46    9.10
   2   2  -4  355.36    9.00
   2   2  -4  349.96    8.90
   2   2  -4  344.37    9.30
   2   2  -4  341.77    9.80
  -2  -2   4  359.76    9.10
  -2  -2   4  350.46    9.10
  -2  -2   4  357.86    9.20
  -2  -2   4  340.47    9.00
  -2  -2   4  359.56    9.80
   1   2  -4 1882.21   35.80
   1   2  -4 1909.61   36.00
   1   2  -4 1920.11   37.00
   1   2  -4 1864.31   35.90
   1   2  -4 1911.11   35.80
  -1  -2   4 1883.61   35.80
  -1  -2   4 1856.31   37.20
  -1  -2   4 1831.62   35.80
  -1  -2   4 1903.01   37.10
  -1  -2   4 1892.11   35.80
  -1  -2   4 2005.90   35.10
   0   2  -4  352.66    7.80
   0   2  -4  354.36    7.70
   0   2  -4  355.06    9.00
   0   2  -4  348.47    7.70
   0   2  -4  353.76    7.80
   0  -2   4  352.06    9.80
   0  -2   4  354.66    7.70
   0  -2   4  350.56    8.80
   0  -2   4  365.96    7.70
   0  -2   4  354.36    7.70
   0  -2   4  349.96    9.20
  -1   2  -4 1228.58   25.00
   1  -2   4 1208.88   26.10
   1  -2   4 1282.27   24.60
   1  -2   4 1245.58   26.00
  -2   2  -4   75.49    3.60
  -2   2  -4   73.89    3.90
   2  -2   4   74.59    3.80
   2  -2   4   76.79    4.50
   2  -2   4   74.09    4.90
  -3   2  -4    7.10    1.70
   3  -2   4   14.00    3.50
   3  -2   4    6.30    2.40
   3  -2   4   10.10    2.60
  -4   2  -4  184.38    6.70
   4  -2   4  187.98    7.30
   4  -2   4  184.08    8.80
  -5   2  -4 1012.80   22.50
  -5   2  -4 1000.60   20.20
   5  -2   4 1020.00   23.40
   5  -2   4  996.80   26.10
  -6   2  -4    5.10    3.00
  -6   2  -4    4.70    2.90
  -6   2  -4    4.40    3.10
  -6   2  -4    8.30    2.80
  -6   2  -4    3.50    3.20
   6  -2   4    5.70    4.20
   6  -2   4    6.20    4.20
  -7   2  -4   15.60    8.00
  -7   2  -4   24.40    4.00
  -7   2  -4   25.90    4.00
  -7   2  -4   20.30    4.40
  -7   2  -4   15.00    4.10
   7  -2   4   17.60    6.90
   7  -2   4   22.40    5.10
  -8   2  -4   -0.60    4.40
  -8   2  -4    0.80    5.20
  -8   2  -4    2.70    4.50
  -8   2  -4    3.40    4.90
  -8   2  -4    6.50    4.70
  -8   2  -4    5.90    7.20
   8  -2   4   -0.30    6.70
   8  -2   4    0.60    5.80
   8  -2   4   16.50    5.90
   8  -2   4    8.80    6.80
  -9   2  -4   -3.20    9.50
  -9   2  -4    2.80    6.90
  -9   2  -4    6.60    7.00
  -9   2  -4  -13.60    6.20
   9  -2   4    3.80    8.00
   9  -2   4   -9.90    8.80
 -10   2  -4    2.40   17.20
  10  -2   4   -3.30    7.80
  10   1  -4   12.20    9.30
  10   1  -4   35.90   19.90
   9   1  -4   16.00   13.00
   9   1  -4   13.10    6.90
   9   1  -4    4.00   12.40
  -9  -1   4   19.00   10.60
  -9  -1   4   21.60   11.00
  -9  -1   4    2.00   12.30
   8   1  -4   42.50   10.00
   8   1  -4   59.89   11.00
   8   1  -4   62.69   10.00
  -8  -1   4   55.79    9.80
  -8  -1   4   63.59    9.70
  -8  -1   4   93.29   12.20
  -8  -1   4   55.29    9.20
   7   1  -4    1.40    5.70
   7   1  -4    1.40    7.10
   7   1  -4    2.20    5.60
   7   1  -4    2.80    6.20
   7   1  -4   -6.30    5.40
  -7  -1   4   -3.00    5.90
  -7  -1   4    0.70    6.20
  -7  -1   4    4.40    6.10
  -7  -1   4    3.00    6.00
   6   1  -4   53.59    7.50
   6   1  -4   51.49    7.30
   6   1  -4   54.69    7.70
   6   1  -4   47.40    7.40
  -6  -1   4   54.79    7.30
  -6  -1   4   55.69    7.00
  -6  -1   4   59.39    7.20
  -6  -1   4   59.99    7.60
  -6  -1   4   56.79    7.50
   5   1  -4  456.55   14.40
   5   1  -4  437.76   13.50
   5   1  -4  444.86   14.20
   5   1  -4  446.56   13.50
  -5  -1   4  465.25   14.10
  -5  -1   4  455.55   14.00
  -5  -1   4  451.85   13.60
  -5  -1   4  458.15   13.90
  -5  -1   4  447.76   14.40
   4   1  -4    9.40    3.60
   4   1  -4    4.00    2.80
   4   1  -4    1.70    2.50
   4   1  -4    7.20    2.80
   4   1  -4    2.70    2.60
   4   1  -4    1.80    2.90
  -4  -1   4    7.50    3.00
  -4  -1   4    7.30    3.20
  -4  -1   4    2.70    2.70
  -4  -1   4   -0.60    2.70
  -4  -1   4    4.60    3.30
   3   1  -4  604.34   15.00
   3   1  -4  589.04   14.30
   3   1  -4  608.24   14.40
   3   1  -4  589.64   15.50
   3   1  -4  592.94   14.40
  -3  -1   4  591.14   14.60
  -3  -1   4  587.24   14.50
  -3  -1   4  597.04   14.60
  -3  -1   4  596.64   14.50
  -3  -1   4  612.24   15.20
   2   1  -4  186.68    6.00
   2   1  -4  184.28    6.00
   2   1  -4  179.88    6.00
   2   1  -4  189.68    6.80
  -2  -1   4  185.98    6.30
  -2  -1   4  188.28    6.10
  -2  -1   4  185.98    6.10
  -2  -1   4  186.78    6.50
  -2  -1   4  188.08    6.20
   1   1  -4   13.20    1.80
   1   1  -4   12.90    1.80
   1   1  -4   13.80    2.10
   1   1  -4   10.80    1.80
  -1  -1   4   14.60    2.10
  -1  -1   4   14.90    2.10
  -1  -1   4   13.80    2.00
  -1  -1   4   13.60    2.00
  -1  -1   4   14.40    1.90
  -1  -1   4   14.70    2.00
   0   1  -4 1995.80   37.10
   0   1  -4 1993.40   37.10
   0   1  -4 2063.29   38.30
   0   1  -4 1941.21   36.80
   0   1  -4 1981.20   37.70
   0   1  -4 1969.80   36.80
   0  -1   4 2011.80   36.80
   0  -1   4 1938.11   37.70
   0  -1   4 1934.61   36.80
   0  -1   4 2001.60   37.80
   0  -1   4 2034.90   37.00
   0  -1   4 2023.40   38.60
  -1   1  -4  624.64   13.20
   1  -1   4  617.14   13.40
   1  -1   4  625.24   14.60
   1  -1   4  626.14   14.10
   1  -1   4  636.64   13.30
  -2   1  -4 3227.78   59.99
  -2   1  -4 3207.78   60.69
   2  -1   4 3293.77   60.59
   2  -1   4 3335.57   61.89
   2  -1   4 3238.78   61.99
  -3   1  -4 2809.52   53.39
   3  -1   4 2832.62   54.99
   3  -1   4 2796.42   53.39
  -4   1  -4    1.50    1.70
   4  -1   4   -0.70    2.20
   4  -1   4    5.90    2.70
  -5   1  -4   85.99    3.90
  -5   1  -4   86.99    3.80
  -5   1  -4   81.99    5.10
   5  -1   4   74.89    6.30
   5  -1   4   79.29    5.40
   5  -1   4   87.99    5.80
  -6   1  -4   83.69    6.10
  -6   1  -4   82.89    5.00
  -6   1  -4   92.69    5.00
  -6   1  -4   79.39    5.00
  -6   1  -4   87.39    4.80
   6  -1   4   93.89    7.40
   6  -1   4   94.79    5.50
   6  -1   4   83.09    7.20
   6  -1   4   96.69    5.70
  -7   1  -4  285.87    9.80
  -7   1  -4  277.07    9.30
  -7   1  -4  279.77   11.50
  -7   1  -4  319.37   12.00
  -7   1  -4  276.97    9.50
  -7   1  -4  281.07    9.90
   7  -1   4  297.27   10.20
   7  -1   4  261.17   13.20
   7  -1   4  283.17    9.80
  -8   1  -4  106.19    9.90
  -8   1  -4  103.59    8.10
  -8   1  -4  104.09    8.40
  -8   1  -4  106.59    7.80
  -8   1  -4  102.09    7.90
  -8   1  -4  105.49    7.60
   8  -1   4  114.19    9.40
   8  -1   4  122.79   10.60
   8  -1   4  119.39    8.10
   8  -1   4  115.59    9.20
   8  -1   4  126.99    8.80
  -9   1  -4    5.70    5.90
  -9   1  -4    3.80    7.60
  -9   1  -4   -4.60    5.90
  -9   1  -4    5.60    6.60
  -9   1  -4    3.80    5.40
  -9   1  -4   13.80    5.80
   9  -1   4   -8.80    7.20
   9  -1   4    3.30    7.70
   9  -1   4   28.10    7.50
   9  -1   4    7.00    8.00
 -10   1  -4   -1.60    8.80
 -10   1  -4    2.80    8.30
  10  -1   4   -0.30    7.80
  11  -1   4   10.70    8.80
  10   0  -4   10.50   10.00
   9   0  -4   -5.20    8.40
   9   0  -4   18.10   13.30
  -9   0   4   -3.50   11.30
   8   0  -4   51.99   11.90
   8   0  -4   71.59   12.00
   8   0  -4   54.49    9.50
  -8   0   4   58.49   10.40
  -8   0   4   62.59   10.70
  -8   0   4   58.49    9.40
  -8   0   4   37.20    9.10
   7   0  -4   -1.20    6.70
   7   0  -4    2.40    8.00
   7   0  -4    1.50    5.40
   7   0  -4   -2.10    6.30
   7   0  -4   -3.20    7.50
   7   0  -4    2.20    6.60
  -7   0   4   -8.00   10.70
  -7   0   4    0.20    6.50
  -7   0   4   -4.80    6.70
  -7   0   4    6.30    6.40
  -7   0   4    4.10    6.00
   6   0  -4  146.99   11.00
   6   0  -4  147.69    9.50
   6   0  -4  149.49    9.20
   6   0  -4  153.48   10.60
   6   0  -4  122.29    8.30
  -6   0   4  135.09   10.10
  -6   0   4  140.69   10.30
  -6   0   4  132.79    9.50
  -6   0   4  164.48   10.00
  -6   0   4  151.88    9.70
   5   0  -4  127.79    7.80
   5   0  -4  125.09    8.00
   5   0  -4  127.59    8.40
   5   0  -4  131.09    8.50
  -5   0   4  124.39    7.90
  -5   0   4  110.79    8.10
  -5   0   4  122.99    7.80
  -5   0   4  131.79    7.90
  -5   0   4  138.59    8.40
   4   0  -4  240.08    9.10
   4   0  -4  247.18    9.00
   4   0  -4  235.88    9.60
   4   0  -4  235.88    9.30
   4   0  -4  243.38    8.80
  -4   0   4  235.98    9.00
  -4   0   4  244.18    9.30
  -4   0   4  237.28    8.80
  -4   0   4  235.08    9.10
  -4   0   4  231.18    9.70
   3   0  -4  505.25   13.00
   3   0  -4  493.45   13.60
   3   0  -4  490.25   13.30
   3   0  -4  507.05   12.90
   3   0  -4  502.85   12.90
  -3   0   4  493.85   13.10
  -3   0   4  518.45   13.10
  -3   0   4  510.35   13.80
  -3   0   4  503.85   13.40
   2   0  -4 2143.79   42.80
   2   0  -4 2167.18   42.20
   2   0  -4 2192.78   43.50
   2   0  -4 2206.68   42.40
   2   0  -4 2181.88   43.10
  -2   0   4 2184.68   42.70
  -2   0   4 2217.88   42.50
  -2   0   4 2224.98   42.70
  -2   0   4 2195.78   42.80
  -2   0   4 2248.28   43.20
   1   0  -4 2060.59   40.10
   1   0  -4 2084.29   40.40
   1   0  -4 2080.79   39.60
   1   0  -4 2093.49   39.70
   1   0  -4 2064.19   39.90
  -1   0   4 2091.39   39.80
  -1   0   4 2003.40   39.30
  -1   0   4 2127.19   40.10
  -1   0   4 2069.19   39.90
  -1   0   4 2118.59   40.00
  -1   0   4 2100.99   39.70
   0   0  -4  136.89    4.40
   0   0  -4  129.29    4.50
   0   0  -4  139.89    4.70
   0   0  -4  136.99    4.30
   0   0  -4  132.99    4.20
   0   0  -4  132.59    4.40
   0   0   4  131.09    4.40
   0   0   4  134.39    4.40
   0   0   4  138.79    4.30
   0   0   4  130.89    4.60
  -1   0  -4  684.03   13.90
  -1   0  -4  688.93   15.10
  -1   0  -4  671.83   13.70
  -1   0  -4  671.73   13.90
  -1   0  -4  680.73   13.70
  -1   0  -4  662.93   13.70
   1   0   4  694.83   13.70
   1   0   4  677.13   15.20
   1   0   4  693.83   13.70
   1   0   4  712.23   14.40
   1   0   4  666.83   13.70
   1   0   4  671.93   13.80
   1   0   4  706.43   14.10
  -2   0  -4  977.90   19.00
   2   0   4 1019.50   20.30
  -3   0  -4 6342.37  118.09
   3   0   4 6641.04  118.79
   3   0   4 6432.86  117.69
  -4   0  -4    2.10    1.70
  -4   0  -4    2.20    1.40
  -4   0  -4    3.10    1.30
  -4   0  -4    2.20    1.40
  -4   0  -4    0.40    1.20
   4   0   4    1.10    2.00
   4   0   4    0.80    2.40
   4   0   4    1.80    1.50
  -5   0  -4   10.40    2.00
  -5   0  -4    3.40    2.10
  -5   0  -4    9.30    2.00
  -5   0  -4   13.90    2.10
  -5   0  -4    6.30    1.90
   5   0   4   10.80    3.30
   5   0   4    8.10    2.20
   5   0   4    4.50    3.30
   5   0   4    6.40    3.00
   5   0   4    7.80    2.20
   5   0   4    8.10    2.10
   5   0   4    7.50    2.20
  -6   0  -4  165.18    6.10
  -6   0  -4  157.88    7.50
  -6   0  -4  173.38    7.00
  -6   0  -4  159.98    6.10
  -6   0  -4  169.68    6.10
  -6   0  -4  166.68    6.30
   6   0   4  172.28    8.70
   6   0   4  159.28    6.30
   6   0   4  168.68    6.40
   6   0   4  163.48    6.70
   6   0   4  156.98    7.60
   6   0   4  159.88    9.00
  -7   0  -4   79.89    7.10
  -7   0  -4   77.39    5.60
  -7   0  -4   82.79    6.00
  -7   0  -4   91.29    6.00
  -7   0  -4   92.19    6.50
   7   0   4   92.39    6.40
   7   0   4   87.29    8.00
   7   0   4   78.89    7.90
   7   0   4   80.79    6.70
  -8   0  -4  614.14   16.30
  -8   0  -4  609.64   16.40
  -8   0  -4  626.94   16.80
  -8   0  -4  604.44   18.00
  -8   0  -4  614.44   16.60
   8   0   4  563.04   17.40
   8   0   4  611.14   21.20
   8   0   4  620.44   16.40
   8   0   4  622.04   16.80
   8   0   4  642.54   17.20
   8   0   4  619.64   19.90
  -9   0  -4   57.49    8.40
  -9   0  -4   81.09    8.80
  -9   0  -4   70.39   10.30
  -9   0  -4   60.89    7.30
  -9   0  -4   61.99    7.70
  -9   0  -4   61.39    7.40
   9   0   4   73.39    8.40
   9   0   4   64.09   10.20
   9   0   4   55.09    8.40
   9   0   4   40.00    8.70
   9   0   4   76.99   10.50
 -10   0  -4   -3.60    8.70
 -10   0  -4   26.80    8.10
 -10   0  -4   -1.30    7.50
 -10   0  -4    2.70    7.70
  10   0   4    9.70    7.90
  11   0   4   -7.80    7.90
   9  -1  -4   74.59   16.60
   9  -1  -4   42.70   10.50
   8  -1  -4   86.69   11.30
   8  -1  -4   74.89   12.80
   8  -1  -4   67.39   13.80
  -8   1   4   69.59   10.40
  -8   1   4   62.09   11.20
  -8   1   4   74.19   11.80
  -8   1   4   97.89   12.40
   7  -1  -4   15.40    8.10
   7  -1  -4    4.20    8.50
   7  -1  -4   12.50    6.80
   7  -1  -4    3.20    8.70
   7  -1  -4   29.00    8.20
   7  -1  -4   19.10    6.90
  -7   1   4   14.60    7.70
  -7   1   4   12.20    8.60
  -7   1   4   15.40    7.30
  -7   1   4   22.10    7.40
   6  -1  -4  207.58   13.40
   6  -1  -4  245.58   11.80
   6  -1  -4  242.08   11.50
   6  -1  -4  239.68   13.10
   6  -1  -4  241.58   12.00
   6  -1  -4  225.58   11.50
  -6   1   4  204.18   14.50
  -6   1   4  232.98   12.50
  -6   1   4  254.47   13.30
  -6   1   4  229.08   11.80
  -6   1   4  242.98   12.30
   5  -1  -4   52.79    6.50
   5  -1  -4   55.49    7.70
   5  -1  -4   60.19    6.80
   5  -1  -4   66.09    6.90
   5  -1  -4   50.09    6.20
   5  -1  -4   59.09    7.80
  -5   1   4   57.69    7.60
  -5   1   4   57.79    6.90
  -5   1   4   63.29    7.10
  -5   1   4   55.69    7.40
   4  -1  -4   71.79    5.90
   4  -1  -4   64.59    6.60
   4  -1  -4   74.79    5.90
   4  -1  -4   64.89    7.20
   4  -1  -4   74.59    5.50
   4  -1  -4   78.29    6.70
  -4   1   4   72.49    6.20
  -4   1   4   68.89    5.80
  -4   1   4   82.89    6.40
  -4   1   4   74.29    6.30
  -4   1   4   70.29    6.90
   3  -1  -4  861.31   20.40
   3  -1  -4  888.41   20.00
   3  -1  -4  840.52   20.70
   3  -1  -4  839.82   19.50
   3  -1  -4  872.41   19.30
   3  -1  -4  876.01   19.90
  -3   1   4  868.31   20.50
  -3   1   4  827.62   20.70
  -3   1   4  859.91   20.30
  -3   1   4  861.21   20.00
  -3   1   4  853.81   20.10
   2  -1  -4  109.49    5.60
   2  -1  -4  104.69    5.20
   2  -1  -4  111.09    5.20
   2  -1  -4  105.09    5.80
   2  -1  -4  112.99    4.90
  -2   1   4  107.99    5.60
  -2   1   4  105.09    5.40
  -2   1   4  112.39    5.70
  -2   1   4  111.69    3.80
   1  -1  -4 1526.55   31.10
   1  -1  -4 1537.15   30.60
   1  -1  -4 1523.55   30.80
   1  -1  -4 1561.44   30.60
  -1   1   4 1520.05   29.00
  -1   1   4 1525.55   30.80
  -1   1   4 1512.35   30.60
  -1   1   4 1522.15   30.80
  -1   1   4 1532.65   30.80
  -1   1   4 1542.85   30.90
   0  -1  -4  533.65   12.40
   0  -1  -4  543.05   12.40
   0  -1  -4  574.24   11.80
   0  -1  -4  544.55   12.60
   0  -1  -4  556.04   12.80
   0   1   4  526.45   12.50
   0   1   4  543.75   11.90
   0   1   4  537.75   12.60
   0   1   4  539.15   12.40
   0   1   4  532.55   12.60
   0   1   4  548.75   12.20
  -1  -1  -4   21.40    2.50
  -1  -1  -4   22.70    2.10
  -1  -1  -4   22.60    2.10
  -1  -1  -4   24.30    2.40
  -1  -1  -4   18.20    1.90
   1   1   4   21.60    1.60
   1   1   4   20.90    2.20
   1   1   4   17.40    2.00
   1   1   4   24.00    2.20
  -2  -1  -4  146.29    4.60
  -2  -1  -4  148.19    5.60
  -2  -1  -4  146.29    4.60
  -2  -1  -4  152.98    4.70
  -2  -1  -4  153.18    4.60
   2   1   4  153.48    4.90
   2   1   4  142.09    4.40
   2   1   4  146.59    4.60
   2   1   4  154.78    4.70
   2   1   4  146.29    4.50
   2   1   4  141.09    4.70
  -3  -1  -4  357.76    8.40
  -3  -1  -4  341.27    8.50
  -3  -1  -4  363.36    8.60
  -3  -1  -4  347.57    9.70
  -3  -1  -4  349.67    8.40
   3   1   4  367.86    9.20
   3   1   4  364.86    9.50
   3   1   4  359.16    8.50
   3   1   4  356.46    8.20
   3   1   4  371.76    8.70
  -4  -1  -4   70.59    3.50
  -4  -1  -4   76.79    3.50
  -4  -1  -4   71.59    3.40
  -4  -1  -4   69.59    3.80
  -4  -1  -4   68.69    4.50
   4   1   4   69.99    3.30
   4   1   4   66.49    3.20
   4   1   4   69.89    4.60
   4   1   4   63.49    3.70
   4   1   4   66.69    4.00
   4   1   4   63.49    3.50
  -5  -1  -4  465.35   11.40
  -5  -1  -4  460.15   12.80
  -5  -1  -4  454.95   10.90
  -5  -1  -4  447.96   11.20
  -5  -1  -4  467.75   11.00
   5   1   4  472.15   10.80
   5   1   4  461.45   13.50
   5   1   4  440.16   10.80
   5   1   4  456.15   12.30
   5   1   4  464.05   11.30
   5   1   4  472.15   11.40
  -6  -1  -4   68.89    5.50
  -6  -1  -4   74.59    4.40
  -6  -1  -4   62.89    4.00
  -6  -1  -4   71.39    4.90
  -6  -1  -4   73.19    4.50
  -6  -1  -4   71.39    4.30
   6   1   4   64.99    6.30
   6   1   4   70.59    6.50
   6   1   4   69.19    5.00
   6   1   4   71.19    4.40
   6   1   4   71.59    5.30
   6   1   4   65.19    4.70
   6   1   4   63.49    5.10
  -7  -1  -4   13.60    3.10
  -7  -1  -4   12.00    3.60
  -7  -1  -4   10.80    3.60
  -7  -1  -4   10.90    3.40
  -7  -1  -4    9.80    4.10
  -7  -1  -4   11.30    3.50
   7   1   4    3.10    4.10
   7   1   4    6.60    3.80
   7   1   4    7.70    3.60
   7   1   4   10.30    4.40
   7   1   4   13.30    4.10
   7   1   4    8.80    3.20
   7   1   4    9.50    3.50
  -8  -1  -4   14.20    4.40
  -8  -1  -4    7.10    4.30
  -8  -1  -4   -1.70    4.10
  -8  -1  -4    6.60    4.10
  -8  -1  -4    5.70    4.00
  -8  -1  -4    5.30    4.00
   8   1   4   -0.30    5.30
   8   1   4    3.50    4.40
   8   1   4    1.40    5.60
   8   1   4    1.40    4.30
  -9  -1  -4   16.50    5.80
  -9  -1  -4   13.40    5.60
  -9  -1  -4   21.30    5.30
  -9  -1  -4   19.80    5.90
  -9  -1  -4   20.30    5.40
  -9  -1  -4   24.00    6.30
   9   1   4   16.90    6.30
   9   1   4    7.70    7.00
   9   1   4   13.00    6.50
   9   1   4   13.80    6.40
   9   1   4   18.50    8.00
 -10  -1  -4   44.40    8.70
 -10  -1  -4   34.10    7.60
 -10  -1  -4   34.60    7.90
 -10  -1  -4   43.40    7.90
  10   1   4   22.80   12.30
  10   1   4   29.90    8.80
   9  -2  -4    1.60    9.80
   8  -2  -4   53.89   10.80
   8  -2  -4   66.79   14.40
  -8   2   4   47.60   12.60
  -8   2   4   49.20   12.10
   7  -2  -4    8.10    8.00
   7  -2  -4   21.40   10.00
   7  -2  -4   28.60   10.30
   7  -2  -4   15.00   16.10
  -7   2   4   21.70    7.60
  -7   2   4   23.60    8.40
  -7   2   4   24.60    7.80
   6  -2  -4   50.99    9.40
   6  -2  -4   37.50    8.20
   6  -2  -4   47.20    7.50
   6  -2  -4   47.10    7.40
   6  -2  -4   43.20    7.20
   6  -2  -4   33.50    6.90
  -6   2   4   37.60    7.40
  -6   2   4   37.60    7.80
  -6   2   4   57.79    8.00
  -6   2   4   35.30    7.20
  -6   2   4   41.00    9.00
   5  -2  -4   90.89    9.50
   5  -2  -4  105.19    8.20
   5  -2  -4  108.29    9.90
   5  -2  -4  120.79    8.40
  -5   2   4  101.59    9.30
  -5   2   4  111.19    8.90
  -5   2   4  114.29    8.80
  -5   2   4  104.99    8.70
   4  -2  -4  109.99    7.00
   4  -2  -4  104.29    8.30
   4  -2  -4   93.19    7.90
   4  -2  -4  112.49    7.00
   4  -2  -4  113.99    7.40
   4  -2  -4   74.99   11.30
  -4   2   4  109.89    8.00
  -4   2   4  109.69    7.20
  -4   2   4  113.69    7.60
  -4   2   4   90.49    7.60
   3  -2  -4  114.29    6.20
   3  -2  -4  128.09    6.40
   3  -2  -4  107.99    7.30
   3  -2  -4  113.79    6.20
   3  -2  -4  114.29    6.60
   3  -2  -4  125.99    7.10
  -3   2   4  110.59    6.70
  -3   2   4  116.09    6.90
  -3   2   4  110.59    6.40
  -3   2   4  107.49    7.30
  -3   2   4  115.29    6.80
   2  -2  -4  167.28    6.40
   2  -2  -4  154.48    7.30
   2  -2  -4  170.18    6.90
   2  -2  -4  165.08    7.30
   2  -2  -4  163.68    6.80
   2  -2  -4  171.88    6.30
  -2   2   4  165.78    7.10
  -2   2   4  161.38    7.00
  -2   2   4  166.38    6.90
  -2   2   4  160.88    7.10
  -2   2   4  168.28    7.40
   1  -2  -4 2204.28   43.00
   1  -2  -4 2181.38   42.60
   1  -2  -4 2158.88   43.30
   1  -2  -4 2165.38   42.50
  -1   2   4 2109.49   42.80
  -1   2   4 2193.38   43.10
  -1   2   4 2185.58   43.00
  -1   2   4 2184.68   42.70
  -1   2   4 2160.78   42.90
   0  -2  -4  278.77    8.20
   0  -2  -4  278.57    8.40
   0  -2  -4  282.47    8.70
   0  -2  -4  279.67    8.20
   0  -2  -4  289.77    6.70
   0   2   4  274.77    8.40
   0   2   4  277.47    8.30
   0   2   4  280.77    8.40
   0   2   4  274.57    8.00
   0   2   4  275.27    8.20
  -1  -2  -4 1325.77   26.70
  -1  -2  -4 1319.47   26.60
  -1  -2  -4 1297.47   26.80
  -1  -2  -4 1372.26   25.90
  -1  -2  -4 1283.77   26.50
   1   2   4 1281.17   26.50
   1   2   4 1334.27   25.60
   1   2   4 1297.47   26.50
   1   2   4 1312.87   26.70
   1   2   4 1313.27   26.80
  -2  -2  -4  869.91   18.00
  -2  -2  -4  855.01   17.90
  -2  -2  -4  857.01   18.00
  -2  -2  -4  839.92   17.90
   2   2   4  840.52   17.80
   2   2   4  863.01   18.10
   2   2   4  764.52   18.30
   2   2   4  832.42   17.90
  -3  -2  -4 1742.13   35.40
  -3  -2  -4 1773.82   34.30
  -3  -2  -4 1780.22   34.50
  -3  -2  -4 1765.22   34.50
  -3  -2  -4 1757.22   34.40
   3   2   4 1809.92   34.40
   3   2   4 1790.72   34.70
   3   2   4 1771.52   34.30
   3   2   4 1773.72   34.40
  -4  -2  -4 1780.72   36.00
  -4  -2  -4 1767.02   34.40
  -4  -2  -4 1757.12   34.70
  -4  -2  -4 1799.22   34.50
  -4  -2  -4 1747.23   34.60
   4   2   4 1782.32   34.60
   4   2   4 1747.63   34.30
   4   2   4 1778.42   34.80
   4   2   4 1767.62   34.80
  -5  -2  -4 2267.57   44.00
  -5  -2  -4 2280.07   45.90
  -5  -2  -4 2290.17   44.00
  -5  -2  -4 2277.87   44.40
  -5  -2  -4 2294.27   44.50
   5   2   4 2263.57   43.90
   5   2   4 2309.77   44.60
   5   2   4 2348.86   44.50
   5   2   4 2272.57   44.80
   5   2   4 2359.86   46.30
  -6  -2  -4    3.00    2.40
  -6  -2  -4    1.20    2.40
  -6  -2  -4    0.00    2.40
  -6  -2  -4    2.70    2.50
  -6  -2  -4    1.70    2.40
   6   2   4    1.00    3.10
   6   2   4   -0.40    3.00
   6   2   4    1.20    2.80
   6   2   4    0.40    3.00
   6   2   4    0.50    2.60
   6   2   4   -1.40    2.30
  -7  -2  -4  269.97   10.70
  -7  -2  -4  281.37    9.70
  -7  -2  -4  250.97    8.90
  -7  -2  -4  264.87    8.00
  -7  -2  -4  278.47    9.70
  -7  -2  -4  292.07    9.50
   7   2   4  263.17    9.70
   7   2   4  292.37   10.40
   7   2   4  261.67   11.30
   7   2   4  281.37    9.40
  -8  -2  -4  178.38    7.50
  -8  -2  -4  165.68    8.60
  -8  -2  -4  163.58    9.80
  -8  -2  -4  173.28    8.80
  -8  -2  -4  161.98    8.60
  -8  -2  -4  150.58    8.20
   8   2   4  141.39   11.00
   8   2   4  155.88    8.40
   8   2   4  165.88    8.90
   8   2   4  166.38   11.70
   8   2   4  145.79    9.70
  -9  -2  -4   77.69    8.00
  -9  -2  -4   69.79    9.00
  -9  -2  -4   67.99    7.50
  -9  -2  -4   65.09    8.00
  -9  -2  -4   62.39    7.60
  -9  -2  -4   61.89    8.60
   9   2   4   71.39   10.10
   9   2   4   59.09    8.10
   9   2   4   66.19   13.40
   9   2   4   74.19    8.60
   9   2   4   66.09    7.50
   9   2   4   68.49    9.60
 -10  -2  -4  429.36   17.10
 -10  -2  -4  416.96   15.90
 -10  -2  -4  418.36   14.70
 -10  -2  -4  402.86   16.50
 -10  -2  -4  408.56   16.60
 -10  -2  -4  394.86   15.70
  10   2   4  366.26   18.20
  11   2   4   29.20    9.20
  12   2   4    2.80    8.70
   8  -3  -4    8.40   15.10
   8  -3  -4   10.80   10.20
   7  -3  -4    5.80   11.70
   7  -3  -4    5.00   10.10
   7  -3  -4    2.10   10.20
  -7   3   4    7.50    9.40
  -7   3   4   -1.90   12.00
  -7   3   4   -1.40    9.50
   6  -3  -4   58.49    9.00
   6  -3  -4   39.60    7.80
   6  -3  -4   49.40    8.50
   6  -3  -4   48.80    9.30
   6  -3  -4   42.70    7.70
   6  -3  -4   48.60   10.60
  -6   3   4   45.20   10.60
  -6   3   4   72.29    9.30
  -6   3   4   49.30    8.80
  -6   3   4   60.29    8.30
  -6   3   4   55.79    8.50
   5  -3  -4  203.28   12.60
   5  -3  -4  193.78   10.80
   5  -3  -4  199.88   11.00
   5  -3  -4  202.28   12.40
   5  -3  -4  200.88   10.70
   5  -3  -4  179.18   10.40
  -5   3   4  187.88   11.50
  -5   3   4  188.38   11.70
  -5   3   4  192.58   11.00
  -5   3   4  200.28   11.60
   4  -3  -4   69.89    6.80
   4  -3  -4   61.69    7.30
   4  -3  -4   71.19    7.90
   4  -3  -4   64.79    8.00
   4  -3  -4   60.39    7.00
  -4   3   4   78.39    7.50
  -4   3   4   81.29    8.00
  -4   3   4   59.79    8.10
  -4   3   4   55.59    7.30
   3  -3  -4  348.27   11.20
   3  -3  -4  353.96   12.90
   3  -3  -4  358.56   11.90
   3  -3  -4  341.97   12.60
   3  -3  -4  355.96   12.00
  -3   3   4  338.87   12.30
  -3   3   4  356.76   12.00
  -3   3   4  349.47   12.40
  -3   3   4  360.36   13.10
   2  -3  -4   46.20    4.90
   2  -3  -4   40.70    4.30
   2  -3  -4   46.60    5.00
   2  -3  -4   45.50    5.30
   2  -3  -4   49.70    5.70
   2  -3  -4   46.50    4.70
  -2   3   4   51.69    5.50
  -2   3   4   49.20    5.20
  -2   3   4   47.60    5.10
  -2   3   4   38.00    4.70
   1  -3  -4  361.56   10.60
   1  -3  -4  358.56   10.60
   1  -3  -4  359.76   11.40
   1  -3  -4  350.56   10.00
   1  -3  -4  356.96   11.10
  -1   3   4  349.37   11.00
  -1   3   4  346.67   10.90
  -1   3   4  351.56   10.70
  -1   3   4  348.97   10.90
   0  -3  -4   33.20    3.60
   0  -3  -4   34.10    3.40
   0  -3  -4   33.50    4.00
   0  -3  -4   38.00    3.90
   0   3   4   35.90    3.80
   0   3   4   34.50    3.70
   0   3   4   35.70    3.90
   0   3   4   35.60    3.70
  -1  -3  -4 1974.80   40.00
  -1  -3  -4 2018.40   39.90
  -1  -3  -4 2030.30   40.00
  -1  -3  -4 2071.29   37.90
  -1  -3  -4 2017.40   39.80
   1   3   4 2012.10   40.00
   1   3   4 2017.40   39.90
   1   3   4 1945.71   39.60
   1   3   4 1999.20   39.80
  -2  -3  -4 1222.68   25.80
  -2  -3  -4 1232.28   25.70
  -2  -3  -4 1239.48   25.70
  -2  -3  -4 1249.57   25.90
   2   3   4 1222.38   25.60
   2   3   4 1245.98   26.00
   2   3   4 1223.98   25.70
   2   3   4 1229.18   25.70
  -3  -3  -4   91.89    4.60
  -3  -3  -4   99.49    4.70
  -3  -3  -4   95.89    4.70
  -3  -3  -4   98.19    4.80
   3   3   4  100.39    4.90
   3   3   4   95.69    4.90
   3   3   4   96.09    4.60
   3   3   4   95.59    4.60
  -4  -3  -4   22.40    3.00
  -4  -3  -4   15.60    2.80
  -4  -3  -4   19.70    3.00
  -4  -3  -4   21.40    3.10
  -4  -3  -4   21.60    3.20
   4   3   4   21.60    2.90
   4   3   4   21.20    3.00
   4   3   4   19.10    3.10
   4   3   4   21.40    2.90
   4   3   4   19.10    3.00
  -5  -3  -4   27.70    3.60
  -5  -3  -4   26.90    3.50
  -5  -3  -4   28.10    3.50
  -5  -3  -4   20.70    3.60
  -5  -3  -4   30.10    3.90
   5   3   4   27.70    3.40
   5   3   4   32.20    3.30
   5   3   4   31.70    4.30
   5   3   4   31.60    4.00
   5   3   4   27.30    3.50
  -6  -3  -4  855.41   19.30
  -6  -3  -4  851.81   19.70
  -6  -3  -4  869.31   19.90
  -6  -3  -4  873.51   20.80
  -6  -3  -4  828.92   19.10
   6   3   4  825.12   20.40
   6   3   4  787.32   23.10
   6   3   4  775.12   24.80
   6   3   4  834.82   19.00
   6   3   4  828.32   19.20
  -7  -3  -4   26.60    3.40
  -7  -3  -4   21.30    4.00
  -7  -3  -4   17.90    4.10
  -7  -3  -4   24.90    4.50
  -7  -3  -4   15.10    4.10
  -7  -3  -4   24.10    4.50
   7   3   4   21.00    4.00
   7   3   4   22.10    4.30
   7   3   4   27.80    5.10
  -8  -3  -4   10.70    4.70
  -8  -3  -4    8.80    3.20
  -8  -3  -4    7.60    4.40
  -8  -3  -4    4.30    4.30
  -8  -3  -4   -1.80    3.90
  -8  -3  -4   11.10    4.00
   8   3   4    5.60    6.10
   8   3   4    0.30    4.40
   8   3   4   10.40    4.10
   8   3   4    7.00    5.00
  -9  -3  -4    0.80    4.80
  -9  -3  -4   15.30    6.40
  -9  -3  -4   15.80    5.50
  -9  -3  -4    7.20    5.10
  -9  -3  -4    6.80    5.60
  -9  -3  -4    6.30    4.40
   9   3   4   13.60    6.40
   9   3   4    5.70    7.10
   9   3   4    6.30    6.90
   9   3   4    6.70    6.10
   9   3   4    1.10    5.70
 -10  -3  -4   11.30    7.10
 -10  -3  -4    2.70    6.50
 -10  -3  -4    2.10    6.20
 -10  -3  -4   10.00    6.80
 -10  -3  -4   21.00    7.20
  10   3   4    4.40    7.00
  10   3   4    4.00    7.90
  10   3   4    4.70    8.50
  11   3   4    4.60    6.90
  12   3   4    7.20    8.80
   8  -4  -4    5.60   10.60
   7  -4  -4   13.50   13.10
   7  -4  -4   13.40   10.00
  -7   4   4   -8.80   12.00
  -7   4   4    6.50   10.70
   6  -4  -4  -14.30    9.80
   6  -4  -4   18.70    8.50
   6  -4  -4    3.90    7.90
   6  -4  -4   14.00    9.90
  -6   4   4   26.00    8.90
  -6   4   4   15.30    9.10
  -6   4   4   40.40    9.20
  -6   4   4   -3.70    8.10
   5  -4  -4   37.10    8.50
   5  -4  -4   31.50    6.70
   5  -4  -4   36.20    9.30
   5  -4  -4   28.70    6.70
   5  -4  -4   28.20    7.00
   5  -4  -4   40.20    7.20
  -5   4   4   31.10    7.50
  -5   4   4   36.10    7.60
  -5   4   4   28.40    7.60
  -5   4   4   39.20    7.90
  -5   4   4    9.70    8.80
   4  -4  -4    5.70    5.60
   4  -4  -4   11.90    4.60
   4  -4  -4    5.80    5.80
   4  -4  -4    5.50    6.00
  -4   4   4    1.90    5.30
  -4   4   4   12.70    5.60
  -4   4   4    7.00    5.80
   3  -4  -4 1512.85   32.70
   3  -4  -4 1575.24   34.20
   3  -4  -4 1549.24   33.80
   3  -4  -4 1500.65   35.10
   3  -4  -4 1534.75   35.70
  -3   4   4 1524.85   35.00
  -3   4   4 1567.44   34.50
  -3   4   4 1551.14   35.50
   2  -4  -4  462.15   15.00
   2  -4  -4  459.15   14.00
   2  -4  -4  473.85   13.20
   2  -4  -4  485.15   13.00
   2  -4  -4  468.25   14.30
   2  -4  -4  446.16   14.70
  -2   4   4  477.45   14.50
  -2   4   4  453.25   14.60
  -2   4   4  475.55   14.80
  -2   4   4  457.25   14.60
   1  -4  -4    6.80    3.30
   1  -4  -4    1.60    2.80
   1  -4  -4    3.30    3.30
   1  -4  -4    0.30    2.80
   1  -4  -4    0.80    2.20
   1  -4  -4    2.70    2.80
  -1   4   4    2.00    3.20
  -1   4   4    1.90    3.20
  -1   4   4    4.80    2.80
  -1   4   4    0.70    2.80
   0  -4  -4   41.30    4.30
   0  -4  -4   46.00    4.80
   0  -4  -4   46.80    5.00
   0  -4  -4   34.80    4.20
   0   4   4   40.50    4.50
   0   4   4   32.00    4.60
   0   4   4   55.39    4.80
   0   4   4   41.00    4.60
  -1  -4  -4  566.34   14.60
  -1  -4  -4  548.75   14.40
  -1  -4  -4  543.75   14.40
  -1  -4  -4  533.35   14.60
   1   4   4  542.75   14.40
   1   4   4  564.74   14.70
   1   4   4  545.75   14.70
   1   4   4  538.75   14.40
  -2  -4  -4 1169.48   25.60
  -2  -4  -4 1195.68   25.60
  -2  -4  -4 1157.78   25.70
  -2  -4  -4 1166.38   25.70
   2   4   4 1202.88   26.00
   2   4   4 1200.98   25.70
   2   4   4 1161.28   25.50
   2   4   4 1153.28   25.40
  -3  -4  -4  467.35   12.60
  -3  -4  -4  466.55   12.70
  -3  -4  -4  455.35   12.40
  -3  -4  -4  470.05   12.70
   3   4   4  467.75   12.40
   3   4   4  452.05   10.50
   3   4   4  467.25   12.50
   3   4   4  467.45   12.60
   3   4   4  467.65   13.00
  -4  -4  -4   12.80    2.60
  -4  -4  -4   10.20    3.00
  -4  -4  -4   17.50    3.30
  -4  -4  -4   10.10    2.60
  -4  -4  -4   10.90    2.80
   4   4   4   11.00    2.80
   4   4   4   16.00    2.80
   4   4   4   11.50    2.90
   4   4   4    9.40    2.60
   4   4   4   10.30    3.30
  -5  -4  -4  567.94   14.60
  -5  -4  -4  555.74   14.80
  -5  -4  -4  563.14   14.60
  -5  -4  -4  565.94   15.00
  -5  -4  -4  580.24   15.20
   5   4   4  566.94   15.30
   5   4   4  561.44   13.70
   5   4   4  573.74   15.10
   5   4   4  568.34   14.50
   5   4   4  553.94   14.40
  -6  -4  -4  726.53   17.80
  -6  -4  -4  730.73   18.80
  -6  -4  -4  727.23   18.40
  -6  -4  -4  737.03   18.10
  -6  -4  -4  738.73   18.50
   6   4   4  750.72   19.00
   6   4   4  745.13   18.10
   6   4   4  758.52   18.80
   6   4   4  725.33   17.80
   6   4   4  714.53   17.10
  -7  -4  -4  350.56   11.90
  -7  -4  -4  364.96   12.10
  -7  -4  -4  349.37   12.50
  -7  -4  -4  379.66   12.40
  -7  -4  -4  366.16   12.60
   7   4   4  365.26   11.90
   7   4   4  389.66   12.90
   7   4   4  371.36   12.10
   7   4   4  371.56   12.70
   7   4   4  369.76   11.20
  -8  -4  -4   19.80    4.60
  -8  -4  -4   15.50    4.80
  -8  -4  -4   28.20    5.80
  -8  -4  -4   25.30    3.50
  -8  -4  -4   12.50    4.90
  -8  -4  -4   13.20    4.60
   8   4   4   15.40    4.40
   8   4   4   16.30    4.80
   8   4   4    7.60    5.60
   8   4   4   16.50    5.50
   8   4   4   21.00    5.30
  -9  -4  -4   46.40    6.60
  -9  -4  -4   72.29    9.10
  -9  -4  -4   59.29    6.80
  -9  -4  -4   55.49    7.40
  -9  -4  -4   58.99    6.70
  -9  -4  -4   50.99    6.70
   9   4   4   49.99    7.90
   9   4   4   44.50    8.60
   9   4   4   63.09    9.20
   9   4   4   53.79    7.70
   9   4   4   46.70    6.60
   9   4   4   56.69    7.30
 -10  -4  -4    9.70    8.30
 -10  -4  -4   29.90    7.20
 -10  -4  -4   13.60    6.40
 -10  -4  -4   13.30    6.20
 -10  -4  -4    6.90    6.80
 -10  -4  -4    7.20    7.80
  10   4   4    3.10    7.50
  10   4   4    0.10    5.80
  10   4   4   19.10    8.50
  11   4   4   34.80    7.60
  12   4   4   62.39   12.00
   7  -5  -4  -10.00   10.50
   6  -5  -4   25.90   12.70
   6  -5  -4    6.80   11.50
  -6   5   4    5.80    9.90
  -6   5   4   -2.60   10.00
  -6   5   4   16.20   10.20
   5  -5  -4    8.30    7.90
   5  -5  -4   -7.60    6.40
   5  -5  -4   -2.70    8.70
   5  -5  -4    6.70    9.10
  -5   5   4    0.90    7.60
  -5   5   4    5.00    7.40
  -5   5   4   18.00    8.50
  -5   5   4   20.60    8.40
   4  -5  -4   -3.00    5.40
   4  -5  -4   14.00    7.10
   4  -5  -4    6.50    6.60
   4  -5  -4   -4.30    5.40
   4  -5  -4   -2.80    5.90
   4  -5  -4   18.60    7.30
  -4   5   4   -8.80    5.50
  -4   5   4   26.50    8.90
  -4   5   4    1.30    5.50
   3  -5  -4  379.66   12.40
   3  -5  -4  378.16   15.20
   3  -5  -4  356.26   14.50
   3  -5  -4  381.26   13.70
   3  -5  -4  390.76   13.80
  -3   5   4  365.46   15.30
  -3   5   4  361.86   14.10
  -3   5   4  368.26   14.60
  -3   5   4  374.26   14.70
   2  -5  -4   -1.70    4.40
   2  -5  -4    3.70    4.60
   2  -5  -4   -7.10    4.50
   2  -5  -4    4.50    3.40
   2  -5  -4    0.00    3.80
   2  -5  -4    0.70    4.90
  -2   5   4   -1.60    4.40
  -2   5   4   -9.90    3.80
  -2   5   4   -6.30    7.70
  -2   5   4   -6.20    4.20
   1  -5  -4 1185.48   25.60
   1  -5  -4 1183.88   27.70
   1  -5  -4 1157.98   27.90
   1  -5  -4 1205.48   25.50
   1  -5  -4 1166.98   28.40
   1  -5  -4 1216.48   27.70
  -1   5   4 1183.08   28.20
  -1   5   4 1208.78   27.80
  -1   5   4 1193.28   28.20
  -1   5   4 1190.08   28.00
   0  -5  -4  584.94   16.10
   0  -5  -4  578.44   16.30
   0  -5  -4  578.44   16.00
   0  -5  -4  564.34   16.50
   0   5   4  570.14   16.20
   0   5   4  574.44   16.40
   0   5   4  572.54   16.30
   0   5   4  577.04   16.00
  -1  -5  -4    5.90    2.90
  -1  -5  -4    5.90    3.20
  -1  -5  -4   -0.20    2.70
  -1  -5  -4    6.50    3.40
   1   5   4    6.60    3.00
   1   5   4    5.90    2.90
   1   5   4    6.00    3.30
   1   5   4    5.20    2.90
  -2  -5  -4  162.88    7.50
  -2  -5  -4  170.98    7.70
  -2  -5  -4  159.58    7.70
  -2  -5  -4  162.08    7.60
   2   5   4  165.18    7.50
   2   5   4  157.58    7.40
   2   5   4  169.58    7.60
   2   5   4  175.08    8.20
  -3  -5  -4   44.80    4.90
  -3  -5  -4   49.90    4.90
  -3  -5  -4   49.30    5.00
  -3  -5  -4   47.40    5.00
   3   5   4   49.60    5.00
   3   5   4   51.59    5.80
   3   5   4   41.20    5.00
   3   5   4   52.29    4.80
  -4  -5  -4   26.40    4.10
  -4  -5  -4   23.20    4.50
  -4  -5  -4   20.20    3.80
  -4  -5  -4   28.60    4.50
  -4  -5  -4   22.60    3.60
   4   5   4   22.00    4.30
   4   5   4   29.80    4.20
   4   5   4   23.30    3.90
   4   5   4   23.10    2.80
   4   5   4   25.50    4.10
  -5  -5  -4   49.60    5.40
  -5  -5  -4   49.50    5.20
  -5  -5  -4   53.19    5.30
  -5  -5  -4   57.09    5.10
  -5  -5  -4   41.70    5.10
   5   5   4   48.60    3.90
   5   5   4   49.60    3.20
   5   5   4   38.50    5.00
   5   5   4   46.80    4.80
   5   5   4   54.09    6.00
  -6  -5  -4    5.30    4.00
  -6  -5  -4    1.10    3.30
  -6  -5  -4    0.90    3.30
  -6  -5  -4    2.20    3.00
  -6  -5  -4   -1.60    3.10
   6   5   4   -0.50    3.30
   6   5   4   -3.30    3.30
   6   5   4    0.80    2.70
   6   5   4    7.20    5.50
   6   5   4   -0.40    3.40
  -7  -5  -4   24.30    5.40
  -7  -5  -4   16.70    4.40
  -7  -5  -4   22.90    4.90
  -7  -5  -4   26.10    5.30
  -7  -5  -4   22.60    5.00
   7   5   4   27.10    4.80
   7   5   4   26.00    4.10
   7   5   4   29.30    5.50
   7   5   4   31.70    5.40
  -8  -5  -4  112.89    6.00
  -8  -5  -4  103.59    9.10
  -8  -5  -4   91.99    8.50
  -8  -5  -4  110.09    9.20
  -8  -5  -4  112.59   10.00
  -8  -5  -4   92.19    8.50
   8   5   4  106.89    9.60
   8   5   4  108.19    6.90
   8   5   4  117.79    8.40
   8   5   4  114.99    9.10
   8   5   4  105.89   10.50
  -9  -5  -4    7.40    6.20
  -9  -5  -4   11.10    5.50
  -9  -5  -4   10.50    6.70
  -9  -5  -4   -0.50    5.30
  -9  -5  -4    9.30    5.40
   9   5   4    9.00    5.10
   9   5   4    6.60    5.80
   9   5   4    7.20    7.20
   9   5   4    0.00    6.00
   9   5   4    0.10    7.80
 -10  -5  -4    9.80    6.60
 -10  -5  -4    4.90    7.00
 -10  -5  -4    3.20    7.80
 -10  -5  -4    5.70    6.40
 -10  -5  -4    7.40    8.70
 -10  -5  -4    3.00    5.90
  10   5   4    1.60    8.70
  10   5   4    4.50    7.60
  11   5   4    2.50    5.40
  11   5   4   13.50   11.80
  12   5   4    8.20    8.20
   6  -6  -4    3.60   11.20
   5  -6  -4   21.90   10.00
   5  -6  -4   -2.80    8.50
   5  -6  -4   43.20   11.60
  -5   6   4    6.30    9.30
  -5   6   4    3.30   10.20
  -5   6   4   34.50   10.70
   4  -6  -4   19.00   10.60
   4  -6  -4   12.00    8.90
   4  -6  -4   14.30    8.20
   4  -6  -4   17.80    7.60
   4  -6  -4   11.80    6.40
  -4   6   4   18.00    7.60
  -4   6   4   13.00    8.30
   3  -6  -4   60.69    8.80
   3  -6  -4   66.39    8.90
   3  -6  -4   76.09    9.90
   3  -6  -4   67.39    7.50
   3  -6  -4   67.89    8.20
   3  -6  -4   65.09    9.30
  -3   6   4   72.19   10.00
  -3   6   4   82.39    9.50
  -3   6   4   75.79    9.50
  -3   6   4   71.09    9.90
   2  -6  -4   23.90    6.00
   2  -6  -4   25.10    6.80
   2  -6  -4   24.90    4.60
   2  -6  -4   24.00    5.60
   2  -6  -4   27.40    6.50
  -2   6   4   26.80    9.60
  -2   6   4   18.70    5.90
  -2   6   4   18.60    6.60
  -2   6   4   15.00    5.90
   1  -6  -4 1073.99   23.50
   1  -6  -4 1056.19   26.00
   1  -6  -4 1021.00   26.40
   1  -6  -4 1056.29   24.20
   1  -6  -4 1053.59   26.90
  -1   6   4 1032.80   27.00
  -1   6   4 1063.19   26.20
  -1   6   4 1036.90   26.40
  -1   6   4 1031.10   26.70
   0  -6  -4  458.35   14.90
   0  -6  -4  475.95   15.40
   0  -6  -4  438.56   14.90
   0   6   4  458.35   14.80
   0   6   4  450.35   15.00
   0   6   4  474.45   15.70
   0   6   4  455.15   14.90
  -1  -6  -4  307.17   11.80
  -1  -6  -4  309.97   11.90
  -1  -6  -4  317.67   12.00
  -1  -6  -4  336.67   11.90
   1   6   4  341.37   12.70
   1   6   4  316.57   11.70
   1   6   4  307.27   11.60
   1   6   4  323.47   11.80
  -2  -6  -4   22.10    4.60
  -2  -6  -4   22.30    4.70
  -2  -6  -4   20.50    4.30
  -2  -6  -4   18.20    4.40
   2   6   4   15.90    3.80
   2   6   4   15.30    4.10
   2   6   4   22.50    5.40
   2   6   4   19.40    4.50
  -3  -6  -4  111.79    7.20
  -3  -6  -4  116.49    7.70
  -3  -6  -4  127.79    7.50
  -3  -6  -4  111.99    7.20
   3   6   4  110.69    6.90
   3   6   4  117.09    7.20
   3   6   4  112.99    8.20
   3   6   4  114.39    7.60
  -4  -6  -4  285.07   10.60
  -4  -6  -4  273.97   10.60
  -4  -6  -4  268.27   10.80
  -4  -6  -4  266.07    9.50
  -4  -6  -4  270.47   10.20
   4   6   4  257.87   12.90
   4   6   4  265.37   10.20
   4   6   4  269.27    8.50
   4   6   4  281.47   11.10
   4   6   4  265.87   10.20
  -5  -6  -4   12.30    3.80
  -5  -6  -4    8.10    4.00
  -5  -6  -4   13.90    4.10
  -5  -6  -4   17.50    5.00
  -5  -6  -4    4.30    3.00
   5   6   4    8.80    3.50
   5   6   4   13.80    4.70
   5   6   4    7.40    2.50
   5   6   4    3.60    4.20
   5   6   4   13.20    3.20
   5   6   4    7.80    3.80
  -6  -6  -4   -0.80    4.80
  -6  -6  -4   -3.50    3.80
  -6  -6  -4   -1.00    3.70
  -6  -6  -4    2.40    3.30
  -6  -6  -4   -1.80    3.60
   6   6   4    1.10    2.80
   6   6   4   -7.00    3.30
   6   6   4    0.10    4.70
   6   6   4    0.60    3.60
   6   6   4    0.20    2.40
   6   6   4    1.60    4.90
  -7  -6  -4   14.00    5.70
  -7  -6  -4   14.90    4.60
  -7  -6  -4   22.80    5.20
  -7  -6  -4   13.60    5.10
  -7  -6  -4   10.10    4.50
   7   6   4   12.80    3.50
   7   6   4   18.80    3.90
   7   6   4   17.00    4.70
   7   6   4   19.70    5.10
   7   6   4    7.00    5.10
  -8  -6  -4   14.10    5.30
  -8  -6  -4   12.20    4.90
  -8  -6  -4   10.50    5.80
  -8  -6  -4   12.00    6.20
  -8  -6  -4   11.00    5.50
   8   6   4   14.30    5.70
   8   6   4    8.20    6.00
   8   6   4    9.90    6.70
   8   6   4   18.00    5.60
   8   6   4    4.70    4.10
   8   6   4    6.90    4.40
  -9  -6  -4    5.70    7.30
  -9  -6  -4    2.30    6.00
  -9  -6  -4    4.80    6.00
  -9  -6  -4   -1.90    6.60
  -9  -6  -4    6.70    5.80
   9   6   4   16.60    6.80
   9   6   4  -10.10    6.40
   9   6   4   20.20    7.90
   9   6   4    5.50    5.00
   9   6   4    2.00    8.30
 -10  -6  -4    5.40    9.40
 -10  -6  -4   12.20    5.90
 -10  -6  -4   -6.20    7.00
 -10  -6  -4   11.10    7.70
 -10  -6  -4    6.20    7.60
 -10  -6  -4   -3.20    8.20
  10   6   4    3.30    8.90
  10   6   4   13.90    8.60
 -11  -6  -4   10.00   21.70
  11   6   4   11.80   11.60
  12   6   4   -0.70    9.00
   6  -7  -4    4.60   12.90
   5  -7  -4   11.90   14.90
   5  -7  -4    9.60   10.70
   4  -7  -4   93.79   12.20
   4  -7  -4  118.09   13.80
   4  -7  -4  118.59   13.80
  -4   7   4  107.19   14.80
  -4   7   4  106.39   14.40
   3  -7  -4   65.99   10.70
   3  -7  -4   52.49   11.70
   3  -7  -4   49.50   12.20
   3  -7  -4   72.29    9.50
  -3   7   4   62.19    9.70
  -3   7   4   66.19    9.40
  -3   7   4   62.79   10.00
  -3   7   4   59.19   10.10
   2  -7  -4   -2.30    7.20
   2  -7  -4    2.80    5.90
   2  -7  -4   -6.50    6.00
   2  -7  -4    7.90    5.90
   2  -7  -4    7.30    7.60
   2  -7  -4    6.80    4.60
  -2   7   4    3.70    6.90
  -2   7   4   12.60    6.50
  -2   7   4    8.40    6.40
  -2   7   4    0.20    6.80
   1  -7  -4   -3.90    5.80
   1  -7  -4   -7.60    5.20
   1  -7  -4    3.30    4.50
   1  -7  -4  -10.50    5.20
   1  -7  -4    2.20    5.70
  -1   7   4    4.10    5.40
  -1   7   4    5.10    5.40
  -1   7   4    1.20    5.30
  -1   7   4   12.90    6.30
   0  -7  -4  112.69    8.90
   0  -7  -4  121.99    6.50
   0  -7  -4  105.69    9.50
   0  -7  -4  113.89    9.60
   0   7   4  111.09    9.20
   0   7   4  113.69    9.20
   0   7   4  125.39    9.80
   0   7   4  118.09   10.30
  -1  -7  -4  219.48   10.80
  -1  -7  -4  213.58   11.10
  -1  -7  -4  197.48   10.70
  -1  -7  -4  211.58   10.80
   1   7   4  208.78   10.90
   1   7   4  214.18   11.10
   1   7   4  213.48   10.50
   1   7   4  214.08   11.80
  -2  -7  -4   30.50    9.60
  -2  -7  -4   29.60    5.70
  -2  -7  -4   25.10    5.50
  -2  -7  -4   26.80    5.40
   2   7   4   35.40    5.80
   2   7   4   29.80    5.10
   2   7   4   16.00    4.60
   2   7   4   20.90    6.00
  -3  -7  -4   73.79    7.60
  -3  -7  -4   71.59    7.30
  -3  -7  -4   63.09    7.10
  -3  -7  -4   77.59    7.40
   3   7   4   70.69    7.10
   3   7   4   75.39    7.20
   3   7   4   83.69    8.10
   3   7   4   75.49    8.40
  -4  -7  -4   15.80    5.30
  -4  -7  -4   12.70    4.50
  -4  -7  -4   14.40    4.80
  -4  -7  -4   16.60    5.20
  -4  -7  -4   12.70    3.40
   4   7   4    6.50    4.70
   4   7   4   10.00    4.00
   4   7   4    7.80    3.20
   4   7   4   17.70    4.70
   4   7   4   13.30    5.90
  -5  -7  -4   45.90    6.80
  -5  -7  -4   40.60    5.80
  -5  -7  -4   42.20    6.30
  -5  -7  -4   43.00    5.30
  -5  -7  -4   35.20    6.60
   5   7   4   47.00    6.40
   5   7   4   32.00    4.30
   5   7   4   36.80    5.40
   5   7   4   30.30    6.50
   5   7   4   47.60    7.30
  -6  -7  -4    9.20    7.10
  -6  -7  -4    5.80    3.70
  -6  -7  -4   -2.50    5.00
  -6  -7  -4   -3.50    4.80
  -6  -7  -4   -2.20    4.20
   6   7   4    2.80    3.10
   6   7   4   -5.90    4.60
   6   7   4    1.00    3.00
   6   7   4    0.70    5.40
   6   7   4    3.60    5.60
   6   7   4    1.90    4.30
  -7  -7  -4   28.90    6.70
  -7  -7  -4   18.90    6.20
  -7  -7  -4    6.80    5.20
  -7  -7  -4   21.30    6.00
  -7  -7  -4   23.70    6.00
   7   7   4   19.70    4.10
   7   7   4   20.30    6.00
   7   7   4   21.10    6.20
   7   7   4   18.40    4.20
   7   7   4   23.40    6.00
   7   7   4   20.60    7.20
  -8  -7  -4   20.00    7.20
  -8  -7  -4   24.60    6.70
  -8  -7  -4   32.10    7.60
  -8  -7  -4   18.60    5.60
  -8  -7  -4   30.70    6.50
   8   7   4   29.70    5.20
   8   7   4   21.80    8.80
   8   7   4   21.70    7.10
   8   7   4    8.60    7.20
   8   7   4   25.20    6.90
   8   7   4   25.60    5.60
  -9  -7  -4   16.40    6.10
  -9  -7  -4   13.60    7.20
  -9  -7  -4    5.80    8.00
  -9  -7  -4    3.90    6.90
  -9  -7  -4    8.90    8.40
   9   7   4    8.70    5.50
   9   7   4   10.10    6.20
   9   7   4    1.90    7.80
   9   7   4   20.00    9.00
   9   7   4   10.20    8.00
 -10  -7  -4   -6.20    9.90
 -10  -7  -4    1.00    8.20
 -10  -7  -4   16.10    9.40
 -10  -7  -4    9.90    8.20
  10   7   4    2.50    9.50
  10   7   4    8.50    9.30
  10   7   4    5.50    6.70
 -11  -7  -4    8.30   18.70
  11   7   4   13.50   11.90
   5  -8  -4   -0.90   12.30
   4  -8  -4   46.60   15.80
   4  -8  -4   47.20   11.90
   3  -8  -4  109.69   12.30
   3  -8  -4  106.89   12.70
   3  -8  -4  103.89   13.40
  -3   8   4   97.49   12.20
  -3   8   4   89.99   12.80
  -3   8   4   87.59   12.10
   2  -8  -4   12.00    9.80
   2  -8  -4   -5.50    9.30
   2  -8  -4    9.10    6.10
  -2   8   4    4.10    7.60
  -2   8   4   14.70    8.80
  -2   8   4    6.70    9.30
  -2   8   4    4.00    7.50
   1  -8  -4   48.00    6.00
   1  -8  -4   57.69    9.10
   1  -8  -4   55.79    8.40
   1  -8  -4   58.19   11.70
   1  -8  -4   40.30    8.50
  -1   8   4   46.00    8.20
  -1   8   4   50.89    8.80
  -1   8   4   66.99    9.50
  -1   8   4   73.49    9.40
   0  -8  -4  145.29   11.90
   0  -8  -4  143.99    7.80
   0  -8  -4  139.99   10.60
   0  -8  -4  116.09   11.80
   0  -8  -4  148.09   10.80
   0   8   4  142.59   11.30
   0   8   4  155.68   11.90
   0   8   4  146.99   12.10
   0   8   4  131.89   10.90
  -1  -8  -4    9.20    5.90
  -1  -8  -4   18.90    6.60
  -1  -8  -4   20.60    6.80
  -1  -8  -4    2.00    6.00
   1   8   4   20.70    6.60
   1   8   4   21.10    6.90
   1   8   4   20.30    6.20
   1   8   4   15.60    7.00
  -2  -8  -4   96.19   10.00
  -2  -8  -4  101.29    9.60
  -2  -8  -4   97.19    9.10
  -2  -8  -4  108.59    9.60
   2   8   4  111.69   10.50
   2   8   4   91.59   10.10
   2   8   4   98.39    9.30
   2   8   4  100.39    9.40
  -3  -8  -4    2.40    3.70
  -3  -8  -4    4.10    5.20
  -3  -8  -4    0.80    5.00
  -3  -8  -4    5.40    5.90
  -3  -8  -4    1.50    5.30
   3   8   4   15.10    6.10
   3   8   4    6.50    4.60
   3   8   4    1.30    6.20
   3   8   4    9.60    6.90
   3   8   4    5.60    4.30
  -4  -8  -4    4.00    5.30
  -4  -8  -4   11.10    5.60
  -4  -8  -4   16.80    4.10
  -4  -8  -4    7.50    5.80
  -4  -8  -4    4.20    5.20
   4   8   4   12.70    4.40
   4   8   4    7.10    6.30
   4   8   4   14.00    5.30
  -5  -8  -4  159.38   10.80
  -5  -8  -4  148.39   11.30
  -5  -8  -4  157.18    8.50
  -5  -8  -4  148.19   11.10
  -5  -8  -4  155.58   10.10
   5   8   4  159.48   10.10
   5   8   4  144.59   11.80
   5   8   4  183.28   11.90
   5   8   4  154.58    8.10
  -6  -8  -4   32.70    7.00
  -6  -8  -4   42.30    7.70
  -6  -8  -4   29.70    6.90
  -6  -8  -4   33.60    7.00
   6   8   4   43.20    6.90
   6   8   4   34.50    8.10
   6   8   4   34.80    9.50
   6   8   4   20.00    7.30
   6   8   4   42.00    5.10
   6   8   4   32.30    4.90
  -7  -8  -4   23.90    7.40
  -7  -8  -4    5.90    7.10
  -7  -8  -4   18.20    6.80
  -7  -8  -4    1.70    6.60
   7   8   4   10.20    6.90
   7   8   4    7.80    4.10
   7   8   4    7.90    7.40
   7   8   4   11.50    4.60
   7   8   4   10.80    6.70
   7   8   4   18.90    7.40
  -8  -8  -4   32.90    8.60
  -8  -8  -4   35.50    9.10
  -8  -8  -4   46.90    8.10
  -8  -8  -4   37.60    6.90
  -8  -8  -4   41.40    7.70
   8   8   4   38.90    9.40
   8   8   4   43.80    8.70
   8   8   4   33.90    6.50
   8   8   4   46.30    8.80
   8   8   4   45.60    6.10
   8   8   4   48.30   10.40
  -9  -8  -4   44.20    7.60
  -9  -8  -4   33.40   10.10
  -9  -8  -4   37.90    8.90
  -9  -8  -4   19.70    8.70
  -9  -8  -4   20.90    8.30
   9   8   4   42.70    9.60
   9   8   4   35.30    7.70
   9   8   4   41.70    7.10
   9   8   4   31.70    9.00
   9   8   4   62.59   19.40
 -10  -8  -4   30.90    9.40
 -10  -8  -4   15.40    8.20
 -10  -8  -4   22.50   12.70
 -10  -8  -4   11.70    9.00
  10   8   4   41.70    8.20
  10   8   4   21.00   11.50
  11   8   4  -28.90   12.70
   2  -9  -4   66.29   12.90
  -2   9   4   68.09   12.70
  -2   9   4   92.59   14.00
  -2   9   4   89.09   12.40
   1  -9  -4   64.19   11.70
   1  -9  -4   72.79    9.50
   1  -9  -4   71.09   11.40
  -1   9   4   79.89   12.00
  -1   9   4   60.79   10.40
  -1   9   4   77.19   11.10
  -1   9   4   82.79   11.30
   0  -9  -4    7.30    9.20
   0  -9  -4    5.30    8.30
   0  -9  -4   -2.70    4.90
   0  -9  -4   -2.40    8.20
   0   9   4   10.50    7.50
   0   9   4    3.10    9.00
   0   9   4   11.60    8.70
   0   9   4   12.90    7.90
  -1  -9  -4    6.50    7.10
  -1  -9  -4    5.50    4.40
  -1  -9  -4    4.70    8.10
  -1  -9  -4    5.30    7.00
  -1  -9  -4  -11.10    7.00
   1   9   4    2.20    6.30
   1   9   4   -4.60    7.70
   1   9   4    6.30    6.50
   1   9   4   -5.90    8.20
  -2  -9  -4  156.28   13.00
  -2  -9  -4  156.28   12.40
  -2  -9  -4  156.78   12.50
  -2  -9  -4  168.48   13.00
   2   9   4  160.78   12.10
   2   9   4  160.98   13.20
   2   9   4  157.28   11.70
   2   9   4  169.78   13.50
  -3  -9  -4   23.30    7.90
  -3  -9  -4   22.00    5.10
  -3  -9  -4   22.10    8.00
  -3  -9  -4   23.40    7.20
  -3  -9  -4   30.50    7.80
   3   9   4   27.60    9.20
   3   9   4   31.50    7.70
   3   9   4   29.50    7.40
   3   9   4   27.70    8.40
  -4  -9  -4   13.60    7.00
  -4  -9  -4   22.10    7.00
  -4  -9  -4   16.50    6.60
  -4  -9  -4   19.30    5.40
  -4  -9  -4    8.20    6.20
   4   9   4   28.00    6.20
   4   9   4   22.00    6.80
   4   9   4   17.70    7.40
   4   9   4   24.50    8.10
   4   9   4   19.80    6.60
  -5  -9  -4    3.30    4.60
  -5  -9  -4    9.60    6.80
  -5  -9  -4    4.00    7.20
  -5  -9  -4   13.60    6.40
  -5  -9  -4   15.70    6.90
   5   9   4    9.50    7.90
   5   9   4   -4.10    6.30
   5   9   4    2.30    5.60
   5   9   4   -1.70    7.60
   5   9   4    8.30    4.90
  -6  -9  -4   18.20    7.00
  -6  -9  -4   33.00    8.10
  -6  -9  -4   23.90    7.80
  -6  -9  -4    9.30    7.30
  -6  -9  -4   16.30    5.30
   6   9   4   21.10    5.50
   6   9   4   23.00    8.50
   6   9   4   12.50    4.40
   6   9   4   45.20    8.10
   6   9   4   19.60    7.40
   6   9   4   39.10    9.00
  -7  -9  -4    5.50    7.60
  -7  -9  -4    5.90    8.90
  -7  -9  -4   14.00    7.80
  -7  -9  -4   11.20    8.90
  -7  -9  -4   15.80    6.30
   7   9   4   17.50    5.20
   7   9   4   13.40    5.60
   7   9   4   34.20   10.00
   7   9   4    7.90    7.50
   7   9   4   10.50    7.20
   7   9   4   14.90    9.20
  -8  -9  -4   32.70    9.10
  -8  -9  -4   29.40    9.80
  -8  -9  -4   23.10    8.80
  -8  -9  -4   35.80    9.10
  -8  -9  -4   15.10    6.70
   8   9   4   33.10    6.70
   8   9   4   46.10    9.30
   8   9   4   35.70    6.90
   8   9   4   22.90    9.20
   8   9   4   53.29   11.50
  -9  -9  -4  -11.10    9.40
  -9  -9  -4    7.70   10.70
  -9  -9  -4   14.20    9.40
  -9  -9  -4   12.40    7.80
   9   9   4   -3.10    6.80
   9   9   4   13.60    9.80
   9   9   4   20.00    9.30
   9   9   4    4.30    7.60
 -10  -9  -4    7.00    9.40
 -10  -9  -4   21.50   11.20
  10   9   4   13.50   11.60
  10   9   4   25.70    9.00
  11   9   4  -15.60   15.50
   1 -10  -4   69.59   14.80
  -1  10   4   47.60   14.30
   0 -10  -4   28.60   11.10
   0  10   4    4.90   11.50
   0  10   4    3.90    9.50
   0  10   4   -3.00    9.90
  -1 -10  -4  -20.70   10.00
  -1 -10  -4   12.10    8.80
   1  10   4   -2.00    8.20
   1  10   4    3.90    8.30
   1  10   4    2.50   10.70
   1  10   4    5.40   10.40
  -2 -10  -4   -2.30    9.20
  -2 -10  -4    3.80    8.90
  -2 -10  -4   18.30    8.80
   2  10   4   10.30    7.80
   2  10   4    1.20    9.40
   2  10   4  -17.80    9.40
   2  10   4  -14.00    7.10
  -3 -10  -4    5.10    8.50
  -3 -10  -4   14.50    5.70
  -3 -10  -4   17.00    9.00
  -3 -10  -4   10.30    8.70
   3  10   4   18.60    8.10
   3  10   4    1.80    7.30
   3  10   4  -17.50    8.80
   3  10   4    1.40    6.50
   3  10   4   13.30    9.50
  -4 -10  -4   16.60    5.80
  -4 -10  -4   21.20    8.60
  -4 -10  -4    7.20    8.30
  -4 -10  -4   25.10    8.40
  -4 -10  -4    8.80    9.60
   4  10   4   18.00    8.20
   4  10   4    7.80    6.90
   4  10   4    7.70   10.30
   4  10   4   25.80    8.60
   4  10   4   13.80    8.70
  -5 -10  -4    1.30    8.50
  -5 -10  -4   13.10    9.00
  -5 -10  -4    0.70    7.70
  -5 -10  -4   22.10    5.80
  -5 -10  -4    2.10    8.60
   5  10   4    3.20    6.80
   5  10   4   26.10   10.50
   5  10   4    7.10    8.40
   5  10   4    9.70    7.20
   5  10   4   13.40    9.30
  -6 -10  -4   10.50    8.90
  -6 -10  -4   19.40    9.60
  -6 -10  -4   38.80    6.80
  -6 -10  -4   47.90    9.80
   6  10   4   38.50    6.10
   6  10   4   20.30   11.30
   6  10   4   49.20    9.10
   6  10   4   21.30   10.60
   6  10   4   26.00    8.40
   6  10   4   36.30    9.20
  -7 -10  -4    8.80   10.70
  -7 -10  -4   42.90   10.00
  -7 -10  -4   34.90    7.30
  -7 -10  -4   32.40   10.10
   7  10   4   34.10    6.80
   7  10   4   39.80   10.20
   7  10   4   40.70   10.70
   7  10   4   14.30   11.40
  -8 -10  -4   44.60    8.00
  -8 -10  -4   62.59   11.30
  -8 -10  -4   23.50   11.20
  -8 -10  -4   35.50   11.50
   8  10   4   40.40   15.20
   8  10   4   68.79   12.30
   8  10   4   74.09    9.90
   8  10   4   35.90    9.90
   8  10   4   59.49   15.20
  -9 -10  -4   22.10   10.50
  -9 -10  -4   22.10   13.70
  -9 -10  -4   16.30    8.70
   9  10   4   37.90   11.80
   9  10   4   15.40   12.20
   9  10   4   11.20    7.90
 -10 -10  -4   56.69   11.30
 -10 -10  -4   70.39   14.90
  10  10   4   75.99   17.60
   0 -11  -4   82.49   16.70
  -1 -11  -4   66.09   13.70
   1  11   4   44.00   12.40
  -2 -11  -4   51.99   13.10
   2  11   4   33.70   12.50
   2  11   4    4.50   17.20
   2  11   4    6.60   10.10
   2  11   4   19.30    9.70
  -3 -11  -4   15.00   10.80
  -3 -11  -4   -2.70   10.30
   3  11   4   -8.90   14.80
   3  11   4   35.60   10.00
   3  11   4   10.10   10.90
   3  11   4   15.10   12.00
   3  11   4    7.90    8.60
  -4 -11  -4   17.40   10.20
  -4 -11  -4    3.10   10.30
   4  11   4    9.80    9.50
   4  11   4   -9.20    8.30
   4  11   4   15.10    9.50
   4  11   4   -4.10   11.10
  -5 -11  -4   28.70    7.00
  -5 -11  -4   41.80   14.50
   5  11   4   51.39   10.90
   5  11   4   49.40   13.20
   5  11   4   47.90    8.80
   5  11   4   49.30   11.30
  -6 -11  -4    5.20    6.90
  -6 -11  -4   11.20   11.20
  -6 -11  -4    0.30   10.00
   6  11   4    0.70    6.60
   6  11   4    6.00    9.90
   6  11   4    3.20    8.00
   6  11   4    2.00   12.60
   6  11   4    7.00   10.70
  -7 -11  -4    4.50   10.80
  -7 -11  -4  -18.30   10.90
  -7 -11  -4   17.70    7.80
   7  11   4    1.20   11.50
   7  11   4  -18.90   14.00
   7  11   4    5.70    7.30
   7  11   4    4.30   12.00
   7  11   4    6.00    8.00
  -8 -11  -4    3.50    8.10
  -8 -11  -4    5.10   12.40
   8  11   4   13.70    9.80
   8  11   4  -10.40   12.10
   8  11   4   11.00    8.20
   8  11   4    3.90   12.70
  -9 -11  -4   17.30   13.90
  -9 -11  -4  -14.70   10.30
  -2 -12  -4   11.20   15.70
  -3 -12  -4   32.00   14.20
   3  12   4  -13.10   19.80
  -4 -12  -4   28.20   14.30
   4  12   4   18.10   12.10
   4  12   4   46.80   13.80
  -5 -12  -4  -12.90   13.40
   5  12   4   -2.00   10.30
   5  12   4   17.40   13.30
  -6 -12  -4   -7.70   14.90
   6  12   4   22.30    8.70
   6  12   4  -24.30   13.50
   6  12   4    7.00   10.70
   7  12   4   14.50    9.50
   7  12   4   -1.40   11.30
   7  12   4  -16.90   14.10
   8  12   4    0.70   17.20
   6  13   4    6.50   12.40
  -6 -12   5    1.70    6.90
  -5 -12   5   15.00    8.50
  -4 -12   5   -5.00    8.00
  -3 -12   5  -11.60    8.60
  -2 -12   5    5.30    8.80
  -1 -12   5   19.50   11.40
  -5 -11   5   13.50    7.20
   4  11  -5   -2.90   10.80
  -4 -11   5  -10.30    6.20
   3  11  -5  -14.30    8.10
  -3 -11   5   15.30    6.90
   2  11  -5    0.80    7.60
  -2 -11   5    7.90    8.00
   1  11  -5   -9.90    7.00
  -1 -11   5    0.30    8.10
   0  11  -5    6.80    7.50
   0 -11   5   -5.00    9.10
   1 -11   5    7.80   12.70
   2 -11   5   15.70   14.20
  -8 -10   5   44.70   15.60
  -7 -10   5    5.00   12.80
   6  10  -5  -22.70    9.40
   6  10  -5  -11.30   12.70
   6  10  -5   -8.10    8.90
   6  10  -5    5.70   10.00
  -6 -10   5   -5.40   10.00
   5  10  -5   32.70   11.30
   5  10  -5   16.70   10.40
   5  10  -5   22.60    8.70
   5  10  -5   40.50    8.70
  -5 -10   5   23.60    8.90
   4  10  -5   -2.30   11.40
   4  10  -5   -5.10    7.70
   4  10  -5    1.90    7.20
   4  10  -5   -9.70    6.30
   4  10  -5    5.50   14.00
  -4 -10   5   -0.90    7.90
  -4 -10   5    6.40    5.70
   3  10  -5   13.70    7.50
   3  10  -5   18.30    7.00
   3  10  -5   22.80    8.20
   3  10  -5    7.30    6.20
   3  10  -5   13.80    9.20
  -3 -10   5   24.60    7.90
  -3 -10   5   24.50    7.30
   2  10  -5  -10.00    5.70
   2  10  -5    7.70    7.90
   2  10  -5   -4.90    7.70
   2  10  -5   -8.30    5.60
  -2 -10   5   11.30    9.50
  -2 -10   5   -9.20    6.60
  -2 -10   5    1.30    6.70
   1  10  -5    4.80    5.40
   1  10  -5    4.70    7.90
   1  10  -5    7.90    5.90
   1  10  -5   -3.00    7.30
  -1 -10   5    1.80    6.80
  -1 -10   5   -6.50    8.20
   0  10  -5    8.30    5.30
   0  10  -5    6.70    5.40
   0  10  -5  -11.90    8.20
   0 -10   5   -5.50    6.60
  -1  10  -5    7.80    5.70
  -1  10  -5   19.10   11.90
   1 -10   5   26.60    8.20
   2 -10   5   55.59   12.80
   8   9  -5   -6.30   13.40
  -8  -9   5   13.60   12.90
   7   9  -5    1.30   12.50
   7   9  -5   23.60    9.60
   7   9  -5   23.30   10.60
   7   9  -5   11.10   10.20
   7   9  -5  -12.00   10.30
  -7  -9   5   18.50   10.90
   6   9  -5   16.10   10.00
   6   9  -5   12.90    8.50
   6   9  -5   15.80    7.60
   6   9  -5   24.90    9.40
   6   9  -5    9.40    8.30
  -6  -9   5   12.70    8.10
  -6  -9   5   27.60   11.40
   5   9  -5   18.50    8.80
   5   9  -5    2.50    7.30
   5   9  -5    2.10    6.40
   5   9  -5    0.00    6.70
   5   9  -5   25.60    8.10
  -5  -9   5    9.00    6.30
  -5  -9   5   21.60    7.20
   4   9  -5    9.20    8.10
   4   9  -5    1.80    6.60
   4   9  -5    5.60    6.10
   4   9  -5   -2.60    5.90
   4   9  -5    4.70    5.30
  -4  -9   5   15.60    9.90
  -4  -9   5   13.50    8.10
  -4  -9   5   -2.30    6.40
   3   9  -5   62.49    8.80
   3   9  -5   59.29    7.60
   3   9  -5   56.99    6.70
   3   9  -5   69.39   10.10
   3   9  -5   66.89    7.70
  -3  -9   5   52.69    8.00
  -3  -9   5   64.19    7.10
  -3  -9   5   69.29    8.80
  -3  -9   5   72.59    9.00
  -3  -9   5   63.19    7.90
   2   9  -5  161.28    9.70
   2   9  -5  186.08   11.20
   2   9  -5  194.18   12.00
   2   9  -5  170.78    9.20
   2   9  -5  172.98   11.10
  -2  -9   5  178.78   11.20
  -2  -9   5  165.98    9.70
  -2  -9   5  181.18   11.00
  -2  -9   5  174.78   10.20
  -2  -9   5  187.98   11.60
   1   9  -5   10.10    6.20
   1   9  -5  -10.40    5.00
   1   9  -5    8.20    6.20
   1   9  -5    4.40    4.50
   1   9  -5   10.30    4.90
  -1  -9   5    3.20    4.80
  -1  -9   5    3.00    4.80
  -1  -9   5   -5.30    4.70
  -1  -9   5    5.40    6.30
  -1  -9   5    6.80    6.20
   0   9  -5   24.40    7.10
   0   9  -5   29.50    6.00
   0   9  -5   25.10    4.80
   0   9  -5   17.50    5.80
   0   9  -5   21.00    4.60
   0  -9   5   23.00    6.20
   0  -9   5   26.20    6.30
  -1   9  -5    1.60    5.10
  -1   9  -5   -3.20    6.90
  -1   9  -5   10.50    4.50
  -1   9  -5    2.40    5.10
   1  -9   5    3.10    6.30
  -2   9  -5   -5.30    8.40
   2  -9   5    5.40    7.50
  -3   9  -5   71.79   10.90
   3  -9   5   91.19   11.70
   5  -9   5   66.89   12.50
   9   8  -5   12.80   15.90
  -9  -8   5  -19.90   13.20
   8   8  -5   -4.20   10.80
   8   8  -5    5.60   11.90
   8   8  -5  -17.20   11.50
   8   8  -5    1.10    9.70
  -8  -8   5   -6.30   11.50
  -8  -8   5  -14.30   10.30
   7   8  -5   31.30    8.60
   7   8  -5   10.60   20.50
   7   8  -5    1.70   10.10
   7   8  -5   14.40    9.60
   7   8  -5   10.40    8.50
   7   8  -5   15.70    8.10
  -7  -8   5    9.90    9.20
  -7  -8   5   11.40    9.00
   6   8  -5    5.90    8.40
   6   8  -5   -2.10    7.70
   6   8  -5   -2.60    7.10
   6   8  -5    9.70    6.80
   6   8  -5   -2.60    6.60
   6   8  -5    7.00    6.40
  -6  -8   5    6.30    7.80
  -6  -8   5    3.20    6.90
  -6  -8   5    4.10    8.40
  -6  -8   5   27.70    8.50
   5   8  -5   16.40    6.50
   5   8  -5   15.40    6.00
   5   8  -5   12.30    7.70
   5   8  -5   17.40    5.50
   5   8  -5   11.50    5.60
   5   8  -5   15.80    6.80
  -5  -8   5   17.70    7.20
  -5  -8   5   18.40    6.70
  -5  -8   5    4.90    5.40
  -5  -8   5   13.00    7.00
  -5  -8   5   25.20    7.50
   4   8  -5   -1.50    4.90
   4   8  -5    0.00    5.30
   4   8  -5    4.50    5.50
   4   8  -5    5.00    5.00
   4   8  -5   -1.80    6.10
  -4  -8   5   -2.30    6.00
  -4  -8   5    4.40    4.70
  -4  -8   5   -4.00    5.30
  -4  -8   5   -6.30    5.10
   3   8  -5    5.90    5.10
   3   8  -5   13.80    5.10
   3   8  -5    6.80    5.60
   3   8  -5    6.50    4.10
   3   8  -5    4.10    4.60
  -3  -8   5   -0.20    5.30
  -3  -8   5   10.40    4.90
  -3  -8   5    4.00    3.70
  -3  -8   5    9.20    5.20
   2   8  -5  126.19    8.40
   2   8  -5  128.99    8.90
   2   8  -5  145.09    8.20
   2   8  -5  135.39    9.90
   2   8  -5  132.99    7.80
  -2  -8   5  151.98    8.10
  -2  -8   5  142.99    7.70
  -2  -8   5  129.19    8.60
  -2  -8   5  124.89    9.00
   1   8  -5  148.09    8.40
   1   8  -5  127.99    8.80
   1   8  -5  141.99    8.80
   1   8  -5  160.08   10.40
   1   8  -5  146.59    7.80
  -1  -8   5  139.49    7.90
  -1  -8   5  161.78   10.40
  -1  -8   5  159.98    7.60
  -1  -8   5  153.18    8.60
   0   8  -5  122.19    7.70
   0   8  -5  126.09    9.80
   0   8  -5  128.09    6.70
   0   8  -5  122.69    8.60
   0   8  -5  125.79    7.90
   0  -8   5  127.99    9.80
  -1   8  -5   -5.70    5.50
  -1   8  -5    8.40    4.20
   1  -8   5    1.50    5.00
  -2   8  -5    5.50    6.20
   2  -8   5    4.90    6.20
  -3   8  -5   34.70    7.90
   3  -8   5   46.20    8.60
  -4   8  -5    9.00    8.90
   4  -8   5   -5.90    5.80
   5  -8   5    4.90    8.20
   6  -8   5    6.70    8.80
   9   7  -5   -2.80   11.80
  -9  -7   5   -8.90   14.70
  -9  -7   5  -17.10   11.50
   8   7  -5  -11.80    9.90
   8   7  -5   -7.20   10.90
   8   7  -5   16.30   10.20
   8   7  -5    1.90   10.60
   8   7  -5  -20.70   11.80
   8   7  -5    8.70   15.70
  -8  -7   5  -14.70    8.90
  -8  -7   5   29.30   10.50
   7   7  -5    7.00    7.90
   7   7  -5    0.60    7.30
   7   7  -5  -10.60   10.70
   7   7  -5    5.20    9.00
   7   7  -5    9.70    7.40
   7   7  -5   -4.80    6.70
  -7  -7   5  -17.20    7.40
  -7  -7   5    1.40    8.50
  -7  -7   5    3.90    8.30
   6   7  -5   23.00    6.30
   6   7  -5   10.10    6.60
   6   7  -5   16.60    7.60
   6   7  -5   11.60    7.50
   6   7  -5    2.50    6.50
   6   7  -5    4.10    5.30
  -6  -7   5    6.80    6.90
  -6  -7   5    3.20    6.80
  -6  -7   5    3.60    6.60
  -6  -7   5    5.70    6.80
  -6  -7   5    0.70    6.20
   5   7  -5   30.90    6.50
   5   7  -5   36.40    6.40
   5   7  -5   42.80    6.60
   5   7  -5   34.90    6.10
   5   7  -5   39.00    5.30
   5   7  -5   46.30   11.70
  -5  -7   5   45.00    6.70
  -5  -7   5   48.90    7.20
  -5  -7   5   44.50    6.80
  -5  -7   5   33.40    5.70
  -5  -7   5   29.40    6.10
   4   7  -5   66.89    7.70
   4   7  -5   58.69    7.00
   4   7  -5   49.20    5.20
   4   7  -5   66.89    7.30
   4   7  -5   62.69    8.00
   4   7  -5   59.69    8.50
  -4  -7   5   58.89    8.00
  -4  -7   5   54.09    6.80
  -4  -7   5   50.69    6.40
  -4  -7   5   60.29    7.30
   3   7  -5    3.60    4.00
   3   7  -5    4.20    4.10
   3   7  -5    0.50    3.90
   3   7  -5    3.60    4.00
  -3  -7   5    4.60    4.00
  -3  -7   5   -0.10    3.40
   2   7  -5   48.50    6.50
   2   7  -5   45.00    6.20
   2   7  -5   35.90    7.00
   2   7  -5   54.89    6.30
   2   7  -5   48.50    5.50
  -2  -7   5   49.99    5.40
  -2  -7   5   55.09    6.50
  -2  -7   5   42.70    6.00
  -2  -7   5   48.50    4.90
   1   7  -5   46.40    5.70
   1   7  -5   62.59    5.90
   1   7  -5   55.39    5.30
   1   7  -5   58.29   11.00
  -1  -7   5   58.29    5.60
  -1  -7   5   57.39    6.60
  -1  -7   5   50.09    6.30
  -1  -7   5   57.49    5.10
   0   7  -5 1395.76   28.80
   0   7  -5 1187.88   29.10
   0   7  -5 1360.66   27.60
   0   7  -5 1390.96   28.80
   0   7  -5 1349.86   32.40
   0  -7   5 1369.26   32.70
   0  -7   5 1415.56   28.60
  -1   7  -5   -2.10    5.00
   1  -7   5    1.50    4.10
  -2   7  -5    3.10    4.50
   2  -7   5    6.60    4.90
  -3   7  -5   22.00    6.00
   3  -7   5   29.00    7.10
   3  -7   5    7.10    9.80
  -4   7  -5   11.50    6.50
   4  -7   5   12.10    7.00
   5  -7   5  226.38   15.10
   6  -7   5  125.89   13.30
   7  -7   5  131.39   14.90
   9   6  -5   26.60   14.80
   9   6  -5   12.90   11.30
   9   6  -5   -1.70   14.60
   9   6  -5   19.20   16.20
  -9  -6   5    1.10   11.30
  -9  -6   5   12.00   11.00
   8   6  -5    8.90    9.80
   8   6  -5   -3.00    9.00
   8   6  -5   17.70   10.80
   8   6  -5    8.80    9.00
   8   6  -5  -12.40    9.40
   8   6  -5    6.50    9.80
  -8  -6   5    1.40    7.70
  -8  -6   5   -9.70    8.20
  -8  -6   5   11.90   10.30
   7   6  -5    4.40    7.50
   7   6  -5    9.20    7.10
   7   6  -5    4.50    7.10
   7   6  -5    4.20    6.60
   7   6  -5    2.70    7.60
   7   6  -5    7.90    6.90
  -7  -6   5    4.80    7.10
  -7  -6   5   17.10    6.40
  -7  -6   5   -2.00    7.30
  -7  -6   5   17.10    8.40
  -7  -6   5   12.30    7.40
   6   6  -5   -2.10    5.20
   6   6  -5   -2.30    4.60
   6   6  -5    9.20    6.00
   6   6  -5  -11.60    5.00
   6   6  -5    0.20    5.30
   6   6  -5    9.00    5.50
  -6  -6   5    0.20    4.40
  -6  -6   5    3.50    6.00
  -6  -6   5   -0.30    5.30
  -6  -6   5  -14.20    5.60
  -6  -6   5   -2.60    5.70
   5   6  -5   -0.30    4.70
   5   6  -5    1.80    6.90
   5   6  -5    0.00    4.40
   5   6  -5    6.70    6.20
   5   6  -5    0.00    4.50
   5   6  -5   -1.50    4.70
  -5  -6   5    9.80    4.90
  -5  -6   5    4.10    4.60
  -5  -6   5   -2.90    4.50
  -5  -6   5   -6.80    4.10
   4   6  -5   15.50    5.10
   4   6  -5   22.10    3.60
   4   6  -5   17.30    5.00
   4   6  -5   15.00    4.30
   4   6  -5   19.40    5.10
   4   6  -5   26.90    7.00
  -4  -6   5    9.00    3.90
  -4  -6   5   23.80    4.70
  -4  -6   5   14.40    4.30
   3   6  -5   -2.90    3.00
   3   6  -5    2.60    3.50
   3   6  -5    1.90    2.20
   3   6  -5    3.60    3.50
   3   6  -5   -0.20    3.60
   3   6  -5   -1.30    3.30
  -3  -6   5    5.30    3.60
  -3  -6   5    0.20    3.10
  -3  -6   5   -2.50    3.20
   2   6  -5   -2.00    2.90
   2   6  -5    1.70    3.20
   2   6  -5   -0.50    2.60
   2   6  -5    1.30    3.00
   2   6  -5    0.00    2.70
  -2  -6   5   -1.00    3.70
  -2  -6   5   -4.60    2.60
  -2  -6   5   -1.80    2.40
  -2  -6   5   -3.70    3.10
  -2  -6   5   -0.90    2.50
   1   6  -5   41.90    4.70
   1   6  -5   35.60    5.40
   1   6  -5   38.30    4.10
   1   6  -5   37.80    4.10
   1   6  -5   42.90    4.50
  -1  -6   5   41.50    4.60
  -1  -6   5   38.80    4.10
  -1  -6   5   44.10    3.90
  -1  -6   5   40.80    5.10
  -1  -6   5   35.30    5.30
   0   6  -5  339.87   12.50
   0   6  -5  365.66   10.20
   0   6  -5  369.26   10.20
   0   6  -5  359.56    9.30
   0   6  -5  358.46    9.50
   0  -6   5  355.36   13.10
   0  -6   5  364.36   10.10
  -1   6  -5  747.93   20.70
   1  -6   5  772.52   21.10
  -2   6  -5   79.89    7.70
   2  -6   5   90.59    7.70
   2  -6   5   99.99    8.00
  -3   6  -5   70.99    8.30
   3  -6   5   79.39    8.70
   4  -6   5  189.98   12.50
  -5   6  -5   46.40    5.00
   5  -6   5   37.50    8.70
  -6   6  -5    3.00    4.80
   6  -6   5   10.10    6.90
   7  -6   5    5.60    6.60
   8  -6   5    5.40   11.40
  10   5  -5   -2.70   23.40
 -10  -5   5  -14.30   14.60
   9   5  -5    3.30   13.90
  -9  -5   5   18.40   10.70
  -9  -5   5   -5.40   10.30
   8   5  -5   -4.50    8.70
   8   5  -5   -9.80    8.80
   8   5  -5   -9.80   10.70
   8   5  -5   16.00   10.30
   8   5  -5    1.00    7.60
  -8  -5   5   13.30    8.90
  -8  -5   5   -7.40    8.90
  -8  -5   5    4.30    8.10
   7   5  -5    6.30    6.80
   7   5  -5   10.80    7.20
   7   5  -5   17.40    7.80
   7   5  -5   23.00    7.60
   7   5  -5    4.10    6.40
   7   5  -5    8.70    6.90
  -7  -5   5  -10.10    6.80
  -7  -5   5   13.10    7.10
  -7  -5   5    1.40    6.80
  -7  -5   5    7.60    6.60
  -7  -5   5    1.80    6.70
   6   5  -5   -5.40    4.60
   6   5  -5   -1.00    5.50
   6   5  -5   -6.70    5.40
   6   5  -5   -4.10    4.50
   6   5  -5    1.60    5.40
  -6  -5   5    0.70    5.00
  -6  -5   5    1.70    4.60
  -6  -5   5    5.90    5.30
  -6  -5   5    7.40    5.30
  -6  -5   5    0.20    5.40
   5   5  -5   48.40    6.40
   5   5  -5   51.59    6.60
   5   5  -5   50.49    6.80
   5   5  -5   48.00    6.00
   5   5  -5   43.10    7.80
  -5  -5   5   63.89    7.10
  -5  -5   5   49.20    6.00
  -5  -5   5   48.70    6.00
   4   5  -5   -0.30    3.40
   4   5  -5   -2.40    3.40
   4   5  -5   -3.10    3.50
   4   5  -5    0.10    3.60
   4   5  -5    4.10    3.50
   4   5  -5    2.80    2.90
  -4  -5   5   -0.50    3.00
  -4  -5   5    4.20    3.60
  -4  -5   5   -3.20    3.30
   3   5  -5   77.49    5.70
   3   5  -5   78.29    5.80
   3   5  -5   97.79    4.80
   3   5  -5   90.39    6.30
   3   5  -5   86.69    5.60
   3   5  -5   89.39    5.90
  -3  -5   5   82.49    6.20
  -3  -5   5   93.29    5.60
  -3  -5   5   88.49    6.00
  -3  -5   5   91.29    5.90
   2   5  -5   81.49    3.80
   2   5  -5   77.39    4.70
   2   5  -5   84.49    5.00
   2   5  -5   80.69    5.20
   2   5  -5   81.49    5.80
   2   5  -5   84.99    5.30
  -2  -5   5   68.99    5.40
  -2  -5   5   78.89    5.20
  -2  -5   5   71.49    5.30
  -2  -5   5   78.59    5.40
  -2  -5   5   81.99    4.80
  -2  -5   5   63.19    7.20
   1   5  -5   42.30    3.60
   1   5  -5   40.20    3.90
   1   5  -5   48.80    4.80
   1   5  -5   42.50    4.10
   1   5  -5   40.30    3.60
  -1  -5   5   47.10    3.60
  -1  -5   5   41.30    4.20
  -1  -5   5   45.70    4.80
  -1  -5   5   41.60    3.60
  -1  -5   5   42.20    4.00
   0   5  -5  203.38    6.70
   0   5  -5  211.68    6.80
   0   5  -5  217.88    8.80
   0   5  -5  209.78    6.10
   0   5  -5  208.48    6.20
   0  -5   5  204.38    9.00
   0  -5   5  214.68    6.50
  -1   5  -5  782.92   19.80
   1  -5   5  763.32   20.30
  -2   5  -5  675.53   18.30
   2  -5   5  673.23   18.70
   2  -5   5  641.54   19.60
  -3   5  -5    7.80    4.30
   3  -5   5    7.90    4.60
   3  -5   5    5.90    4.50
  -4   5  -5   16.00    2.70
   4  -5   5   22.20    6.80
  -5   5  -5    4.10    2.80
   5  -5   5   -1.30    6.10
  -6   5  -5   47.20    6.40
   6  -5   5   55.59    9.80
  -7   5  -5  103.89    9.40
   7  -5   5  112.79   12.60
  -8   5  -5   54.29    8.40
 -10  -4   5   -3.00   16.60
   9   4  -5   11.70   11.50
   9   4  -5    5.60   11.50
  -9  -4   5   22.60   13.10
  -9  -4   5    2.90   10.00
  -9  -4   5   24.50   11.30
   8   4  -5    3.70    9.30
   8   4  -5    2.90    9.90
  -8  -4   5   10.80    8.40
  -8  -4   5   -0.60    9.30
  -8  -4   5   17.00    7.80
   7   4  -5   -1.80    7.40
   7   4  -5    2.70    7.20
   7   4  -5   -4.20    6.10
   7   4  -5    3.70    6.70
   7   4  -5    5.80    6.70
   7   4  -5    1.90    7.70
  -7  -4   5   10.60    6.50
  -7  -4   5   18.30    6.90
  -7  -4   5   -3.20    5.70
  -7  -4   5    4.90    6.80
  -7  -4   5   15.30    6.80
   6   4  -5   -7.90    5.30
   6   4  -5   -2.00    5.50
   6   4  -5    1.30    5.20
   6   4  -5    0.50    4.90
   6   4  -5    6.60    5.20
  -6  -4   5   -0.20    4.60
  -6  -4   5   -1.50    5.00
  -6  -4   5    2.50    4.70
  -6  -4   5    5.50    5.60
  -6  -4   5    1.80    4.70
   5   4  -5    9.50    4.00
   5   4  -5    2.70    4.30
   5   4  -5   16.40    4.30
   5   4  -5   12.80    4.80
   5   4  -5    7.50    3.90
   5   4  -5   13.30    5.70
  -5  -4   5   11.90    4.70
  -5  -4   5    7.00    3.90
  -5  -4   5   13.10    4.70
   4   4  -5   44.40    5.40
   4   4  -5   52.39    5.30
   4   4  -5   44.30    5.50
   4   4  -5   58.79    5.60
   4   4  -5   47.10    5.50
   4   4  -5   46.20    4.90
  -4  -4   5   51.59    5.70
  -4  -4   5   57.09    6.30
  -4  -4   5   44.70    5.70
  -4  -4   5   61.89    5.90
  -4  -4   5   42.20    5.10
   3   4  -5  102.29    5.60
   3   4  -5  103.69    6.20
   3   4  -5   93.19    5.70
   3   4  -5  100.89    5.60
   3   4  -5  102.29    5.60
   3   4  -5  104.19    5.00
  -3  -4   5   96.09    5.70
  -3  -4   5   86.19    7.30
  -3  -4   5   88.49    5.40
  -3  -4   5   96.19    6.10
  -3  -4   5  104.29    6.00
   2   4  -5  354.56    9.90
   2   4  -5  361.46   10.00
   2   4  -5  361.46    9.90
   2   4  -5  342.97   10.90
   2   4  -5  352.66    9.10
   2   4  -5  354.76    9.80
  -2  -4   5  360.26    9.90
  -2  -4   5  372.66    9.90
  -2  -4   5  364.26   10.10
  -2  -4   5  354.86   11.40
   1   4  -5  397.16    9.80
   1   4  -5  373.66   10.30
   1   4  -5  379.56    9.80
   1   4  -5  396.06    9.10
   1   4  -5  400.56   11.50
   1   4  -5  384.16    9.70
  -1  -4   5  397.36    9.50
  -1  -4   5  385.36    9.80
  -1  -4   5  376.56   11.90
  -1  -4   5  402.06   12.00
  -1  -4   5  393.76    9.90
  -1  -4   5  384.16    9.80
  -1  -4   5  387.16    9.60
   0   4  -5   11.80    1.90
   0   4  -5   14.30    2.20
   0   4  -5    9.00    2.40
   0   4  -5   12.50    2.30
   0   4  -5   11.80    1.90
   0  -4   5   11.20    2.70
   0  -4   5   10.10    2.60
  -1   4  -5  464.55   12.90
  -1   4  -5  464.65   10.50
   1  -4   5  450.45   13.60
   1  -4   5  454.55   13.90
   1  -4   5  453.85   11.50
  -2   4  -5  597.24   13.00
  -2   4  -5  583.74   15.60
   2  -4   5  574.74   17.10
   2  -4   5  575.14   16.30
  -3   4  -5 1663.93   32.00
   3  -4   5 1550.64   37.10
   3  -4   5 1657.83   36.20
  -4   4  -5  290.57    8.60
   4  -4   5  265.47   12.40
  -5   4  -5  101.89    5.70
   5  -4   5   78.69    8.50
  -6   4  -5   61.99    6.20
   6  -4   5   68.99   13.00
  -7   4  -5   11.80    4.90
   7  -4   5    3.20    6.30
  -8   4  -5    4.20    6.10
   8  -4   5   -4.40    7.50
  -9   4  -5    8.40    9.10
   9  -4   5   -2.60    8.10
  10   3  -5   10.00    8.20
 -10  -3   5   24.70   22.10
   9   3  -5   -9.70   12.40
   9   3  -5   16.60   12.80
  -9  -3   5    6.50   11.00
  -9  -3   5  -12.00   11.80
  -9  -3   5  -22.20   11.10
   8   3  -5    3.70    9.10
   8   3  -5   -3.90    9.30
   8   3  -5    6.00   10.00
  -8  -3   5   10.80   11.40
  -8  -3   5   10.20    8.00
  -8  -3   5    0.30    7.90
  -8  -3   5  -23.10    9.30
   7   3  -5   -1.80    6.40
   7   3  -5   -1.00    7.00
   7   3  -5   -4.70    6.20
  -7  -3   5    3.60    5.90
  -7  -3   5    2.90    6.50
  -7  -3   5   11.40    6.40
  -7  -3   5   -4.70    6.60
  -7  -3   5   11.60    6.40
   6   3  -5   78.49    8.70
   6   3  -5   85.29   10.30
   6   3  -5  109.89    8.90
   6   3  -5   76.69    8.30
  -6  -3   5   83.29    8.70
  -6  -3   5   99.69    8.60
  -6  -3   5  102.49    8.90
  -6  -3   5   88.29    9.10
  -6  -3   5   85.19    8.20
   5   3  -5   52.99    6.80
   5   3  -5   53.79    6.20
   5   3  -5   44.80    6.80
   5   3  -5   59.69   10.40
   5   3  -5   57.29    6.20
   5   3  -5   54.09    6.40
  -5  -3   5   45.20    6.30
  -5  -3   5   60.29    6.50
  -5  -3   5   54.19    6.50
  -5  -3   5   56.79    6.20
   4   3  -5   36.40    4.90
   4   3  -5   34.00    4.80
   4   3  -5   49.30    5.20
   4   3  -5   36.80    4.90
   4   3  -5   49.30    5.10
   4   3  -5   34.70    4.60
  -4  -3   5   41.50    5.10
  -4  -3   5   44.80    4.80
  -4  -3   5   45.30    5.80
  -4  -3   5   45.70    5.30
  -4  -3   5   49.70    5.30
   3   3  -5   89.59    5.70
   3   3  -5   84.99    4.90
   3   3  -5   94.29    5.50
   3   3  -5   86.69    5.20
   3   3  -5   87.99    5.00
   3   3  -5   84.89    5.20
  -3  -3   5   85.79    5.30
  -3  -3   5   84.69    5.20
  -3  -3   5   78.09    5.20
  -3  -3   5   93.39    5.30
  -3  -3   5   83.49    5.80
   2   3  -5  406.36   10.80
   2   3  -5  410.76   10.80
   2   3  -5  407.56   10.60
   2   3  -5  416.76   10.30
   2   3  -5  406.56   10.70
   2   3  -5  408.96   11.70
  -2  -3   5  417.66    9.10
  -2  -3   5  415.16   10.60
  -2  -3   5  423.26   10.80
  -2  -3   5  415.16   10.60
  -2  -3   5  403.46   10.60
   1   3  -5 2309.17   43.00
   1   3  -5 2270.37   43.00
   1   3  -5 2247.88   43.10
   1   3  -5 2288.57   44.80
   1   3  -5 2289.97   43.10
  -1  -3   5 2254.77   42.90
  -1  -3   5 2278.67   42.80
  -1  -3   5 2318.17   42.90
  -1  -3   5 2246.08   45.50
  -1  -3   5 2233.58   42.90
   0   3  -5   36.20    2.40
   0   3  -5   34.10    2.50
   0   3  -5   27.30    2.60
   0   3  -5   32.10    2.50
   0   3  -5   36.80    3.40
   0  -3   5   31.50    3.00
   0  -3   5   29.00    2.40
   0  -3   5   35.60    3.70
   0  -3   5   31.30    3.50
  -1   3  -5   33.90    3.40
   1  -3   5   40.60    4.00
   1  -3   5   37.90    4.10
   1  -3   5   37.30    3.20
  -2   3  -5  137.69    6.10
  -2   3  -5  138.19    5.10
   2  -3   5  130.99    7.10
   2  -3   5  141.49    6.80
   2  -3   5  138.49    5.80
  -3   3  -5  979.30   20.70
  -3   3  -5 1002.90   22.30
   3  -3   5  955.70   21.80
   3  -3   5  962.40   23.40
   3  -3   5  945.31   24.20
  -4   3  -5  312.17    9.50
   4  -3   5  319.37   12.70
  -5   3  -5  170.88    7.10
   5  -3   5  154.98   10.10
  -6   3  -5    6.00    3.40
   6  -3   5    1.40    5.20
  -7   3  -5    3.60    4.20
   7  -3   5    0.50    5.50
  -8   3  -5    0.80    5.30
   8  -3   5   -0.10    6.70
  -9   3  -5    2.00    7.40
   9  -3   5    7.50    7.90
  10  -3   5    1.80   10.10
  10   2  -5   22.70    8.60
   9   2  -5   -1.00   13.00
   9   2  -5   -1.90    6.90
   9   2  -5   44.50   15.30
  -9  -2   5   -4.60   10.90
  -9  -2   5  -10.30   12.00
   8   2  -5   40.30   10.50
   8   2  -5   27.60   13.00
   8   2  -5   14.10    9.50
  -8  -2   5   23.50    8.40
  -8  -2   5   18.10    8.80
  -8  -2   5   12.40    9.40
  -8  -2   5   44.70    9.80
   7   2  -5   95.49   11.70
   7   2  -5   87.79   10.70
   7   2  -5   89.79   11.70
   7   2  -5   97.39   11.10
   7   2  -5   90.99   10.40
  -7  -2   5   78.89   11.40
  -7  -2   5   83.59   10.30
  -7  -2   5   82.49   10.20
  -7  -2   5   72.49    9.50
  -7  -2   5   89.69    9.90
   6   2  -5    4.20    4.70
   6   2  -5    3.90    6.10
   6   2  -5   13.30    5.00
   6   2  -5    8.60    4.90
   6   2  -5    7.90    5.40
  -6  -2   5   11.20    5.50
  -6  -2   5   14.20    5.40
  -6  -2   5   -5.40    4.40
  -6  -2   5    7.60    4.80
  -6  -2   5   -4.10    5.40
   5   2  -5  268.57   10.80
   5   2  -5  270.37   12.30
   5   2  -5  279.67   10.60
   5   2  -5  271.57   10.70
   5   2  -5  276.97   11.40
  -5  -2   5  275.97   10.60
  -5  -2   5  270.27   10.80
  -5  -2   5  267.97   10.70
   4   2  -5    6.50    3.60
   4   2  -5    7.30    3.50
   4   2  -5    2.30    3.10
   4   2  -5    3.00    2.90
  -4  -2   5   10.10    3.40
  -4  -2   5    5.70    3.10
  -4  -2   5    1.90    3.60
  -4  -2   5    6.90    3.20
  -4  -2   5    6.90    3.60
   3   2  -5   62.09    5.00
   3   2  -5   67.89    4.60
   3   2  -5   73.19    4.60
   3   2  -5   67.29    4.80
   3   2  -5   72.59    4.60
  -3  -2   5   73.39    4.80
  -3  -2   5   63.49    5.20
  -3  -2   5   68.69    4.90
  -3  -2   5   58.69    4.70
  -3  -2   5   67.69    4.60
   2   2  -5  377.76    9.90
   2   2  -5  378.46   10.10
   2   2  -5  372.36    9.80
   2   2  -5  366.76    9.80
   2   2  -5  371.76   10.90
  -2  -2   5  386.86   10.10
  -2  -2   5  366.76   10.00
  -2  -2   5  388.86   10.90
  -2  -2   5  369.86   10.00
  -2  -2   5  380.46    9.90
   1   2  -5   20.00    2.50
   1   2  -5   19.80    2.50
   1   2  -5   23.30    2.60
   1   2  -5   22.50    3.00
  -1  -2   5   21.90    2.60
  -1  -2   5   22.50    2.60
  -1  -2   5   21.80    2.50
  -1  -2   5   19.50    2.70
  -1  -2   5   20.80    3.30
  -1  -2   5   18.40    2.50
   0   2  -5 1083.79   22.20
   0   2  -5 1064.49   20.60
   0   2  -5 1039.60   20.50
   0  -2   5  929.21   20.50
   0  -2   5 1112.59   21.20
   0  -2   5 1060.89   20.40
   0  -2   5 1052.09   23.20
   0  -2   5 1076.69   20.60
   0  -2   5 1050.29   20.50
   0  -2   5 1078.09   22.40
  -1   2  -5 3787.12   71.49
   1  -2   5 3872.61   71.09
   1  -2   5 3900.61   72.59
  -2   2  -5   14.50    2.20
  -2   2  -5   11.60    2.10
   2  -2   5   15.10    3.30
   2  -2   5   18.90    3.10
   2  -2   5    9.60    3.00
  -3   2  -5  126.89    5.40
  -3   2  -5  127.39    5.30
   3  -2   5  122.59    6.30
   3  -2   5  117.69    6.80
   3  -2   5  123.69    5.60
  -4   2  -5   98.99    5.20
   4  -2   5   81.79    5.50
   4  -2   5   93.59    6.80
  -5   2  -5  130.19    6.60
   5  -2   5  124.09    8.60
   5  -2   5  113.49    7.10
  -6   2  -5  487.75   14.00
   6  -2   5  463.45   17.30
  -7   2  -5   21.50    4.60
   7  -2   5   22.50    7.00
  -8   2  -5    5.80    4.60
  -8   2  -5    1.60    6.80
  -8   2  -5    5.30    4.70
   8  -2   5    1.30    6.40
  -9   2  -5   10.80    6.50
  -9   2  -5    2.80    9.50
  -9   2  -5   -6.80    6.80
   9  -2   5    5.30    7.20
  10  -2   5   17.20   10.60
  10   1  -5   -8.50   10.20
   9   1  -5  -16.90   14.90
   9   1  -5    6.70    7.60
  -9  -1   5  -10.30   11.40
   8   1  -5   54.89   10.70
   8   1  -5   33.00    8.10
   8   1  -5    9.70   12.50
   8   1  -5   30.10   10.80
  -8  -1   5   39.40    9.30
  -8  -1   5   37.60   13.90
  -8  -1   5   19.60    9.30
  -8  -1   5   44.10   10.10
   7   1  -5    1.20    7.40
   7   1  -5   -4.20    6.40
   7   1  -5   -3.40    8.00
   7   1  -5   10.10    7.20
   7   1  -5   -1.80    6.80
  -7  -1   5    7.20    7.20
  -7  -1   5    1.10    7.60
  -7  -1   5   -7.00    7.00
  -7  -1   5    5.50    6.50
  -7  -1   5    5.60    7.00
   6   1  -5   27.10    6.30
   6   1  -5   17.50    5.60
   6   1  -5   19.20    6.60
   6   1  -5   18.30    6.10
  -6  -1   5    9.70    5.40
  -6  -1   5   15.00    5.50
  -6  -1   5    9.70    5.30
  -6  -1   5   28.10    6.20
  -6  -1   5   16.10    6.00
   5   1  -5  145.19    8.60
   5   1  -5  149.99    9.00
   5   1  -5  126.39    9.20
   5   1  -5  158.38    8.40
  -5  -1   5  138.69    8.70
  -5  -1   5  150.78    9.00
  -5  -1   5  144.99    8.40
  -5  -1   5  137.99    8.50
   4   1  -5  160.58    7.40
   4   1  -5  153.38    7.60
   4   1  -5  162.98    8.20
   4   1  -5  154.88    7.90
   4   1  -5  154.58    8.50
   4   1  -5  160.78    7.50
  -4  -1   5  157.28    7.90
  -4  -1   5  151.88    8.20
  -4  -1   5  152.38    7.70
  -4  -1   5  160.18    7.70
  -4  -1   5  164.18    8.80
   3   1  -5  506.25   13.30
   3   1  -5  524.05   14.80
   3   1  -5  517.45   13.40
   3   1  -5  509.75   14.10
   3   1  -5  518.85   13.40
   3   1  -5  508.15   13.90
  -3  -1   5  509.35   13.60
  -3  -1   5  501.95   13.70
  -3  -1   5  534.85   13.60
  -3  -1   5  522.35   14.30
  -3  -1   5  510.25   13.50
   2   1  -5  129.89    5.80
   2   1  -5  120.39    5.20
   2   1  -5  128.19    5.70
   2   1  -5  125.79    6.00
   2   1  -5  123.39    5.20
   2   1  -5  118.09    5.10
  -2  -1   5  125.99    5.70
  -2  -1   5  127.29    5.60
  -2  -1   5  121.69    5.10
  -2  -1   5  117.49    5.40
  -2  -1   5  123.39    5.40
  -2  -1   5  129.99    5.40
   1   1  -5  728.53   15.70
   1   1  -5  721.13   15.70
   1   1  -5  711.33   16.60
   1   1  -5  709.33   16.00
   1   1  -5  738.93   16.20
  -1  -1   5  726.33   16.00
  -1  -1   5  735.53   16.00
  -1  -1   5  735.63   16.50
  -1  -1   5  725.53   15.60
  -1  -1   5  716.03   15.70
  -1  -1   5  727.03   16.60
   0   1  -5    2.10    1.30
   0   1  -5    1.00    1.30
   0   1  -5    1.80    1.50
   0   1  -5    1.60    1.50
   0   1  -5    0.50    1.40
   0  -1   5    3.90    1.80
   0  -1   5    1.00    1.50
   0  -1   5    2.00    1.40
   0  -1   5    3.70    1.40
   0  -1   5    2.90    1.70
   0  -1   5    2.10    1.40
   0  -1   5    0.40    1.20
  -1   1  -5 6239.58  114.09
  -1   1  -5 6263.67  113.29
   1  -1   5 6264.57  116.19
   1  -1   5 6388.46  114.89
   1  -1   5 6439.26  114.39
   1  -1   5 6257.67  114.39
  -2   1  -5    1.50    1.20
   2  -1   5    7.10    2.30
   2  -1   5   -0.30    2.30
   2  -1   5   -1.50    1.60
  -3   1  -5  429.26   10.20
  -3   1  -5  423.56   11.20
   3  -1   5  435.66   12.40
   3  -1   5  407.76   11.00
  -4   1  -5  414.46   11.40
   4  -1   5  389.16   11.20
   4  -1   5  394.06   12.70
  -5   1  -5   35.30    4.40
   5  -1   5   43.50    5.30
   5  -1   5   30.40    5.20
  -6   1  -5 2384.96   46.80
   6  -1   5 2235.38   47.00
   6  -1   5 2246.98   50.09
  -7   1  -5  229.28    7.80
  -7   1  -5  221.98    8.30
  -7   1  -5  216.78   10.40
  -7   1  -5  226.08    8.10
  -7   1  -5  222.18    8.00
   7  -1   5  209.18   12.30
  -8   1  -5   38.40    6.00
  -8   1  -5   40.80    5.20
  -8   1  -5   42.10    7.10
  -8   1  -5   43.50    5.10
  -8   1  -5   49.60    6.50
  -8   1  -5   40.00    5.70
  -9   1  -5    5.30    5.60
  -9   1  -5    7.80    5.80
  -9   1  -5   -1.30    7.20
  -9   1  -5   -5.70    6.10
  -9   1  -5  -13.10    5.40
  -9   1  -5   -5.40    5.60
   9  -1   5   -9.90    6.40
 -10   1  -5   -9.40    7.50
 -10   1  -5   -1.50    8.00
  10  -1   5    8.50    8.60
  11  -1   5    8.20   10.30
   9   0  -5   14.20    9.10
   9   0  -5   42.40   16.80
   8   0  -5   25.30    9.30
   8   0  -5   21.60   12.30
   8   0  -5   45.20   12.20
  -8   0   5   52.69   10.90
  -8   0   5   19.00   11.10
  -8   0   5   26.30   10.10
   7   0  -5   62.09    9.60
   7   0  -5   52.79   10.10
   7   0  -5   19.40    7.90
   7   0  -5   36.70    7.90
   7   0  -5   25.00   10.70
   7   0  -5   32.30    9.00
  -7   0   5   39.70    9.50
  -7   0   5   37.30    8.60
  -7   0   5   51.79    8.70
  -7   0   5   33.70    8.00
  -7   0   5   40.20    9.10
   6   0  -5    7.10    5.00
   6   0  -5    8.80    6.10
   6   0  -5   14.20    5.30
   6   0  -5    0.00    4.40
   6   0  -5    1.70    6.80
   6   0  -5    4.00    5.30
  -6   0   5   -4.30    5.40
  -6   0   5   -6.20    5.40
  -6   0   5   10.70    5.80
  -6   0   5    7.50    5.70
  -6   0   5   10.70    5.60
   5   0  -5   92.59    8.90
   5   0  -5  113.19    8.50
   5   0  -5   94.09    7.70
  -5   0   5   94.99    8.20
  -5   0   5  104.99    8.00
  -5   0   5   97.29    8.40
  -5   0   5  110.59    8.30
   4   0  -5    1.00    3.20
   4   0  -5    4.70    4.60
   4   0  -5    9.70    3.80
   4   0  -5    2.00    3.50
   4   0  -5    7.20    3.60
  -4   0   5    5.20    3.50
  -4   0   5   -0.40    3.70
  -4   0   5    3.00    3.50
  -4   0   5    5.90    3.60
  -4   0   5    6.10    3.50
   3   0  -5  565.84   15.30
   3   0  -5  598.94   14.90
   3   0  -5  578.74   14.80
   3   0  -5  583.14   15.80
  -3   0   5  560.04   14.90
  -3   0   5  582.14   15.10
  -3   0   5  577.04   15.30
  -3   0   5  572.64   15.70
  -3   0   5  573.44   15.20
   2   0  -5  402.56   11.90
   2   0  -5  398.96   10.80
   2   0  -5  408.06   10.90
   2   0  -5  400.76   10.90
   2   0  -5  405.96   11.60
   2   0  -5  384.36   11.20
  -2   0   5  411.46   11.20
  -2   0   5  403.76   11.30
  -2   0   5  408.96   11.50
  -2   0   5  412.96   11.00
  -2   0   5  402.26   10.20
  -2   0   5  407.76   11.20
   1   0  -5   13.80    2.50
   1   0  -5   11.60    2.60
   1   0  -5   16.30    3.00
   1   0  -5   17.00    2.60
   1   0  -5   13.30    2.20
  -1   0   5   12.90    2.30
  -1   0   5   15.70    2.60
  -1   0   5   14.70    2.40
  -1   0   5   13.70    2.50
  -1   0   5   15.20    2.50
  -1   0   5   15.80    2.60
   0   0  -5   21.20    2.60
   0   0  -5   24.10    2.40
   0   0  -5   23.30    2.50
   0   0  -5   21.00    2.30
   0   0  -5   18.90    2.70
   0   0  -5   22.90    3.20
   0   0   5   23.60    2.50
   0   0   5   24.00    2.40
   0   0   5   23.10    2.60
  -1   0  -5 1233.08   24.60
  -1   0  -5 1265.87   24.90
  -1   0  -5 1264.27   24.70
  -1   0  -5 1278.87   25.10
  -1   0  -5 1263.57   24.70
   1   0   5 1252.87   24.70
   1   0   5 1291.57   24.70
   1   0   5 1261.17   26.40
   1   0   5 1300.57   25.30
   1   0   5 1266.47   24.80
   1   0   5 1290.97   24.70
   1   0   5 1290.77   24.60
  -2   0  -5 1248.38   23.90
  -2   0  -5 1239.68   23.60
  -2   0  -5 1236.58   23.80
   2   0   5 1291.87   25.40
   2   0   5 1202.18   26.30
   2   0   5 1270.87   25.20
   2   0   5 1229.18   23.80
  -3   0  -5   95.59    4.90
   3   0   5  100.59    4.60
   3   0   5   92.39    5.20
  -4   0  -5  326.07   10.10
   4   0   5  320.27   10.60
   4   0   5  318.17    9.50
  -5   0  -5    0.10    2.20
   5   0   5   -2.00    2.40
   5   0   5   -2.30    3.30
  -6   0  -5   48.20    4.00
  -6   0  -5   46.70    4.20
  -6   0  -5   37.60    5.20
  -6   0  -5   53.59    3.90
  -6   0  -5   54.89    4.50
  -6   0  -5   41.30    3.90
   6   0   5   45.50    6.50
   6   0   5   50.79    4.70
   6   0   5   49.30    5.20
  -7   0  -5   36.40    4.20
  -7   0  -5   37.00    4.60
  -7   0  -5   40.90    5.40
  -7   0  -5   37.20    5.60
  -7   0  -5   36.10    4.40
  -7   0  -5   35.50    4.40
   7   0   5   47.70    7.50
   7   0   5   36.00    5.50
   7   0   5   38.10    5.00
  -8   0  -5  122.99    7.50
  -8   0  -5  117.19    7.90
  -8   0  -5  129.89    7.60
  -8   0  -5  123.09    7.80
  -8   0  -5  120.39    8.90
  -8   0  -5  128.69    8.80
   8   0   5  121.09    8.50
   8   0   5  120.79   11.60
  -9   0  -5   -2.70    5.20
  -9   0  -5    9.60    5.80
  -9   0  -5    5.20    5.70
  -9   0  -5   -4.20    6.30
  -9   0  -5    2.30    5.00
  -9   0  -5    6.50    5.40
   9   0   5   -5.60    6.50
   9   0   5    1.80    6.40
   9   0   5   -7.80    6.40
   9   0   5    6.80    7.60
 -10   0  -5   16.20    7.50
 -10   0  -5   -6.30    6.80
 -10   0  -5    8.20    8.10
  10   0   5    2.00    6.50
  11   0   5  -17.00    8.30
   9  -1  -5   10.50   10.30
   9  -1  -5   10.80   23.10
   8  -1  -5    4.60    9.20
   8  -1  -5   31.50   13.40
   8  -1  -5    3.90   13.20
  -8   1   5    5.30   13.60
  -8   1   5   23.40   10.50
   7  -1  -5  132.79   15.30
   7  -1  -5  109.39   13.30
   7  -1  -5  125.69   13.40
   7  -1  -5  105.09   11.20
  -7   1   5  134.29   13.50
  -7   1   5  118.39   12.10
  -7   1   5  127.69   12.90
  -7   1   5   98.99   12.80
   6  -1  -5   -0.50    5.80
   6  -1  -5   11.60    5.90
   6  -1  -5   -3.20    6.30
   6  -1  -5    1.60    6.80
   6  -1  -5   22.90    8.10
   6  -1  -5    3.30    6.10
  -6   1   5    0.80    6.50
  -6   1   5    3.80    6.50
  -6   1   5    0.40    6.30
  -6   1   5    2.70    6.30
  -6   1   5    2.70    6.50
   5  -1  -5    3.80    4.40
   5  -1  -5   12.30    5.70
   5  -1  -5    1.00    4.90
   5  -1  -5   -5.30    4.50
   5  -1  -5   -1.70    4.70
   5  -1  -5    3.10    5.60
  -5   1   5   -0.10    4.40
  -5   1   5   -5.30    4.50
  -5   1   5    6.40    7.20
  -5   1   5   -1.50    4.70
   4  -1  -5   40.60    5.60
   4  -1  -5   49.99    6.00
   4  -1  -5   43.40    5.20
   4  -1  -5   47.80    6.80
   4  -1  -5   50.09    6.80
   4  -1  -5   46.60    6.20
  -4   1   5   49.90    6.50
  -4   1   5   52.59    6.50
  -4   1   5   47.90    6.30
  -4   1   5   46.60    6.40
   3  -1  -5  391.56   12.00
   3  -1  -5  391.96   12.00
   3  -1  -5  399.26   13.00
   3  -1  -5  403.96   12.00
   3  -1  -5  404.26   11.00
   3  -1  -5  389.86   12.60
  -3   1   5  405.26   12.50
  -3   1   5  414.66   12.30
  -3   1   5  376.66    9.50
  -3   1   5  390.56   12.30
  -3   1   5  399.16   12.90
  -3   1   5  389.56   12.40
   2  -1  -5  360.76   10.20
   2  -1  -5  357.86   10.40
   2  -1  -5  355.96   11.00
   2  -1  -5  359.86   11.30
   2  -1  -5  350.76   10.50
  -2   1   5  346.47   10.90
  -2   1   5  363.46   10.60
  -2   1   5  352.36   10.80
  -2   1   5  351.16    8.80
  -2   1   5  344.27   10.70
  -2   1   5  361.26   11.00
   1  -1  -5  726.23   17.40
   1  -1  -5  724.93   16.70
   1  -1  -5  753.72   16.90
   1  -1  -5  708.73   17.00
  -1   1   5  736.23   16.80
  -1   1   5  716.53   17.00
  -1   1   5  732.83   17.00
  -1   1   5  722.03   15.60
  -1   1   5  733.03   17.00
  -1   1   5  739.13   17.20
   0  -1  -5  123.49    4.80
   0  -1  -5  133.29    5.00
   0  -1  -5  125.59    5.40
   0  -1  -5  127.19    5.30
   0  -1  -5  125.39    5.00
   0   1   5  118.49    4.60
   0   1   5  129.09    4.90
   0   1   5  120.69    5.10
   0   1   5  121.79    4.90
   0   1   5  124.49    5.10
   0   1   5  121.59    5.10
  -1  -1  -5 1250.37   25.50
  -1  -1  -5 1233.58   25.00
  -1  -1  -5 1245.58   25.40
  -1  -1  -5 1267.37   25.30
  -1  -1  -5 1228.78   25.00
   1   1   5 1235.08   24.80
   1   1   5 1244.18   25.10
   1   1   5 1215.98   25.40
   1   1   5 1276.97   25.30
   1   1   5 1243.08   24.10
  -2  -1  -5 4000.50   72.69
  -2  -1  -5 3906.11   72.69
  -2  -1  -5 3885.91   72.59
  -2  -1  -5 3913.61   72.69
   2   1   5 3882.41   72.39
   2   1   5 3982.90   73.09
   2   1   5 3940.11   72.49
   2   1   5 4161.68   72.29
   2   1   5 3866.91   72.59
   2   1   5 4003.10   72.79
  -3  -1  -5 4066.59   74.19
  -3  -1  -5 4049.19   74.09
  -3  -1  -5 3900.11   74.19
   3   1   5 4217.18   75.29
   3   1   5 4004.30   75.19
   3   1   5 4080.99   74.09
   3   1   5 4024.90   73.79
   3   1   5 4081.49   74.39
  -4  -1  -5  141.19    5.00
  -4  -1  -5  141.19    6.30
  -4  -1  -5  145.39    4.80
  -4  -1  -5  137.19    4.90
  -4  -1  -5  135.49    4.70
   4   1   5  144.49    5.20
   4   1   5  150.58    4.60
   4   1   5  117.29    5.50
   4   1   5  138.59    5.80
   4   1   5  146.89    5.00
   4   1   5  140.69    6.50
  -5  -1  -5 1769.62   34.70
  -5  -1  -5 1794.32   34.80
  -5  -1  -5 1800.92   37.10
  -5  -1  -5 1796.62   34.30
  -5  -1  -5 1768.52   34.20
   5   1   5 1807.12   37.70
   5   1   5 1671.23   34.80
   5   1   5 1752.52   36.20
   5   1   5 1786.42   34.50
   5   1   5 1786.12   34.00
   5   1   5 1828.92   34.80
  -6  -1  -5  398.16   10.70
  -6  -1  -5  394.06   10.20
  -6  -1  -5  391.76   10.60
  -6  -1  -5  408.96   10.30
  -6  -1  -5  395.16   12.40
   6   1   5  366.06   11.70
   6   1   5  391.66   13.50
   6   1   5  394.76   10.70
   6   1   5  397.36   11.00
   6   1   5  384.96   10.20
   6   1   5  386.66   10.00
  -7  -1  -5  322.17   11.00
  -7  -1  -5  334.57   10.40
  -7  -1  -5  365.06   10.70
  -7  -1  -5  340.67   10.20
  -7  -1  -5  336.37   12.30
  -7  -1  -5  341.07    9.40
   7   1   5  351.86   11.20
   7   1   5  310.07   11.40
   7   1   5  333.67   10.20
   7   1   5  323.17   13.50
   7   1   5  349.57   10.10
  -8  -1  -5  943.11   21.10
  -8  -1  -5  942.81   22.20
  -8  -1  -5  930.01   21.90
  -8  -1  -5  920.61   22.30
  -8  -1  -5  948.31   21.90
  -8  -1  -5  945.41   24.50
   8   1   5  921.71   23.80
   8   1   5  942.31   22.10
   8   1   5  920.31   27.00
   8   1   5  954.30   22.00
  -9  -1  -5  215.48   11.80
  -9  -1  -5  207.28   10.20
  -9  -1  -5  210.98   10.80
  -9  -1  -5  204.68   10.30
  -9  -1  -5  216.98   10.50
  -9  -1  -5  187.98   11.10
   9   1   5  203.68   11.50
   9   1   5  218.48   12.10
   9   1   5  179.28   11.80
 -10  -1  -5   32.70    7.40
 -10  -1  -5   22.90    7.20
 -10  -1  -5   31.20    7.60
 -10  -1  -5   31.90    7.70
  10   1   5   24.20    8.60
  11   1   5   -5.20    8.00
   9  -2  -5   11.00   11.50
   8  -2  -5    2.80    9.70
   8  -2  -5    3.60   15.20
  -8   2   5  -31.70   12.50
   7  -2  -5  121.09   17.60
   7  -2  -5   80.39   11.80
   7  -2  -5   89.79   13.00
  -7   2   5   84.59   11.20
  -7   2   5   80.69   12.10
  -7   2   5   61.69   10.70
  -7   2   5   68.69   10.60
   6  -2  -5    5.80    6.50
   6  -2  -5   -1.60    7.70
   6  -2  -5    4.10    8.60
   6  -2  -5    5.00    6.80
   6  -2  -5   -0.20    6.60
   6  -2  -5   -5.70    7.50
  -6   2   5    1.70    6.80
  -6   2   5   -2.50    8.30
  -6   2   5    3.40    6.80
  -6   2   5    6.00    7.50
  -6   2   5    2.60    7.40
   5  -2  -5  275.87   12.20
   5  -2  -5  268.17   11.90
   5  -2  -5  297.57   12.30
   5  -2  -5  260.47   14.50
   5  -2  -5  273.97   13.90
   5  -2  -5  266.97   12.50
  -5   2   5  269.07   13.10
  -5   2   5  287.27   13.10
  -5   2   5  273.87   12.90
  -5   2   5  281.87   13.60
   4  -2  -5  176.38   10.40
   4  -2  -5  188.18    9.20
   4  -2  -5  180.68    8.70
   4  -2  -5  165.38    8.90
   4  -2  -5  176.38   10.30
   4  -2  -5  170.18    8.70
  -4   2   5  157.98    9.40
  -4   2   5  175.38   10.00
  -4   2   5  177.48   10.20
  -4   2   5  175.98    9.50
   3  -2  -5   64.09    6.60
   3  -2  -5   73.69    6.10
   3  -2  -5   58.09    5.30
   3  -2  -5   52.39    5.60
   3  -2  -5   71.09    7.00
   3  -2  -5   70.59    6.90
  -3   2   5   70.79    6.90
  -3   2   5   58.69    6.20
  -3   2   5   61.49    7.80
  -3   2   5   66.39    6.20
  -3   2   5   67.39    6.30
   2  -2  -5   16.80    3.50
   2  -2  -5   13.10    2.90
   2  -2  -5   20.00    4.30
   2  -2  -5   13.20    3.10
   2  -2  -5   16.60    3.40
   2  -2  -5   16.50    3.40
  -2   2   5   11.40    3.20
  -2   2   5   21.30    3.90
  -2   2   5   16.90    3.70
  -2   2   5   16.60    4.00
  -2   2   5   16.10    3.30
   1  -2  -5  379.86   10.90
   1  -2  -5  400.36   12.00
   1  -2  -5  389.66   11.60
   1  -2  -5  385.96   11.10
  -1   2   5  375.96   11.40
  -1   2   5  396.46   11.60
  -1   2   5  396.16   11.60
  -1   2   5  379.86   11.10
  -1   2   5  389.56   11.30
   0  -2  -5  651.53   15.80
   0  -2  -5  643.64   15.40
   0  -2  -5  648.54   15.50
   0  -2  -5  657.63   13.80
   0  -2  -5  639.54   16.00
   0   2   5  642.44   15.40
   0   2   5  638.94   15.60
   0   2   5  649.04   15.80
   0   2   5  640.34   15.70
   0   2   5  657.43   15.20
  -1  -2  -5    6.80    2.50
  -1  -2  -5    7.20    2.30
  -1  -2  -5    4.90    1.80
  -1  -2  -5    7.50    2.20
  -1  -2  -5    7.10    2.20
   1   2   5    7.40    2.20
   1   2   5    9.20    2.20
   1   2   5    9.70    1.90
   1   2   5    8.60    2.20
   1   2   5    6.10    2.00
  -2  -2  -5  615.84   14.50
  -2  -2  -5  640.84   14.70
  -2  -2  -5  631.14   14.50
  -2  -2  -5  639.74   14.70
   2   2   5  628.84   14.70
   2   2   5  624.94   14.40
   2   2   5  615.34   14.40
   2   2   5  619.54   14.40
  -3  -2  -5    3.60    1.80
  -3  -2  -5    1.60    1.80
  -3  -2  -5    2.00    1.90
   3   2   5   -0.80    1.70
   3   2   5    3.80    2.80
   3   2   5    3.30    2.10
   3   2   5    2.40    1.90
   3   2   5    3.90    2.10
  -4  -2  -5 2518.25   47.70
  -4  -2  -5 2479.35   49.60
  -4  -2  -5 2496.25   48.00
  -4  -2  -5 2465.35   48.00
  -4  -2  -5 2474.65   47.70
   4   2   5 2548.05   48.00
   4   2   5 2478.85   48.40
   4   2   5 2500.55   47.50
   4   2   5 2620.94   48.70
   4   2   5 2485.45   47.50
   4   2   5 2545.85   48.30
  -5  -2  -5   28.80    3.40
  -5  -2  -5   21.60    3.20
  -5  -2  -5   25.10    3.50
  -5  -2  -5   23.10    3.50
  -5  -2  -5   24.60    3.10
   5   2   5   19.00    3.50
   5   2   5   24.60    3.20
   5   2   5   24.30    3.40
   5   2   5   27.00    4.50
   5   2   5   23.60    3.90
   5   2   5   23.10    3.10
  -6  -2  -5    4.20    2.80
  -6  -2  -5    5.60    3.00
  -6  -2  -5    6.00    2.50
  -6  -2  -5    1.00    2.40
  -6  -2  -5    2.90    2.80
   6   2   5    7.20    2.60
   6   2   5    3.60    3.70
   6   2   5    2.40    2.50
   6   2   5    5.90    3.40
   6   2   5    5.30    3.00
   6   2   5    5.00    2.40
  -7  -2  -5    1.90    3.10
  -7  -2  -5    8.80    3.50
  -7  -2  -5    7.80    3.70
  -7  -2  -5    8.20    3.40
  -7  -2  -5    5.60    3.20
   7   2   5    4.50    3.20
   7   2   5    3.40    2.90
   7   2   5    3.40    4.10
   7   2   5    9.00    3.50
   7   2   5    2.20    4.30
  -8  -2  -5   16.20    4.80
  -8  -2  -5   14.00    4.20
  -8  -2  -5    8.30    4.40
  -8  -2  -5   12.40    4.40
  -8  -2  -5    3.20    4.30
   8   2   5    9.20    4.80
   8   2   5    7.50    5.00
   8   2   5    7.50    4.40
   8   2   5    7.70    4.10
   8   2   5    8.20    4.20
  -9  -2  -5   17.90    5.90
  -9  -2  -5   19.40    5.80
  -9  -2  -5   11.60    5.10
  -9  -2  -5    5.90    5.20
  -9  -2  -5   14.60    4.30
  -9  -2  -5   20.00    6.20
   9   2   5   18.50    6.70
   9   2   5   14.00    6.80
   9   2   5   13.20    6.50
   9   2   5   16.00    5.80
 -10  -2  -5    4.70    6.90
 -10  -2  -5    3.40    6.80
 -10  -2  -5   -1.60    7.90
 -10  -2  -5    3.70    9.40
 -10  -2  -5   13.10    7.10
 -10  -2  -5   13.60    7.00
  10   2   5    5.20    7.40
  11   2   5    1.50    7.70
  12   2   5   -4.50    9.40
   8  -3  -5    2.10   11.70
   8  -3  -5   15.50   17.60
   7  -3  -5   12.00   12.40
   7  -3  -5   -1.20    9.00
  -7   3   5   13.20   11.10
   6  -3  -5    0.00    6.80
   6  -3  -5   18.80    9.20
   6  -3  -5   17.40   13.90
   6  -3  -5   -7.10    7.40
   6  -3  -5   13.30    9.20
  -6   3   5   13.00    8.60
  -6   3   5    9.40    7.30
  -6   3   5    2.30    7.80
  -6   3   5    1.30    8.00
   5  -3  -5  516.55   17.30
   5  -3  -5  517.55   19.30
   5  -3  -5  527.45   17.40
   5  -3  -5  516.25   20.30
   5  -3  -5  511.45   17.60
   5  -3  -5  537.05   17.60
  -5   3   5  530.95   18.80
  -5   3   5  493.65   18.50
  -5   3   5  519.35   18.10
  -5   3   5  504.05   19.50
  -5   3   5  533.95   18.90
   4  -3  -5  257.07   11.10
   4  -3  -5  252.07   13.00
   4  -3  -5  246.18   11.50
   4  -3  -5  252.57   11.30
   4  -3  -5  266.67   13.10
  -4   3   5  244.58   12.70
  -4   3   5  254.47   12.30
  -4   3   5  260.97   12.20
  -4   3   5  257.47   12.30
   3  -3  -5  124.79    8.10
   3  -3  -5  127.89    7.40
   3  -3  -5  109.69    8.50
   3  -3  -5  115.39    9.10
   3  -3  -5  123.09    9.00
   3  -3  -5  120.19    7.00
  -3   3   5  121.79    8.30
  -3   3   5  109.19    8.40
  -3   3   5  115.69    8.90
   2  -3  -5  103.69    7.60
   2  -3  -5   91.89    6.40
   2  -3  -5   98.29    5.70
   2  -3  -5  102.69    6.90
   2  -3  -5   97.09    6.90
   2  -3  -5   94.59    6.00
  -2   3   5   88.19    6.70
  -2   3   5   96.39    6.80
  -2   3   5   81.39    6.70
  -2   3   5   85.39    8.00
  -2   3   5   93.89    6.50
   1  -3  -5   34.70    4.40
   1  -3  -5   27.10    4.00
   1  -3  -5   29.70    4.30
   1  -3  -5   36.20    5.20
  -1   3   5   33.80    4.50
  -1   3   5   33.70    4.80
  -1   3   5   28.50    4.20
  -1   3   5   29.80    4.50
  -1   3   5   32.30    4.50
   0  -3  -5  651.03   17.00
   0  -3  -5  658.93   16.70
   0  -3  -5  648.04   16.20
   0  -3  -5  649.64   16.30
   0   3   5  655.13   16.30
   0   3   5  672.43   16.80
   0   3   5  655.43   16.70
   0   3   5  657.43   16.60
  -1  -3  -5  208.38    7.50
  -1  -3  -5  201.08    7.80
  -1  -3  -5  217.38    6.60
  -1  -3  -5  203.58    7.70
  -1  -3  -5  206.48    7.50
   1   3   5  200.48    7.60
   1   3   5  206.28    7.50
   1   3   5  203.18    7.50
   1   3   5  209.58    7.90
  -2  -3  -5   12.40    2.70
  -2  -3  -5   14.70    2.90
  -2  -3  -5   15.00    2.90
  -2  -3  -5   13.00    2.70
   2   3   5   10.00    2.70
   2   3   5   10.70    2.60
   2   3   5   13.40    2.90
   2   3   5   13.60    2.60
  -3  -3  -5 1085.09   23.40
  -3  -3  -5 1088.09   23.50
  -3  -3  -5 1100.09   23.60
  -3  -3  -5 1088.79   23.50
   3   3   5 1069.09   23.20
   3   3   5 1118.19   23.60
   3   3   5 1063.19   23.10
   3   3   5 1092.09   23.80
  -4  -3  -5  625.84   16.10
  -4  -3  -5  630.54   15.20
  -4  -3  -5  613.04   15.30
  -4  -3  -5  617.34   15.20
  -4  -3  -5  640.14   15.10
   4   3   5  643.44   15.40
   4   3   5  636.04   15.60
   4   3   5  623.54   14.90
   4   3   5  607.04   14.70
  -5  -3  -5  533.05   13.80
  -5  -3  -5  547.75   15.10
  -5  -3  -5  554.94   14.10
  -5  -3  -5  544.85   13.70
  -5  -3  -5  538.15   13.60
   5   3   5  534.15   13.70
   5   3   5  518.95   13.40
   5   3   5  547.95   14.40
   5   3   5  530.75   14.00
  -6  -3  -5   18.20    3.90
  -6  -3  -5   23.10    3.70
  -6  -3  -5   25.60    4.10
  -6  -3  -5   21.40    3.60
  -6  -3  -5   19.70    3.40
   6   3   5   17.70    4.30
   6   3   5   19.70    3.60
   6   3   5   22.30    4.10
   6   3   5   24.30    3.70
  -7  -3  -5   23.20    4.30
  -7  -3  -5   27.30    4.50
  -7  -3  -5   16.10    4.80
  -7  -3  -5   28.80    4.70
  -7  -3  -5   27.80    4.60
   7   3   5   23.50    4.30
   7   3   5   34.90    4.60
   7   3   5   28.70    5.20
   7   3   5   13.10    4.40
  -8  -3  -5   -1.70    3.90
  -8  -3  -5   -3.40    4.10
  -8  -3  -5    1.30    4.70
  -8  -3  -5   -7.70    3.80
  -8  -3  -5    1.40    4.20
   8   3   5   -5.70    3.70
   8   3   5   -0.40    3.70
   8   3   5   -8.10    4.10
   8   3   5   -8.20    5.00
  -9  -3  -5  125.79    9.40
  -9  -3  -5  122.19   10.10
  -9  -3  -5  105.09   10.50
  -9  -3  -5  123.19    8.70
  -9  -3  -5  108.99    8.90
   9   3   5  104.19   10.40
   9   3   5  119.89   11.50
   9   3   5  111.59   10.20
   9   3   5  122.49   11.50
   9   3   5  105.79    8.70
   9   3   5  104.59    9.80
 -10  -3  -5  138.99   12.10
 -10  -3  -5  131.49   13.90
 -10  -3  -5  106.39   11.30
 -10  -3  -5  132.79   11.10
 -10  -3  -5  133.29   12.50
  10   3   5  131.39   12.20
  10   3   5  133.09   13.40
  10   3   5  162.98   17.50
 -11  -3  -5   51.19   14.70
  11   3   5   52.29    9.70
  12   3   5    0.30    8.40
   7  -4  -5   -6.50   15.00
   7  -4  -5   17.20   11.20
   6  -4  -5  -11.10    9.30
   6  -4  -5  -28.00   11.40
   6  -4  -5   18.70   11.00
  -6   4   5    1.20    9.60
  -6   4   5    1.60    8.70
  -6   4   5  -11.80    9.80
  -6   4   5   16.00   10.60
   5  -4  -5   15.10    7.60
   5  -4  -5   16.80    7.50
   5  -4  -5   27.10   11.50
   5  -4  -5   18.70    7.50
   5  -4  -5   25.60    9.20
   5  -4  -5   21.80    8.80
  -5   4   5   24.30    8.70
  -5   4   5   17.90    7.50
  -5   4   5   21.80   16.60
  -5   4   5   26.50    8.50
   4  -4  -5   12.10    5.50
   4  -4  -5    8.80    7.00
   4  -4  -5   14.60    5.80
   4  -4  -5   15.00    7.80
   4  -4  -5   22.80    6.40
   4  -4  -5   21.90    6.30
  -4   4   5   19.50    6.40
  -4   4   5   16.10    7.10
  -4   4   5   41.10    7.40
  -4   4   5   11.00    6.90
  -4   4   5   18.60    6.60
   3  -4  -5  494.25   14.80
   3  -4  -5  490.05   15.70
   3  -4  -5  506.35   17.20
   3  -4  -5  524.55   16.10
   3  -4  -5  522.75   15.20
   3  -4  -5  464.55   17.10
  -3   4   5  528.05   16.50
  -3   4   5  428.66   18.70
  -3   4   5  499.75   16.70
  -3   4   5  485.85   16.40
   2  -4  -5  165.28    8.00
   2  -4  -5  182.68    7.80
   2  -4  -5  152.58    9.40
   2  -4  -5  164.48    9.50
   2  -4  -5  169.08    8.90
   2  -4  -5  163.28    9.00
  -2   4   5  153.68    9.00
  -2   4   5  175.28    9.10
  -2   4   5  152.98    9.20
  -2   4   5  152.68    9.50
   1  -4  -5   37.70    5.10
   1  -4  -5   40.70    5.70
   1  -4  -5   38.10    5.50
   1  -4  -5   34.20    4.50
   1  -4  -5   41.30    5.50
   1  -4  -5   42.00    4.70
  -1   4   5   42.70    5.70
  -1   4   5   43.00    5.40
  -1   4   5   40.00    5.60
  -1   4   5   39.40    5.60
   0  -4  -5  253.57    9.70
   0  -4  -5  248.88    9.40
   0  -4  -5  242.08    9.20
   0  -4  -5  244.88    9.90
   0   4   5  253.07    9.60
   0   4   5  241.58    9.60
   0   4   5  232.98    9.30
   0   4   5  248.68    9.70
  -1  -4  -5    0.00    2.40
  -1  -4  -5    0.60    2.80
  -1  -4  -5    6.90    3.20
  -1  -4  -5    3.40    2.60
  -1  -4  -5    1.70    2.50
   1   4   5    2.80    2.80
   1   4   5    4.90    2.80
   1   4   5   -0.40    2.40
   1   4   5   -2.10    2.60
  -2  -4  -5   -1.50    2.00
  -2  -4  -5    1.40    2.70
  -2  -4  -5    2.90    2.40
  -2  -4  -5   -3.30    2.20
   2   4   5    1.60    2.40
   2   4   5    0.50    2.80
   2   4   5   -0.30    2.30
   2   4   5   -2.50    2.20
  -3  -4  -5   66.19    4.90
  -3  -4  -5   76.29    5.20
  -3  -4  -5   65.29    5.00
  -3  -4  -5   66.49    5.00
   3   4   5   70.39    4.90
   3   4   5   60.59    5.10
   3   4   5   66.19    4.70
   3   4   5   53.49    5.30
  -4  -4  -5    5.20    2.70
  -4  -4  -5   -2.70    2.50
  -4  -4  -5   -2.40    2.40
  -4  -4  -5    1.00    2.40
  -4  -4  -5    0.50    2.30
   4   4   5    1.00    2.40
   4   4   5    3.90    3.10
   4   4   5    0.30    2.40
   4   4   5    2.90    2.60
   4   4   5   -0.10    3.10
  -5  -4  -5   27.20    4.10
  -5  -4  -5   26.70    4.00
  -5  -4  -5   23.10    4.20
  -5  -4  -5   25.20    4.00
  -5  -4  -5   22.40    3.80
   5   4   5   28.30    4.20
   5   4   5   25.80    4.10
   5   4   5   27.40    3.60
   5   4   5   30.10    4.80
   5   4   5   21.40    4.20
  -6  -4  -5   40.40    5.30
  -6  -4  -5   52.09    5.40
  -6  -4  -5   52.59    5.30
  -6  -4  -5   49.40    5.50
  -6  -4  -5   51.19    5.60
   6   4   5   50.19    5.60
   6   4   5   54.89    6.60
   6   4   5   54.49    6.10
   6   4   5   46.10    5.30
   6   4   5   63.39    4.70
  -7  -4  -5   83.59    6.90
  -7  -4  -5   83.79    7.00
  -7  -4  -5   85.39    7.30
  -7  -4  -5   76.89    6.70
  -7  -4  -5   77.49    7.70
   7   4   5   82.29    6.10
   7   4   5   85.69    6.30
   7   4   5   82.69    7.60
   7   4   5   88.99    7.00
  -8  -4  -5   16.20    5.70
  -8  -4  -5    9.80    4.40
  -8  -4  -5   10.20    4.60
  -8  -4  -5   18.60    5.10
  -8  -4  -5   17.50    5.40
   8   4   5   -1.70    4.80
   8   4   5   13.40    5.80
   8   4   5   15.10    4.40
   8   4   5    8.50    4.20
   8   4   5   17.30    5.10
  -9  -4  -5   20.50    5.40
  -9  -4  -5   14.80    6.00
  -9  -4  -5   34.20    7.60
  -9  -4  -5   13.60    5.30
  -9  -4  -5   21.70    5.90
   9   4   5   25.10    6.40
   9   4   5   24.60    7.50
   9   4   5   15.60    7.40
   9   4   5   18.50    5.50
   9   4   5   23.50    6.10
   9   4   5   13.00    5.50
 -10  -4  -5   -7.20    6.50
 -10  -4  -5    7.40    9.80
 -10  -4  -5   -4.30    6.40
 -10  -4  -5    5.10    7.70
 -10  -4  -5    1.20    7.20
  10   4   5   -7.10    8.20
  10   4   5   12.70    6.50
 -11  -4  -5  -18.10   14.20
  11   4   5    7.50    6.50
  12   4   5    9.60    8.20
   7  -5  -5    8.60   12.70
   6  -5  -5   14.50   13.70
   6  -5  -5   16.00   12.00
  -6   5   5    8.30   12.30
   5  -5  -5   23.50    9.90
   5  -5  -5   21.90   11.70
   5  -5  -5   28.10    9.30
   5  -5  -5   40.80    9.50
  -5   5   5   28.60    9.90
  -5   5   5   21.20    9.70
  -5   5   5    5.10    9.90
  -5   5   5    0.90    9.60
   4  -5  -5   50.79    9.90
   4  -5  -5   51.09    7.50
   4  -5  -5   40.40    6.80
   4  -5  -5   35.50    8.00
   4  -5  -5   53.19    9.60
   4  -5  -5   51.39    8.30
  -4   5   5   41.00    9.50
  -4   5   5   60.59    8.70
  -4   5   5   56.59    8.90
  -4   5   5   38.80    8.50
   3  -5  -5  154.78   11.50
   3  -5  -5  133.89    9.80
   3  -5  -5  114.29    9.50
   3  -5  -5  122.69    9.60
   3  -5  -5  124.39   11.80
  -3   5   5  115.29   11.80
  -3   5   5  124.29   10.20
  -3   5   5  111.99   10.30
  -3   5   5  112.69   12.00
  -3   5   5  134.69   10.70
   2  -5  -5  132.39   10.00
   2  -5  -5  122.79    8.80
   2  -5  -5  123.69    7.80
   2  -5  -5  124.59    9.10
   2  -5  -5  137.29    9.70
   2  -5  -5  137.59    8.00
  -2   5   5  147.19    9.60
  -2   5   5  146.39   10.20
  -2   5   5   99.99   14.50
  -2   5   5  126.79    9.30
   1  -5  -5  221.68   11.60
   1  -5  -5  195.98   10.20
   1  -5  -5  186.28    9.70
   1  -5  -5  210.58   10.00
   1  -5  -5  217.48   10.70
   1  -5  -5  213.28    8.00
  -1   5   5  198.28   10.50
  -1   5   5  206.48   10.00
  -1   5   5  207.88   10.30
  -1   5   5  218.78   10.30
   0  -5  -5    8.30    4.00
   0  -5  -5    5.80    3.40
   0  -5  -5    5.60    4.20
   0  -5  -5    8.10    3.50
   0   5   5    1.10    4.20
   0   5   5    5.80    3.90
   0   5   5   -2.30    3.70
   0   5   5    4.50    3.60
  -1  -5  -5  198.98    9.00
  -1  -5  -5  198.68    9.00
  -1  -5  -5  195.68    8.80
  -1  -5  -5  198.38    9.40
   1   5   5  206.38    9.10
   1   5   5  198.18    9.50
   1   5   5  207.08    9.00
   1   5   5  191.48    8.80
  -2  -5  -5   62.69    5.80
  -2  -5  -5   60.09    5.50
  -2  -5  -5   54.29    5.60
  -2  -5  -5   60.69    5.40
   2   5   5   62.09    5.80
   2   5   5   53.09    6.40
   2   5   5   43.70    5.30
   2   5   5   50.09    5.30
  -3  -5  -5   -1.40    2.90
  -3  -5  -5    0.10    2.90
  -3  -5  -5    1.60    2.70
  -3  -5  -5    5.70    3.00
   3   5   5   -3.00    3.80
   3   5   5    0.60    2.90
   3   5   5    2.80    3.10
   3   5   5   -0.30    3.20
  -4  -5  -5   17.70    3.20
  -4  -5  -5   13.90    4.00
  -4  -5  -5   17.90    3.80
  -4  -5  -5   13.20    3.50
  -4  -5  -5   16.90    3.90
   4   5   5   14.40    2.30
   4   5   5   13.80    3.90
   4   5   5   14.60    3.60
   4   5   5   18.10    3.50
  -5  -5  -5    0.70    2.80
  -5  -5  -5    4.60    3.10
  -5  -5  -5    7.60    3.40
  -5  -5  -5    1.90    3.30
  -5  -5  -5    0.10    2.70
   5   5   5    6.10    3.20
   5   5   5   -1.10    3.70
   5   5   5    4.80    3.30
   5   5   5    1.60    2.60
   5   5   5    3.30    5.00
  -6  -5  -5    9.80    4.30
  -6  -5  -5   17.40    4.00
  -6  -5  -5   22.90    4.40
  -6  -5  -5   12.70    4.20
  -6  -5  -5   19.10    4.10
   6   5   5   15.40    3.50
   6   5   5   19.40    4.20
   6   5   5   13.30    4.80
   6   5   5   17.80    4.40
  -7  -5  -5    9.60    4.80
  -7  -5  -5   11.60    5.10
  -7  -5  -5   13.50    5.80
  -7  -5  -5   24.00    5.20
  -7  -5  -5   10.30    4.60
   7   5   5   17.30    3.90
   7   5   5    6.10    5.10
   7   5   5   17.10    5.00
   7   5   5   17.50    4.30
  -8  -5  -5   19.30    5.60
  -8  -5  -5   21.30    5.70
  -8  -5  -5   18.00    5.50
  -8  -5  -5   30.20    6.60
  -8  -5  -5   25.60    5.50
   8   5   5   23.10    5.00
   8   5   5   31.00    6.10
   8   5   5   36.40    6.60
   8   5   5   26.10    5.50
   8   5   5   23.60    6.90
  -9  -5  -5   59.29    7.70
  -9  -5  -5   60.39    8.70
  -9  -5  -5   71.89    9.40
  -9  -5  -5   71.89    8.70
  -9  -5  -5   57.79    7.50
   9   5   5   47.90    7.10
   9   5   5   55.49    8.60
   9   5   5   56.09    7.20
   9   5   5   64.19    8.30
   9   5   5   49.50    9.60
 -10  -5  -5   36.70    7.60
 -10  -5  -5   29.80    9.50
 -10  -5  -5   40.90    8.50
 -10  -5  -5   18.50    7.70
 -10  -5  -5   27.30    7.10
  10   5   5   28.10    7.20
  10   5   5   25.20    8.00
  10   5   5   30.30    8.40
  10   5   5   38.20    8.80
  11   5   5   11.00    7.00
  12   5   5   24.80    8.10
   6  -6  -5   55.69   13.90
   5  -6  -5   72.49   13.70
   5  -6  -5   82.79   13.00
  -5   6   5   65.09   13.40
  -5   6   5   58.29   12.20
   4  -6  -5   16.20    9.80
   4  -6  -5    3.70    9.70
   4  -6  -5   14.40    8.40
   4  -6  -5   -4.60    6.90
  -4   6   5  -19.40    8.40
  -4   6   5    3.00    8.60
   3  -6  -5   22.40    8.30
   3  -6  -5   12.30    7.10
   3  -6  -5   18.50    5.70
   3  -6  -5   24.30    7.10
   3  -6  -5   29.90    7.40
   3  -6  -5   26.30    8.60
  -3   6   5   25.00    7.20
  -3   6   5   22.20    8.50
  -3   6   5   18.30    7.90
  -3   6   5   14.10    7.00
   2  -6  -5  102.49    9.60
   2  -6  -5  112.29    7.90
   2  -6  -5   99.59   11.60
   2  -6  -5  120.49   11.10
   2  -6  -5  108.89    8.90
   2  -6  -5  103.89    9.70
  -2   6   5  144.79   11.30
  -2   6   5  129.59   10.80
  -2   6   5  119.99   11.00
  -2   6   5  122.39   10.30
   1  -6  -5   35.70    5.00
   1  -6  -5   28.00    6.10
   1  -6  -5   37.00    6.30
   1  -6  -5   32.30    6.90
   1  -6  -5   38.10    6.50
  -1   6   5   39.80    6.50
  -1   6   5   27.70    6.30
  -1   6   5   31.30    6.40
  -1   6   5   28.30    6.60
   0  -6  -5  117.09    9.00
   0  -6  -5  104.79    8.10
   0  -6  -5  105.89    8.80
   0  -6  -5  118.49    8.80
   0   6   5   95.39    8.40
   0   6   5  104.49    8.10
   0   6   5  128.69    8.70
   0   6   5  110.99    8.90
  -1  -6  -5   14.40    4.40
  -1  -6  -5   22.60    4.90
  -1  -6  -5   18.90    5.00
  -1  -6  -5   15.20    4.50
   1   6   5   15.30    4.50
   1   6   5    6.90    5.10
   1   6   5    7.20    4.00
   1   6   5    8.40    4.50
  -2  -6  -5   18.70    4.50
  -2  -6  -5   21.00    4.80
  -2  -6  -5   18.30    5.70
  -2  -6  -5   13.00    4.60
   2   6   5   23.40    4.70
   2   6   5    8.20    4.70
   2   6   5   23.70    5.10
   2   6   5   16.00    4.10
  -3  -6  -5  137.99    8.40
  -3  -6  -5  134.79    8.00
  -3  -6  -5  124.09    8.00
  -3  -6  -5  138.49    8.10
   3   6   5  132.49    7.80
   3   6   5  149.49    9.30
   3   6   5  143.19    8.40
   3   6   5  129.59    8.00
  -4  -6  -5    5.70    4.10
  -4  -6  -5    8.80    4.10
  -4  -6  -5    4.10    3.70
  -4  -6  -5    5.70    3.10
  -4  -6  -5    8.80    3.80
   4   6   5    4.70    3.60
   4   6   5   -0.10    4.30
   4   6   5    6.30    3.50
   4   6   5    2.70    4.60
   4   6   5    2.40    2.50
  -5  -6  -5   34.60    4.90
  -5  -6  -5   41.90    5.90
  -5  -6  -5   45.00    6.70
  -5  -6  -5   38.10    5.70
  -5  -6  -5   45.10    6.40
   5   6   5   33.10    4.20
   5   6   5   33.30    3.60
   5   6   5   33.70    5.00
   5   6   5   56.39    7.60
   5   6   5   42.70    6.30
   5   6   5   38.20    5.10
  -6  -6  -5  108.19    7.90
  -6  -6  -5  113.49    8.00
  -6  -6  -5  106.99    8.80
  -6  -6  -5  102.69    8.40
  -6  -6  -5  103.99    7.90
   6   6   5  110.79    7.90
   6   6   5  105.49    8.00
   6   6   5  107.29    6.10
   6   6   5  122.99    8.90
  -7  -6  -5   69.69    7.90
  -7  -6  -5   75.29    8.40
  -7  -6  -5   69.79   12.60
   7   6   5   67.79    8.20
   7   6   5   98.29    8.90
   7   6   5   69.79    7.90
   7   6   5   69.59    5.60
  -8  -6  -5    5.00    5.00
  -8  -6  -5    4.50    5.40
  -8  -6  -5    6.30    5.00
  -8  -6  -5   -4.20    5.00
  -8  -6  -5    3.20    6.10
   8   6   5    3.60    4.20
   8   6   5   -9.40    6.30
   8   6   5    8.70    5.60
   8   6   5   12.30    5.50
   8   6   5    6.70    7.30
  -9  -6  -5   80.69    9.60
  -9  -6  -5  103.49   10.30
  -9  -6  -5   73.69    8.80
  -9  -6  -5   82.69   11.90
  -9  -6  -5   83.59   10.10
   9   6   5   80.19    9.50
   9   6   5   49.00   10.90
   9   6   5   76.99   10.60
   9   6   5   74.79    7.60
   9   6   5   55.09    8.90
 -10  -6  -5   69.99    8.90
 -10  -6  -5   62.29    8.80
 -10  -6  -5   54.29    8.80
 -10  -6  -5   52.79   10.00
 -10  -6  -5   74.49   11.50
  10   6   5   71.79    9.60
  10   6   5   86.39   17.20
  10   6   5   55.39    9.90
  11   6   5    8.30    6.60
  11   6   5   22.60   12.60
  12   6   5   13.30    7.70
   5  -7  -5   45.70   12.60
   4  -7  -5   -9.90   12.10
   4  -7  -5   -5.90    9.70
   4  -7  -5    3.80   10.10
  -4   7   5   13.40   10.90
   3  -7  -5    9.80    9.60
   3  -7  -5    7.70   10.00
   3  -7  -5   15.70    8.60
   3  -7  -5    3.60    6.70
  -3   7   5   18.00    9.10
  -3   7   5    7.00    9.80
  -3   7   5   17.40    9.60
  -3   7   5   -8.00    8.50
   2  -7  -5   28.50    7.90
   2  -7  -5   30.10    8.50
   2  -7  -5   43.20    9.60
   2  -7  -5   39.10    9.20
  -2   7   5   39.80    8.20
  -2   7   5   28.50    8.10
  -2   7   5   40.70    9.20
  -2   7   5   46.70    9.10
   1  -7  -5   -7.60    6.60
   1  -7  -5    0.50    4.20
   1  -7  -5    8.30    5.90
   1  -7  -5   12.70    6.00
  -1   7   5    1.00    6.10
  -1   7   5   -4.00    6.80
  -1   7   5    6.00    6.90
  -1   7   5    0.70    6.30
   0  -7  -5   85.89    9.00
   0  -7  -5   74.09   10.30
   0  -7  -5   96.39    7.00
   0  -7  -5   87.69    9.30
   0  -7  -5  112.39   10.10
   0   7   5   91.09    9.90
   0   7   5   99.19    9.50
   0   7   5  112.79   10.30
   0   7   5   81.59    9.40
  -1  -7  -5   19.30    6.30
  -1  -7  -5   22.40    5.70
  -1  -7  -5    7.60    5.10
  -1  -7  -5   14.70    5.40
   1   7   5   14.60    5.80
   1   7   5   10.20    4.80
   1   7   5   22.00    6.10
  -2  -7  -5    7.30    4.70
  -2  -7  -5    4.00    5.00
  -2  -7  -5    2.60    4.70
   2   7   5    4.20    4.80
   2   7   5    1.60    5.40
   2   7   5    3.80    5.40
   2   7   5   -0.20    4.20
  -3  -7  -5  154.28    9.90
  -3  -7  -5  168.38   10.00
  -3  -7  -5  163.48    9.90
  -3  -7  -5  159.08    9.40
   3   7   5  150.78   10.50
   3   7   5  171.48   10.80
   3   7   5  149.29    9.40
   3   7   5  157.18    9.50
  -4  -7  -5  384.66   14.00
  -4  -7  -5  367.96   14.20
  -4  -7  -5  402.96   14.40
  -4  -7  -5  378.16   14.30
  -4  -7  -5  384.36   12.90
   4   7   5  388.96   13.70
   4   7   5  383.46   13.80
   4   7   5  376.46   14.80
   4   7   5  379.66   11.70
   4   7   5  394.16   14.70
  -5  -7  -5   10.10    5.70
  -5  -7  -5   10.50    5.10
  -5  -7  -5    7.40    4.30
  -5  -7  -5    3.50    4.40
  -5  -7  -5    4.70    5.10
   5   7   5    7.30    3.30
   5   7   5    7.90    5.80
   5   7   5   10.00    4.70
   5   7   5    9.10    6.10
   5   7   5   15.10    5.00
  -6  -7  -5   73.69    8.10
  -6  -7  -5   76.99    8.60
  -6  -7  -5   68.89    7.60
  -6  -7  -5   91.49    9.20
  -6  -7  -5   74.99    9.20
   6   7   5   79.79    8.10
   6   7   5   85.59    8.50
   6   7   5   84.69    9.30
   6   7   5   71.89    5.50
   6   7   5   59.29    8.50
   6   7   5   71.19    5.60
  -7  -7  -5  152.38   10.60
  -7  -7  -5  167.58   11.30
  -7  -7  -5  183.88   11.10
  -7  -7  -5  177.18   11.70
  -7  -7  -5  167.98   11.20
   7   7   5  185.48   12.10
   7   7   5  174.88   10.90
   7   7   5  154.78    7.80
   7   7   5  152.68   11.90
   7   7   5  166.38   10.90
  -8  -7  -5  141.79   11.10
  -8  -7  -5  171.18   11.30
  -8  -7  -5  177.48   12.80
  -8  -7  -5  154.18   12.00
  -8  -7  -5  143.79   10.80
   8   7   5  166.38    8.50
   8   7   5  151.88   12.20
   8   7   5  145.49   11.70
   8   7   5  136.09   13.70
   8   7   5  147.99   12.50
  -9  -7  -5   16.20    6.40
  -9  -7  -5   -2.70    8.70
  -9  -7  -5    0.10    7.20
  -9  -7  -5    4.10    7.60
   9   7   5    0.40    8.00
   9   7   5    6.60    5.30
   9   7   5   23.50   12.80
   9   7   5   17.70    9.10
 -10  -7  -5  121.89   16.70
 -10  -7  -5  136.49   14.20
 -10  -7  -5  118.19   13.90
 -10  -7  -5  111.29   13.70
  10   7   5  117.79   10.70
  10   7   5  171.68   15.20
  11   7   5   -2.40   12.00
  12   7   5   16.30    8.30
   4  -8  -5   53.49   13.40
   3  -8  -5   62.79   13.90
   3  -8  -5   54.89    9.70
  -3   8   5   54.99   13.40
  -3   8   5   49.80   11.90
   2  -8  -5    9.00    6.80
   2  -8  -5   29.60   10.10
   2  -8  -5   21.10   11.30
  -2   8   5   11.00    8.90
  -2   8   5   43.40   10.90
  -2   8   5   23.70    8.90
  -2   8   5   -2.40   10.20
   1  -8  -5   -1.10    5.20
   1  -8  -5    2.70    7.90
   1  -8  -5   -3.60    8.30
   1  -8  -5   -8.10    8.50
  -1   8   5    0.70    7.00
  -1   8   5   -5.50    7.10
  -1   8   5   -6.70   10.00
  -1   8   5    2.80    8.30
   0  -8  -5   22.50    7.20
   0  -8  -5   34.50    7.70
   0  -8  -5   37.00    8.20
   0  -8  -5   20.90    8.20
   0  -8  -5   41.20    5.80
   0   8   5   35.10    7.80
   0   8   5   30.70    8.30
   0   8   5   30.20    7.40
  -1  -8  -5   88.39   10.40
  -1  -8  -5   97.59   12.20
  -1  -8  -5  105.09   10.50
  -1  -8  -5  101.59   11.20
   1   8   5   99.39   11.20
   1   8   5   94.99   10.50
  -2  -8  -5    0.30    5.50
  -2  -8  -5   -4.60    6.00
  -2  -8  -5   -1.60    6.20
   2   8   5   -2.00    5.40
   2   8   5    6.70    7.10
   2   8   5    6.90    6.00
   2   8   5    1.40    9.00
  -3  -8  -5   37.70    7.00
  -3  -8  -5   66.89    8.90
  -3  -8  -5   40.50    9.70
  -3  -8  -5   40.00    7.20
   3   8   5   50.89    8.60
   3   8   5   50.79    7.90
   3   8   5   46.00    6.90
   3   8   5   43.60    7.70
  -4  -8  -5    5.90    4.40
  -4  -8  -5   12.80    6.00
  -4  -8  -5   15.00    5.80
  -4  -8  -5    4.80    5.20
  -4  -8  -5   13.60    6.40
   4   8   5    8.60    5.10
   4   8   5   21.30    6.90
   4   8   5    4.40    6.20
   4   8   5   17.10    4.80
   4   8   5    9.50    6.30
  -5  -8  -5   26.40    7.30
  -5  -8  -5   26.30    6.50
  -5  -8  -5   19.60    6.20
  -5  -8  -5   32.70    8.20
  -5  -8  -5   14.70    4.90
   5   8   5   20.70    6.80
   5   8   5   40.60    8.20
   5   8   5   19.90    6.10
   5   8   5   19.90    4.70
  -6  -8  -5  141.19   11.40
  -6  -8  -5  135.29   10.80
  -6  -8  -5  145.29   13.20
  -6  -8  -5  128.69    9.80
   6   8   5  136.69   11.80
   6   8   5  122.69   11.80
   6   8   5  123.19   12.70
   6   8   5  137.59    7.10
   6   8   5  139.89   11.00
   6   8   5  130.29    7.70
  -7  -8  -5    1.30    6.10
  -7  -8  -5   -1.70    5.50
  -7  -8  -5  -10.30    6.60
  -7  -8  -5   11.50    6.70
   7   8   5    0.20    4.40
   7   8   5   -0.60    8.50
   7   8   5    4.40    7.00
   7   8   5    1.00    6.60
   7   8   5   -5.80    4.10
   7   8   5   -2.80    7.30
  -8  -8  -5  113.49   14.50
  -8  -8  -5  101.19   13.60
  -8  -8  -5  132.39   12.30
  -8  -8  -5  117.69   10.90
  -8  -8  -5  117.99   11.90
   8   8   5  134.59   17.80
   8   8   5  142.69   14.50
   8   8   5  123.19   12.50
   8   8   5  133.59   12.90
   8   8   5  130.29    8.40
  -9  -8  -5   39.60   11.10
  -9  -8  -5   17.90    7.60
  -9  -8  -5   25.90   10.00
  -9  -8  -5   23.50    8.40
  -9  -8  -5   43.30    8.90
   9   8   5   53.29    9.70
   9   8   5   25.90    9.10
   9   8   5   34.60    6.80
 -10  -8  -5   -2.30   14.70
 -10  -8  -5    3.30   11.80
 -10  -8  -5   -2.20    9.70
 -10  -8  -5    2.00    8.90
  10   8   5   -0.20   10.80
  10   8   5    7.20    7.80
  11   8   5   65.39   14.80
   2  -9  -5   15.60   13.10
  -2   9   5    4.80   11.40
   1  -9  -5    5.70   10.40
   1  -9  -5   12.60   11.70
  -1   9   5   -5.80   11.70
  -1   9   5    1.80   11.40
  -1   9   5   -7.30    8.90
  -1   9   5   -5.50    9.50
   0  -9  -5   49.99    6.50
   0  -9  -5   62.19   10.90
   0  -9  -5   41.60   17.60
   0  -9  -5   58.49   10.70
   0   9   5   33.40   10.70
   0   9   5   56.79   10.60
   0   9   5   45.00    9.80
   0   9   5   49.20    9.80
  -1  -9  -5    9.00   10.80
  -1  -9  -5   16.90    8.50
  -1  -9  -5   11.00    5.20
  -1  -9  -5    4.00    8.30
  -1  -9  -5   17.60    8.10
   1   9   5   11.50    7.40
   1   9   5   15.10    9.10
   1   9   5    8.90    7.70
   1   9   5    1.30    8.70
  -2  -9  -5   -2.90    7.20
  -2  -9  -5    1.40    8.30
  -2  -9  -5   -4.40    7.60
  -2  -9  -5    6.30    7.20
   2   9   5    8.50    7.10
   2   9   5    4.80    7.00
   2   9   5    5.20    8.50
   2   9   5    3.90    7.90
  -3  -9  -5   -0.50    7.30
  -3  -9  -5   21.20    7.20
  -3  -9  -5   13.80    6.90
  -3  -9  -5   18.40    5.50
  -3  -9  -5    7.40    7.40
   3   9   5    5.00    7.40
   3   9   5   18.40    6.90
   3   9   5   -5.10    7.60
   3   9   5   18.00    7.70
  -4  -9  -5  176.18   12.30
  -4  -9  -5  144.29   12.40
  -4  -9  -5  185.28   10.30
  -4  -9  -5  135.69   12.20
  -4  -9  -5  168.28   12.70
   4   9   5  155.28   12.20
   4   9   5  145.29   14.50
   4   9   5  174.08   13.30
   4   9   5  164.78   10.70
   4   9   5  156.18   11.90
  -5  -9  -5   26.90    7.90
  -5  -9  -5   40.00    6.40
  -5  -9  -5   34.00    8.10
  -5  -9  -5   34.20    7.80
  -5  -9  -5   25.40    7.60
   5   9   5   45.50    6.60
   5   9   5   41.70    8.30
   5   9   5   42.10    9.30
   5   9   5   36.10    8.60
   5   9   5   35.90    7.90
  -6  -9  -5  116.99   13.10
  -6  -9  -5  121.39   12.70
  -6  -9  -5  158.08   12.60
  -6  -9  -5  153.08   13.40
  -6  -9  -5  119.69   12.90
   6   9   5  127.79    7.80
   6   9   5  132.69    9.10
   6   9   5  140.49   15.50
   6   9   5  140.99   14.10
   6   9   5  143.39   12.40
   6   9   5  128.39   12.00
  -7  -9  -5   56.69    9.20
  -7  -9  -5   41.30    9.10
  -7  -9  -5   32.00    9.90
  -7  -9  -5   41.40    7.30
  -7  -9  -5   30.20    8.70
   7   9   5   54.49    9.10
   7   9   5   38.40    6.40
   7   9   5   32.20   10.60
   7   9   5   23.50   13.40
   7   9   5   46.90    9.10
   7   9   5   60.39    6.80
  -8  -9  -5  190.18   15.10
  -8  -9  -5  176.08   12.90
  -8  -9  -5  221.28   15.10
  -8  -9  -5  169.58   16.50
  -8  -9  -5  165.18   17.40
   8   9   5  152.68   11.50
   8   9   5  191.68   10.20
   8   9   5  185.98   15.50
   8   9   5  174.68   17.90
  -9  -9  -5   90.69   10.00
  -9  -9  -5   84.09   11.80
  -9  -9  -5  109.09   15.10
  -9  -9  -5   81.59   13.30
   9   9   5   96.69   10.60
   9   9   5  132.39   15.80
   9   9   5   85.99   12.20
  10   9   5   53.89    9.30
  10   9   5   68.59   12.90
  11   9   5   38.90   11.60
  11   9   5   -9.00   16.40
   1 -10  -5  102.69   16.00
   0 -10  -5   20.00   12.40
   0  10   5    1.80   10.60
  -1 -10  -5   -1.70    8.20
  -1 -10  -5  -12.90   10.30
  -1 -10  -5    7.80   10.80
   1  10   5   -4.30    9.90
   1  10   5   21.60    9.00
   1  10   5   12.20   12.60
   1  10   5   -8.00   11.40
  -2 -10  -5   16.30   10.20
  -2 -10  -5   20.60   14.10
  -2 -10  -5   33.90    6.20
  -2 -10  -5   47.60   10.80
   2  10   5   22.90    9.30
   2  10   5   17.70   10.50
   2  10   5   41.80    9.90
   2  10   5   39.30   12.20
  -3 -10  -5   71.89   10.10
  -3 -10  -5   83.39   11.60
  -3 -10  -5   70.99   11.40
  -3 -10  -5   67.59   10.70
   3  10   5   94.89   12.90
   3  10   5   91.79   12.00
   3  10   5   71.29    9.90
   3  10   5   78.49   10.50
   3  10   5   76.69   11.80
  -4 -10  -5   26.60   10.00
  -4 -10  -5   15.80    9.90
  -4 -10  -5   19.50    6.70
  -4 -10  -5   21.40    9.20
   4  10   5    8.20    8.10
   4  10   5    1.60    9.60
   4  10   5   35.30   11.00
   4  10   5   17.50    7.80
   4  10   5   21.80    8.40
  -5 -10  -5   20.00    8.90
  -5 -10  -5   -9.20    9.30
  -5 -10  -5   15.10    9.10
  -5 -10  -5    5.90    6.20
   5  10   5   12.90    9.10
   5  10   5   -2.60   11.30
   5  10   5    9.40    9.50
   5  10   5   -5.60    7.50
   5  10   5    4.00    6.90
  -6 -10  -5   11.30    7.30
  -6 -10  -5   25.20   10.20
  -6 -10  -5   18.00    9.10
  -6 -10  -5   28.20    9.40
   6  10   5   29.10    8.60
   6  10   5   17.60    6.00
   6  10   5    9.80   11.00
   6  10   5   27.20    7.60
   6  10   5   34.00    9.20
  -7 -10  -5   11.20    6.90
  -7 -10  -5   -1.40    9.40
  -7 -10  -5   -3.20   10.10
  -7 -10  -5    4.20    9.10
   7  10   5    4.20    9.00
   7  10   5   11.30   10.30
   7  10   5   32.10   12.70
   7  10   5   -9.40    5.70
   7  10   5   10.80    7.00
  -8 -10  -5   95.59   12.60
  -8 -10  -5   86.59   12.50
  -8 -10  -5   45.10   12.80
  -8 -10  -5   75.89    9.50
   8  10   5   84.19   12.10
   8  10   5   73.59   13.50
   8  10   5   90.09   11.80
   8  10   5   94.49   10.70
  -9 -10  -5   32.90   12.40
  -9 -10  -5   13.90    9.50
   9  10   5   19.30    8.30
   9  10   5   10.40   16.30
   9  10   5   20.10   12.10
 -10 -10  -5   24.30   14.00
  10  10   5   43.70   16.40
  10  10   5   35.40   10.60
   0 -11  -5   29.40   17.50
  -1 -11  -5   43.10   14.40
  -2 -11  -5   19.20   12.50
   2  11   5   13.50   11.60
  -3 -11  -5    6.60   10.90
   3  11   5   20.00   10.80
   3  11   5    8.80    9.30
   3  11   5   13.60   13.90
   3  11   5   13.10    9.70
  -4 -11  -5    6.60    7.30
  -4 -11  -5   25.60   12.10
  -4 -11  -5   -8.40   10.50
   4  11   5   14.10   11.20
   4  11   5    9.70    9.40
   4  11   5   22.70   11.30
  -5 -11  -5   24.90   11.10
  -5 -11  -5   21.30    7.80
  -5 -11  -5   30.70   11.90
   5  11   5  -20.40   11.60
   5  11   5    8.50    8.70
   5  11   5   -3.00   10.70
   5  11   5    6.40   10.50
  -6 -11  -5   20.70    8.20
  -6 -11  -5   27.30   11.20
  -6 -11  -5   36.60   11.70
   6  11   5   22.40    7.30
   6  11   5   25.50   11.90
   6  11   5   37.70    8.70
   6  11   5   23.60   13.70
   6  11   5   38.30   11.20
  -7 -11  -5   -1.20    8.40
  -7 -11  -5   23.00   13.10
  -7 -11  -5   26.40   13.50
   7  11   5   12.40    7.50
   7  11   5   16.10   13.00
   7  11   5    0.40    8.20
   7  11   5    7.00   12.30
  -8 -11  -5   23.40   13.40
  -8 -11  -5    9.90    9.70
   8  11   5    7.90   15.60
   8  11   5   12.60    8.80
   8  11   5   12.30   15.00
  -9 -11  -5   15.30   10.90
  -9 -11  -5  -31.60   15.90
   9  11   5   31.60   10.00
  -3 -12  -5  -11.00   16.00
  -4 -12  -5   64.79   17.60
   4  12   5   18.90   12.80
   4  12   5   37.20   22.30
   5  12   5   -1.70   11.40
   5  12   5  -13.30   13.20
   6  12   5   34.90   10.00
   6  12   5   56.99   14.70
   6  12   5   56.39   13.60
   7  12   5  -17.40    9.80
   7  12   5    7.80   16.10
   8  12   5   18.10   11.60
  -5 -12   6    4.10    8.60
  -4 -12   6  -10.80    7.90
  -3 -12   6   -0.80    9.40
  -2 -12   6   -5.00    9.90
  -1 -12   6   10.90   11.40
  -6 -11   6    3.20    7.70
  -5 -11   6   19.70    7.90
  -4 -11   6   15.80    8.00
  -3 -11   6    5.50    7.90
   2  11  -6    5.00    8.40
  -2 -11   6    7.50    7.80
   1  11  -6   -6.70    7.80
  -1 -11   6   -4.00    8.40
   0 -11   6    3.10    9.30
   1 -11   6   -7.60   13.10
   5  10  -6   20.80   14.20
   5  10  -6   12.80    9.70
   5  10  -6    1.20   13.80
  -5 -10   6    4.50    5.80
   4  10  -6  155.08   15.90
   4  10  -6  144.69   13.00
   4  10  -6  156.98   13.40
  -4 -10   6  155.58   20.60
  -4 -10   6  159.28   12.20
   3  10  -6  -13.20    8.30
   3  10  -6   22.50    7.20
   3  10  -6   -1.60    6.80
  -3 -10   6    0.20    5.60
   2  10  -6    2.70    6.20
   2  10  -6   11.90    8.50
   2  10  -6    2.60    6.30
  -2 -10   6    2.00    6.20
   1  10  -6   -2.70    6.00
   1  10  -6   -5.30    5.90
   1  10  -6  -13.00    8.40
  -1 -10   6    0.60    6.70
   0  10  -6   -6.10    5.90
   0  10  -6    3.50    9.00
   0 -10   6   -0.10    7.00
   1 -10   6  104.39   12.60
   2 -10   6  113.79   16.70
  -8  -9   6    2.80   14.10
   7   9  -6   13.00   14.00
  -7  -9   6   27.20   12.60
   6   9  -6    4.40   10.00
   6   9  -6   -1.80   10.70
   6   9  -6   -2.70    8.50
   6   9  -6   -1.70   10.30
  -6  -9   6    4.80   10.30
   5   9  -6   13.70    9.60
   5   9  -6   -3.40    7.80
   5   9  -6   -2.10    8.10
   5   9  -6    3.20    7.00
   5   9  -6   -2.50    8.40
  -5  -9   6   -5.80    8.90
  -5  -9   6  -11.90    7.80
   4   9  -6   97.59   13.70
   4   9  -6   76.99   10.70
   4   9  -6   79.19   11.20
   4   9  -6   97.29   10.90
   4   9  -6   90.69    9.80
  -4  -9   6   91.89   11.70
  -4  -9   6   96.19    9.10
   3   9  -6  160.38   10.00
   3   9  -6  143.09   11.40
   3   9  -6  143.59   11.90
   3   9  -6  142.99   10.10
   3   9  -6  137.19   12.30
  -3  -9   6  156.78   11.20
  -3  -9   6  169.98   10.20
  -3  -9   6  166.08   11.30
  -3  -9   6  143.19   13.10
   2   9  -6  107.99   10.40
   2   9  -6  127.79   11.50
   2   9  -6  119.69    8.80
   2   9  -6  116.29   10.50
   2   9  -6  112.79    8.50
  -2  -9   6  111.79    9.20
  -2  -9   6   99.89    8.80
  -2  -9   6  106.59   10.80
  -2  -9   6  116.09   10.40
   1   9  -6    7.10    4.70
   1   9  -6    7.60    6.00
   1   9  -6    5.70    5.70
   1   9  -6   -2.40    4.60
   1   9  -6   -1.40    6.30
  -1  -9   6    4.20    5.10
  -1  -9   6    2.70    5.60
  -1  -9   6    8.60    6.30
   0   9  -6   42.80    6.10
   0   9  -6   26.00    7.60
   0   9  -6   28.20    5.10
   0  -9   6   36.10    7.70
  -1   9  -6   39.10    8.70
   1  -9   6   67.39   10.10
  -2   9  -6    0.80    8.90
   2  -9   6   27.60    8.80
   3  -9   6   34.80   10.70
   8   8  -6   -9.50   12.70
  -8  -8   6   -4.40   11.00
   7   8  -6    8.00   11.20
   7   8  -6   19.00   10.60
   7   8  -6   17.80    9.20
   7   8  -6   15.70    9.40
   7   8  -6   11.30   11.50
  -7  -8   6   26.80   10.10
   6   8  -6   -3.00    9.30
   6   8  -6   24.10    8.80
   6   8  -6   23.00    9.20
   6   8  -6   28.80    7.60
   6   8  -6   23.70    7.10
   6   8  -6   16.70    8.50
  -6  -8   6    3.80    7.90
  -6  -8   6   17.60   15.00
   5   8  -6   12.00    7.20
   5   8  -6   10.10    6.70
   5   8  -6   -2.10    5.60
   5   8  -6    0.40    6.70
   5   8  -6    1.80    8.00
   5   8  -6   -3.30    6.20
  -5  -8   6   -6.10    7.10
  -5  -8   6    1.60    5.80
  -5  -8   6   -2.50    8.90
   4   8  -6   32.80    7.10
   4   8  -6   44.50    6.50
   4   8  -6   44.50    8.30
   4   8  -6   39.60    6.90
   4   8  -6   34.30    6.70
  -4  -8   6   38.10    8.00
  -4  -8   6   30.70    7.20
  -4  -8   6   31.40    6.20
  -4  -8   6   45.10    7.60
  -4  -8   6   31.90    8.70
   3   8  -6   62.09    8.10
   3   8  -6   55.59    6.80
   3   8  -6   65.99    9.20
   3   8  -6   68.79    9.30
   3   8  -6   55.69    7.40
  -3  -8   6   56.19    7.40
  -3  -8   6   65.99    9.40
  -3  -8   6   57.79    6.90
  -3  -8   6   56.39    7.10
  -3  -8   6   49.10    7.00
   2   8  -6  506.25   14.60
   2   8  -6  502.65   15.80
   2   8  -6  489.05   14.60
   2   8  -6  530.95   17.90
   2   8  -6  496.15   16.50
  -2  -8   6  535.65   16.00
  -2  -8   6  460.95   17.30
  -2  -8   6  490.25   15.20
  -2  -8   6  507.65   14.40
  -2  -8   6  502.35   14.20
   1   8  -6   13.80    5.00
   1   8  -6   12.10    5.60
   1   8  -6   13.80    4.70
   1   8  -6   17.30    4.60
   1   8  -6    9.20    4.10
  -1  -8   6   17.40    5.40
  -1  -8   6   13.00    5.20
  -1  -8   6   11.70    4.20
   0   8  -6   -1.00    4.20
   0   8  -6    6.80    4.00
   0   8  -6   -5.80    5.20
   0   8  -6    0.60    3.50
   0  -8   6   -0.30    5.00
  -1   8  -6    5.20    5.70
   1  -8   6    5.60    5.10
  -2   8  -6   52.99    7.90
   2  -8   6   64.49    9.70
  -3   8  -6  236.68   14.70
   3  -8   6  270.57   15.10
  -4   8  -6   96.99   11.60
   4  -8   6   93.99   11.80
   5  -8   6  143.59   13.40
   6  -8   6   38.60   11.10
  -9  -7   6   52.69   17.90
   8   7  -6   12.30   10.60
   8   7  -6  -10.20   13.40
  -8  -7   6   15.80   11.00
   7   7  -6    3.90    9.10
   7   7  -6   -3.70   11.00
   7   7  -6    8.30    8.20
   7   7  -6    8.70    7.90
   7   7  -6   22.60   10.80
   7   7  -6   16.90    9.20
  -7  -7   6   10.50    7.90
  -7  -7   6   -3.50    8.60
   6   7  -6    2.40    7.10
   6   7  -6    1.90    6.00
   6   7  -6   11.80    7.90
   6   7  -6    0.90    6.90
   6   7  -6   11.30    7.30
   6   7  -6   15.40    8.70
  -6  -7   6    1.10    6.90
  -6  -7   6   13.20    7.70
  -6  -7   6    7.00    7.60
   5   7  -6   27.40    6.70
   5   7  -6   40.60    7.30
   5   7  -6   32.20    5.80
   5   7  -6   25.60    6.70
   5   7  -6   41.60    8.40
   5   7  -6   36.60    6.40
  -5  -7   6   33.50    7.40
  -5  -7   6   23.70    7.10
  -5  -7   6   41.00    6.90
  -5  -7   6   17.80    6.60
  -5  -7   6   40.10    9.10
   4   7  -6  -10.40    4.20
   4   7  -6    1.00    4.90
   4   7  -6    5.30    5.80
   4   7  -6    8.10    5.00
   4   7  -6   -5.50    4.70
   4   7  -6    0.50    3.50
  -4  -7   6   -0.40    4.10
  -4  -7   6    5.00    5.90
  -4  -7   6   -9.20    4.70
  -4  -7   6   -6.60    5.00
  -4  -7   6    1.60    5.70
   3   7  -6    3.60    4.80
   3   7  -6   20.30    4.80
   3   7  -6   15.40    4.60
   3   7  -6    1.50    3.90
   3   7  -6    8.30    4.80
  -3  -7   6    2.70    4.20
  -3  -7   6    5.40    5.10
  -3  -7   6   14.40    5.70
  -3  -7   6    6.30    4.40
   2   7  -6  210.78   10.00
   2   7  -6  227.68    9.70
   2   7  -6  199.18    8.90
   2   7  -6  197.08   10.00
   2   7  -6  217.28   11.20
  -2  -7   6  233.78    8.80
  -2  -7   6  197.68   10.80
  -2  -7   6  221.18    9.50
  -2  -7   6  213.58    8.40
   1   7  -6  738.63   17.80
   1   7  -6  755.42   17.70
   1   7  -6  746.33   18.50
   1   7  -6  757.22   18.50
   1   7  -6  746.03   21.60
  -1  -7   6  767.32   18.40
  -1  -7   6  747.23   22.30
  -1  -7   6  759.02   17.30
   0   7  -6    1.20    2.90
   0   7  -6   -0.50    3.40
   0   7  -6    5.90    4.70
   0   7  -6    2.80    3.30
   0  -7   6   -9.70    4.40
  -1   7  -6   86.49    8.40
   1  -7   6   60.19    7.50
  -2   7  -6  140.69   10.30
   2  -7   6  148.19   10.40
  -3   7  -6    7.20    6.10
   3  -7   6   13.20    6.40
   3  -7   6   16.10    6.30
  -4   7  -6   38.70    7.70
   4  -7   6   27.80    8.20
  -5   7  -6   30.80    8.50
   5  -7   6   25.10    8.60
  -6   7  -6  -11.60   11.50
   6  -7   6   -8.80    7.20
   7  -7   6   16.50    9.30
  -9  -6   6    8.50   14.10
   8   6  -6    2.50   12.00
   8   6  -6    2.90   12.00
   8   6  -6   -9.80    9.80
   8   6  -6   -9.50   10.50
  -8  -6   6    9.90    9.60
  -8  -6   6   11.20   10.10
   7   6  -6    0.00    9.30
   7   6  -6   12.90    8.60
   7   6  -6   17.40    8.40
   7   6  -6    0.30    7.80
   7   6  -6   20.00    8.50
   7   6  -6   -1.70    7.60
  -7  -6   6   18.70    9.00
  -7  -6   6   16.10    8.10
  -7  -6   6   19.20    8.10
   6   6  -6   24.00    8.00
   6   6  -6   19.60    7.00
   6   6  -6    6.50    6.40
   6   6  -6   15.90    6.20
   6   6  -6    2.90    6.70
   6   6  -6    6.90    5.70
  -6  -6   6    3.00    5.60
  -6  -6   6   14.50    6.60
  -6  -6   6    8.50    6.40
  -6  -6   6   10.10    7.00
  -6  -6   6    3.20    6.60
   5   6  -6  146.39   10.80
   5   6  -6  144.39   10.10
   5   6  -6  128.59   10.40
   5   6  -6  129.09    9.50
   5   6  -6  144.69    9.00
   5   6  -6  137.49    9.90
  -5  -6   6  154.88   10.30
  -5  -6   6  131.89   10.00
  -5  -6   6  138.59   10.30
  -5  -6   6  143.89    9.80
  -5  -6   6  127.09    9.20
   4   6  -6   17.60    5.10
   4   6  -6   17.20    5.50
   4   6  -6   20.30    4.20
   4   6  -6   19.70    5.10
   4   6  -6   11.00    4.60
   4   6  -6   18.60    5.60
  -4  -6   6   14.90    4.90
  -4  -6   6   16.90    5.10
  -4  -6   6   15.70    5.00
  -4  -6   6    7.20    4.50
   3   6  -6   21.00    5.90
   3   6  -6   32.60    5.20
   3   6  -6   22.00    4.60
   3   6  -6   26.10    5.00
   3   6  -6   22.80    5.40
   3   6  -6   25.20    3.50
  -3  -6   6   35.80    5.70
  -3  -6   6   21.30    4.80
  -3  -6   6   22.90    4.80
   2   6  -6  117.79    6.60
   2   6  -6  118.69    7.00
   2   6  -6  118.59    6.90
   2   6  -6  104.79    8.00
   2   6  -6  112.39    6.50
  -2  -6   6  123.39    6.50
  -2  -6   6  114.89    6.00
  -2  -6   6  109.49    7.90
  -2  -6   6  111.39    7.30
   1   6  -6  344.87   10.30
   1   6  -6  345.97   10.40
   1   6  -6  339.47   12.50
   1   6  -6  334.67    9.90
   1   6  -6  328.07    9.60
  -1  -6   6  338.07   10.60
  -1  -6   6  318.07   13.20
  -1  -6   6  338.07   10.10
  -1  -6   6  345.97    9.40
  -1  -6   6  342.87    9.60
   0   6  -6   47.30    6.00
   0   6  -6   36.60    4.00
   0  -6   6   49.30    7.30
  -1   6  -6   94.29    7.90
   1  -6   6   84.99    7.50
   2  -6   6   33.70    6.50
   2  -6   6   43.30    7.10
  -3   6  -6   10.50    4.80
   3  -6   6   22.20    6.20
   3  -6   6   10.40    5.10
  -4   6  -6   51.99    7.80
   4  -6   6   49.10    8.90
  -5   6  -6    5.80    6.50
   5  -6   6   15.30    7.30
  -6   6  -6   82.39    8.00
   6  -6   6   79.59   11.10
   7  -6   6   57.99   11.90
   9   5  -6   28.00   13.70
  -9  -5   6  -16.20   13.00
  -9  -5   6   -4.30   13.40
   8   5  -6   -7.20   10.30
   8   5  -6   -2.50   11.40
  -8  -5   6   16.10    9.40
   7   5  -6  -10.80    7.80
   7   5  -6    0.30    7.60
   7   5  -6   24.30    8.60
   7   5  -6   24.30    9.10
   7   5  -6   -5.10    7.80
   7   5  -6    0.40    7.90
  -7  -5   6    9.20    7.10
  -7  -5   6  -10.70    7.70
  -7  -5   6    0.90    7.20
   6   5  -6   46.10    7.60
   6   5  -6   65.59    8.60
   6   5  -6   56.79    8.40
   6   5  -6   30.80    6.60
   6   5  -6   28.90    7.00
   6   5  -6   37.20    7.80
  -6  -5   6   22.60    6.60
  -6  -5   6   40.80    7.60
  -6  -5   6   40.50    7.10
  -6  -5   6   36.90    7.00
   5   5  -6    6.80    5.40
   5   5  -6   11.20    4.80
   5   5  -6    1.90    5.00
   5   5  -6    5.90    5.40
   5   5  -6   10.60    5.40
   5   5  -6    5.90    5.00
  -5  -5   6    8.30    4.70
  -5  -5   6    7.30    4.90
  -5  -5   6   11.20    5.10
   4   5  -6   52.09    6.60
   4   5  -6   45.90    6.40
   4   5  -6   55.19    6.10
   4   5  -6   50.59    6.60
  -4  -5   6   46.90    6.10
  -4  -5   6   53.49    6.20
  -4  -5   6   47.80    6.40
   3   5  -6  403.96   13.70
   3   5  -6  386.36   12.00
   3   5  -6  412.86   12.10
   3   5  -6  417.06   11.10
   3   5  -6  408.06   12.20
   3   5  -6  390.06   12.30
  -3  -5   6  406.76   12.10
  -3  -5   6  419.16   12.50
  -3  -5   6  370.26   14.20
   2   5  -6   36.00    3.50
   2   5  -6   32.70    4.40
   2   5  -6   41.90    4.80
   2   5  -6   39.90    5.40
   2   5  -6   35.70    4.50
   2   5  -6   43.10    4.60
  -2  -5   6   42.00    4.40
  -2  -5   6   36.50    4.70
  -2  -5   6   39.50    5.90
  -2  -5   6   38.40    4.30
  -2  -5   6   40.90    5.40
  -2  -5   6   37.10    5.00
   1   5  -6   75.59    6.10
   1   5  -6   79.39    4.90
   1   5  -6   76.49    5.00
   1   5  -6   74.09    4.60
   1   5  -6   76.39    4.60
   1   5  -6   88.39    3.80
  -1  -5   6   76.99    6.40
  -1  -5   6   78.69    5.20
  -1  -5   6   85.39    5.10
  -1  -5   6   72.79    4.40
  -1  -5   6   76.09    4.50
   0   5  -6  219.08    6.90
   0   5  -6  203.28    9.10
   0  -5   6  210.98    9.70
  -1   5  -6  763.82   19.60
   1  -5   6  726.63   20.60
  -2   5  -6  773.22   19.90
   2  -5   6  738.13   20.90
   2  -5   6  714.83   21.00
  -3   5  -6   81.79    7.00
   3  -5   6   79.89    7.90
   3  -5   6   60.79    7.90
  -4   5  -6   18.10    3.10
  -4   5  -6   11.10    4.80
   4  -5   6   14.40    5.50
  -5   5  -6   31.30    4.00
  -6   5  -6   28.70    4.90
   6  -5   6   36.30    9.20
  -7   5  -6   21.00    6.00
   7  -5   6   29.70    9.10
   8  -5   6    8.10    9.60
   9   4  -6   -9.00   14.80
  -9  -4   6  -15.00   12.30
  -9  -4   6  -39.20   19.50
   8   4  -6   21.70   10.10
   8   4  -6   -1.80   10.10
   8   4  -6   25.60   11.40
  -8  -4   6   30.50    9.30
  -8  -4   6    1.50   10.20
  -8  -4   6  -11.50   10.70
   7   4  -6   32.90    8.90
   7   4  -6   25.70    8.20
   7   4  -6   39.20    8.60
   7   4  -6   25.40    9.00
  -7  -4   6   28.30    9.00
  -7  -4   6   36.90    9.50
  -7  -4   6   33.80    7.80
  -7  -4   6   46.20    8.30
  -7  -4   6   32.00    8.30
   6   4  -6    6.60    6.30
   6   4  -6   11.30    6.60
   6   4  -6   -0.90    5.90
   6   4  -6   11.90    5.70
   6   4  -6   22.50    6.80
   6   4  -6    7.60    6.30
  -6  -4   6    9.60    5.50
  -6  -4   6    0.80    5.60
  -6  -4   6    8.10    6.10
  -6  -4   6   12.40    6.90
  -6  -4   6    6.90    5.80
   5   4  -6   -5.70    3.80
   5   4  -6    3.50    4.60
   5   4  -6   -2.20    4.00
   5   4  -6   -2.40    5.20
   5   4  -6    7.00    5.20
   5   4  -6   -2.70    4.70
  -5  -4   6   -1.50    4.10
  -5  -4   6    1.60    4.50
  -5  -4   6    3.20    4.30
   4   4  -6   52.39    5.70
   4   4  -6   51.59    6.20
   4   4  -6   54.19    6.80
   4   4  -6   66.79    6.90
   4   4  -6   48.40    6.60
  -4  -4   6   62.69    6.40
  -4  -4   6   46.90    6.20
  -4  -4   6   64.59    5.90
   3   4  -6  855.41   20.50
   3   4  -6  876.41   19.50
   3   4  -6  892.11   20.10
   3   4  -6  835.82   21.60
   3   4  -6  878.11   20.40
   3   4  -6  846.42   20.10
  -3  -4   6  849.32   20.20
  -3  -4   6  873.71   20.00
  -3  -4   6  851.31   20.10
  -3  -4   6  882.71   20.20
  -3  -4   6  822.22   21.70
   2   4  -6    0.10    2.50
   2   4  -6    0.30    2.30
   2   4  -6    2.50    2.30
   2   4  -6    1.50    2.50
   2   4  -6    0.80    1.90
   2   4  -6    2.30    2.60
  -2  -4   6    2.90    2.70
  -2  -4   6    2.50    2.90
  -2  -4   6   -0.20    2.70
  -2  -4   6    4.40    2.50
   1   4  -6    4.70    2.30
   1   4  -6    7.00    2.80
   1   4  -6    5.40    2.50
   1   4  -6    4.90    1.70
   1   4  -6    5.80    2.30
   1   4  -6    8.10    2.30
  -1  -4   6    7.10    2.30
  -1  -4   6    3.70    2.30
  -1  -4   6    7.50    2.50
  -1  -4   6    7.60    2.30
  -1  -4   6    5.80    2.60
  -1  -4   6    5.20    3.20
  -1  -4   6    9.20    3.70
   0   4  -6  115.39    4.60
   0   4  -6  112.59    4.60
   0   4  -6  117.69    6.10
   0   4  -6  117.39    4.40
   0  -4   6  107.69    6.70
   0  -4   6  113.79    5.00
  -1   4  -6  319.87   10.40
   1  -4   6  298.87   11.30
   1  -4   6  317.47    9.30
  -2   4  -6 1367.46   26.50
  -2   4  -6 1313.07   28.70
   2  -4   6 1243.18   30.10
   2  -4   6 1261.17   30.50
   2  -4   6 1287.17   27.70
  -3   4  -6  242.88    9.50
  -3   4  -6  234.38    7.60
   3  -4   6  232.48   10.80
   3  -4   6  217.28   11.00
  -4   4  -6   36.50    5.20
  -4   4  -6   35.50    4.20
   4  -4   6   38.40    6.80
  -5   4  -6   -0.30    2.70
   5  -4   6   -1.60    5.10
  -6   4  -6   -5.50    3.70
   6  -4   6    0.20    6.00
  -7   4  -6   63.59    7.80
   7  -4   6   61.39   10.50
  -8   4  -6    8.40    6.20
   8  -4   6    3.20    6.60
  -9   4  -6    4.90    9.30
   9  -4   6    4.60    9.10
  10   3  -6    8.40    8.90
  -9  -3   6   10.40   12.80
   8   3  -6   18.10   11.20
   8   3  -6    3.20   10.10
   8   3  -6   11.30    9.40
  -8  -3   6    5.60    9.80
  -8  -3   6  -25.20   10.00
  -8  -3   6   26.20   10.80
   7   3  -6   99.29   13.00
   7   3  -6   67.19    9.20
   7   3  -6   93.49   11.50
   7   3  -6   86.39   11.60
   7   3  -6   73.09    9.20
  -7  -3   6   63.79   10.40
  -7  -3   6   67.59    9.40
  -7  -3   6   85.59   12.10
  -7  -3   6   99.79   12.60
  -7  -3   6   87.99   11.80
   6   3  -6   -0.10    5.70
   6   3  -6   -4.50    5.40
   6   3  -6   -2.70    6.10
   6   3  -6    2.90    5.00
   6   3  -6    7.30    6.10
  -6  -3   6    1.40    5.20
  -6  -3   6   -1.90    5.50
  -6  -3   6    5.70    5.70
  -6  -3   6    0.70    6.00
   5   3  -6   39.60    6.60
   5   3  -6   33.10    6.20
   5   3  -6   37.20    5.80
   5   3  -6   33.40    5.00
  -5  -3   6   30.50    5.60
  -5  -3   6   40.00    6.00
  -5  -3   6   36.50    5.50
   4   3  -6   99.59    6.60
   4   3  -6   83.79    7.50
   4   3  -6   81.39    6.50
   4   3  -6   95.29    6.90
   4   3  -6   97.49    6.80
  -4  -3   6   87.19    6.30
  -4  -3   6   86.89    6.60
  -4  -3   6   87.39    6.90
   3   3  -6  118.59    6.20
   3   3  -6  112.89    6.20
   3   3  -6  118.49    7.00
   3   3  -6  113.99    6.20
   3   3  -6  123.89    6.30
   3   3  -6  114.29    6.50
  -3  -3   6  106.89    6.20
  -3  -3   6  114.59    6.40
  -3  -3   6  107.89    6.40
  -3  -3   6  117.59    4.50
  -3  -3   6  113.49    7.20
  -3  -3   6  109.69    6.50
   2   3  -6    5.20    2.50
   2   3  -6    4.30    2.40
   2   3  -6    5.10    2.40
   2   3  -6    4.80    2.40
   2   3  -6    3.70    2.20
   2   3  -6    2.50    2.00
  -2  -3   6    2.50    2.60
  -2  -3   6   -1.80    2.10
  -2  -3   6    4.50    2.30
  -2  -3   6    5.60    3.00
  -2  -3   6    2.60    2.60
  -2  -3   6    3.80    2.40
  -2  -3   6    2.90    2.50
   1   3  -6 1097.39   23.00
   1   3  -6 1144.29   22.90
   1   3  -6 1103.59   23.10
   1   3  -6 1116.19   22.90
   1   3  -6 1135.19   24.80
  -1  -3   6 1113.79   22.90
  -1  -3   6 1109.19   25.00
  -1  -3   6 1128.69   22.40
  -1  -3   6 1132.49   22.90
  -1  -3   6 1123.49   22.80
  -1  -3   6 1100.79   22.90
  -1  -3   6 1107.49   25.70
   0   3  -6   13.60    2.10
   0   3  -6   14.20    2.10
   0   3  -6   11.70    2.70
   0   3  -6   10.90    2.10
   0  -3   6    9.60    3.10
   0  -3   6   11.30    2.90
   0  -3   6   10.60    2.60
  -1   3  -6   24.10    3.40
   1  -3   6   26.30    4.30
   1  -3   6   24.90    3.20
  -2   3  -6  134.79    5.70
  -2   3  -6  143.29    6.30
   2  -3   6  131.49    6.00
   2  -3   6  119.89    6.90
   2  -3   6  136.89    7.40
  -3   3  -6   95.39    5.90
  -3   3  -6   94.09    5.40
   3  -3   6  103.09    7.20
   3  -3   6  100.29    6.10
   3  -3   6   88.19    7.40
  -4   3  -6 1042.10   22.60
  -4   3  -6 1028.90   23.40
   4  -3   6  992.80   26.50
   4  -3   6  983.30   23.70
  -5   3  -6   16.50    3.20
   5  -3   6   12.40    6.00
  -6   3  -6    6.70    3.60
   6  -3   6   10.30    5.40
  -7   3  -6   -1.80    4.30
   7  -3   6    0.30    6.40
  -8   3  -6    6.10    5.30
   8  -3   6    0.20    6.80
  -9   3  -6   33.40    8.20
   9  -3   6   31.10   10.80
  10  -3   6   18.10   10.50
   9   2  -6  -10.20   15.80
   9   2  -6    6.40    7.70
  -9  -2   6   24.60   13.80
   8   2  -6    0.80   10.70
   8   2  -6    5.20   11.30
   8   2  -6   -4.30   10.10
  -8  -2   6    6.80    9.70
  -8  -2   6    3.80   10.10
  -8  -2   6   -4.20    9.30
   7   2  -6   30.40    8.10
   7   2  -6   22.70    9.20
   7   2  -6   22.20    9.30
   7   2  -6   28.50    8.40
   7   2  -6   32.40    9.30
  -7  -2   6   20.90   13.50
  -7  -2   6   28.30    8.10
  -7  -2   6   22.90    8.50
  -7  -2   6   14.00    7.30
  -7  -2   6   21.90    8.60
   6   2  -6    8.00    5.80
   6   2  -6    0.20    5.60
   6   2  -6    4.70    6.10
   6   2  -6    2.90    6.10
   6   2  -6   -2.30    6.50
  -6  -2   6   -0.10    5.80
  -6  -2   6    1.50    6.20
  -6  -2   6    8.30    5.70
  -6  -2   6    8.70    5.80
  -6  -2   6    1.60    5.60
   5   2  -6  104.39    9.80
   5   2  -6  113.59    8.60
   5   2  -6  102.79    8.00
   5   2  -6  113.29    8.70
   5   2  -6   97.49   11.50
   5   2  -6   94.39    7.90
  -5  -2   6  110.69    8.40
  -5  -2   6   96.69    8.10
  -5  -2   6  107.99    8.40
  -5  -2   6   93.39    8.30
   4   2  -6    5.60    3.50
   4   2  -6    2.00    3.50
   4   2  -6   -2.70    3.20
   4   2  -6    3.50    4.40
   4   2  -6   -2.70    3.30
   4   2  -6   -1.00    3.60
  -4  -2   6   -4.50    6.00
  -4  -2   6   -2.20    3.50
  -4  -2   6    1.80    3.30
  -4  -2   6    0.00    3.60
  -4  -2   6    7.00    3.50
   3   2  -6  180.58    8.00
   3   2  -6  176.18    7.30
   3   2  -6  163.28    7.60
   3   2  -6  178.08    7.30
   3   2  -6  187.28    7.30
   3   2  -6  166.98    8.10
  -3  -2   6  173.18    7.60
  -3  -2   6  163.18    8.40
  -3  -2   6  165.28    7.40
  -3  -2   6  166.58    7.50
   2   2  -6  204.18    7.60
   2   2  -6  204.28    8.30
   2   2  -6  213.18    7.20
   2   2  -6  204.78    7.20
   2   2  -6  213.38    7.30
   2   2  -6  206.28    7.80
  -2  -2   6  207.48    7.50
  -2  -2   6  209.48    8.00
  -2  -2   6  199.88    7.30
  -2  -2   6  199.58    7.20
  -2  -2   6  212.68    7.50
  -2  -2   6  213.38    8.30
   1   2  -6 1594.74   31.40
   1   2  -6 1555.04   32.80
   1   2  -6 1566.44   31.40
   1   2  -6 1577.14   32.00
   1   2  -6 1559.14   31.70
  -1  -2   6 1640.44   31.40
  -1  -2   6 1615.14   31.50
  -1  -2   6 1604.94   31.80
  -1  -2   6 1600.04   33.70
  -1  -2   6 1637.64   31.00
  -1  -2   6 1608.74   33.00
   0   2  -6    3.10    1.60
   0   2  -6    3.70    1.50
   0   2  -6    3.60    1.80
   0   2  -6    6.60    1.80
   0   2  -6    3.80    1.90
   0  -2   6    5.60    1.70
   0  -2   6    1.40    2.30
   0  -2   6    4.70    2.00
   0  -2   6    6.20    1.80
   0  -2   6    6.10    2.20
   0  -2   6    5.80    1.60
  -1   2  -6 1422.26   28.60
   1  -2   6 1365.36   30.50
   1  -2   6 1407.36   28.30
   1  -2   6 1426.56   29.10
  -2   2  -6  782.42   17.20
   2  -2   6  750.62   17.40
   2  -2   6  762.12   19.40
   2  -2   6  764.62   18.90
  -3   2  -6    2.10    2.10
  -3   2  -6    1.10    1.90
   3  -2   6    5.80    4.00
   3  -2   6    0.20    2.40
   3  -2   6    2.50    2.70
  -4   2  -6 3644.04   67.69
  -4   2  -6 3662.03   68.19
   4  -2   6 3491.15   68.69
   4  -2   6 3459.65   70.89
  -5   2  -6  612.04   15.90
   5  -2   6  580.34   18.80
   5  -2   6  598.94   16.60
  -6   2  -6  225.78    9.40
   6  -2   6  219.78   12.30
  -7   2  -6    8.30    4.30
   7  -2   6   -6.70    5.60
  -8   2  -6   10.80    7.30
  -8   2  -6    3.90    4.90
   8  -2   6    5.80    7.40
  -9   2  -6   24.00   10.30
  -9   2  -6   27.40    7.10
   9  -2   6   36.90   10.10
  10  -2   6   39.10   11.90
   9   1  -6   24.40    9.50
  -9  -1   6    7.50   15.60
   8   1  -6   15.50   11.60
   8   1  -6    1.50    6.50
   8   1  -6   -3.50   12.30
  -8  -1   6   -6.50   10.00
  -8  -1   6    5.90   10.20
  -8  -1   6   21.00   11.10
   7   1  -6    0.60    9.60
   7   1  -6   11.70    8.80
   7   1  -6   14.10    9.40
   7   1  -6   -6.10    8.00
  -7  -1   6   19.60    8.20
  -7  -1   6   17.90    8.30
  -7  -1   6   12.10    8.20
  -7  -1   6    3.30    7.50
   6   1  -6   30.00    6.70
   6   1  -6   32.30    6.80
   6   1  -6   20.00    6.80
   6   1  -6   26.00    7.90
   6   1  -6   27.40    7.20
  -6  -1   6   17.40    6.00
  -6  -1   6   32.80    7.60
  -6  -1   6   18.00    6.00
  -6  -1   6   22.00    6.90
  -6  -1   6   17.80    6.60
   5   1  -6  112.39    8.40
   5   1  -6  113.99    8.50
   5   1  -6   89.99    8.00
   5   1  -6  124.49    9.30
   5   1  -6   87.09   12.00
  -5  -1   6  107.09    9.10
  -5  -1   6  117.99    9.00
  -5  -1   6  126.59    8.80
  -5  -1   6  120.99    9.20
   4   1  -6  110.19    8.30
   4   1  -6  113.29    8.80
   4   1  -6  113.19    8.70
   4   1  -6  103.89    7.50
   4   1  -6  111.39    7.00
   4   1  -6  107.59    7.20
  -4  -1   6  110.59    7.80
  -4  -1   6  108.49    7.40
  -4  -1   6  114.09    7.50
  -4  -1   6  111.49    7.50
  -4  -1   6  123.29    8.40
   3   1  -6    1.50    2.70
   3   1  -6   -1.70    2.50
   3   1  -6    5.70    3.10
   3   1  -6    0.80    3.30
   3   1  -6    2.00    3.10
  -3  -1   6    3.50    2.60
  -3  -1   6    4.80    3.10
  -3  -1   6    2.20    2.30
  -3  -1   6    3.00    3.20
  -3  -1   6    6.30    3.00
   2   1  -6   48.50    4.90
   2   1  -6   54.99    4.60
   2   1  -6   52.49    4.80
   2   1  -6   51.39    4.30
   2   1  -6   51.89    4.10
   2   1  -6   50.69    4.20
  -2  -1   6   52.89    4.80
  -2  -1   6   58.29    4.70
  -2  -1   6   49.70    4.50
  -2  -1   6   48.60    4.40
  -2  -1   6   51.19    4.60
  -2  -1   6   48.40    4.00
   1   1  -6  445.66   11.10
   1   1  -6  435.06   11.00
   1   1  -6  429.16   12.00
   1   1  -6  447.26   11.80
   1   1  -6  426.56   11.40
  -1  -1   6  434.36   12.00
  -1  -1   6  451.45   11.50
  -1  -1   6  450.25   11.10
  -1  -1   6  445.26   11.30
  -1  -1   6  436.96   11.50
  -1  -1   6  441.66   11.90
   0   1  -6 2798.62   53.09
   0   1  -6 2839.72   52.59
   0   1  -6 2755.52   51.89
   0   1  -6 2685.93   51.79
   0   1  -6 2803.62   52.39
   0  -1   6 2826.12   52.19
   0  -1   6 2648.73   54.09
   0  -1   6 2775.32   51.69
   0  -1   6 2779.42   51.89
   0  -1   6 2836.72   52.29
   0  -1   6 2785.52   52.39
   0  -1   6 2837.52   53.09
  -1   1  -6    9.90    2.00
  -1   1  -6    9.50    2.00
  -1   1  -6    8.10    1.60
  -1   1  -6    7.40    1.50
  -1   1  -6   10.90    1.80
   1  -1   6    7.50    1.70
   1  -1   6    7.70    2.00
   1  -1   6    5.30    2.30
  -2   1  -6  456.55   10.70
   2  -1   6  467.75   12.40
   2  -1   6  459.05   11.60
   2  -1   6  441.16   13.10
  -3   1  -6   25.70    3.50
  -3   1  -6   23.30    2.50
   3  -1   6   25.90    4.30
   3  -1   6   30.60    4.30
   3  -1   6   26.70    3.50
  -4   1  -6  551.14   14.60
  -4   1  -6  559.34   12.90
   4  -1   6  540.75   16.00
   4  -1   6  552.84   14.60
  -5   1  -6  571.44   15.50
   5  -1   6  582.24   15.90
   5  -1   6  589.34   17.80
  -6   1  -6  185.18    8.70
   6  -1   6  160.28   10.50
   6  -1   6  160.68    8.40
  -7   1  -6   12.20    4.50
   7  -1   6    8.10    5.70
  -8   1  -6    0.90    4.80
   8  -1   6    8.00    6.30
  -9   1  -6    3.10    5.80
  -9   1  -6    4.70    5.80
  -9   1  -6    1.00    7.10
   9  -1   6    6.30    7.60
  10  -1   6   -4.00    7.20
   9   0  -6   32.60   11.60
   8   0  -6   29.70   14.20
   8   0  -6   11.10   13.20
   8   0  -6   12.30    9.40
  -8   0   6   17.00   14.60
  -8   0   6   -3.00   11.60
  -8   0   6   29.50   11.60
   7   0  -6   29.40   10.80
   7   0  -6    6.20    8.60
   7   0  -6   50.69   22.60
   7   0  -6    6.50    7.00
  -7   0   6    7.60    9.30
  -7   0   6   15.20    9.60
  -7   0   6   16.10    9.30
  -7   0   6    1.60    8.50
   6   0  -6   47.10    8.50
   6   0  -6   45.80    7.80
   6   0  -6   58.09    7.80
   6   0  -6   28.50    8.00
   6   0  -6   38.30    6.80
   6   0  -6   51.49    7.50
  -6   0   6   42.30    8.50
  -6   0   6   48.80    7.90
  -6   0   6   55.39    8.90
  -6   0   6   41.70    7.90
  -6   0   6   41.90    8.70
   5   0  -6   27.90    6.70
   5   0  -6   29.70    6.50
   5   0  -6   28.80    7.00
   5   0  -6   34.60    6.00
  -5   0   6   33.30    6.00
  -5   0   6   41.90    6.60
  -5   0   6   26.30    5.70
   4   0  -6   65.59    6.50
   4   0  -6   78.69    7.50
   4   0  -6   72.49    7.90
   4   0  -6   69.49    6.90
  -4   0   6   81.89    7.20
  -4   0   6   78.99    7.40
  -4   0   6   70.09    7.20
  -4   0   6   70.29    9.90
  -4   0   6   60.49    8.10
   3   0  -6  178.88    7.80
   3   0  -6  166.08    8.40
   3   0  -6  160.08    8.10
   3   0  -6  174.38    7.90
   3   0  -6  175.88    7.70
  -3   0   6  155.98    8.00
  -3   0   6  169.48    8.20
  -3   0   6  167.18    8.10
  -3   0   6  169.48    8.20
  -3   0   6  157.78    6.40
  -3   0   6  168.38    8.80
   2   0  -6    3.80    2.70
   2   0  -6    1.30    2.40
   2   0  -6    4.30    2.80
   2   0  -6    5.60    2.30
   2   0  -6    2.50    2.70
   2   0  -6   -0.10    2.40
  -2   0   6    4.20    2.80
  -2   0   6    3.30    2.90
  -2   0   6    4.40    2.70
  -2   0   6    5.50    2.70
  -2   0   6    2.60    2.30
  -2   0   6    5.20    2.80
   1   0  -6  428.36   12.00
   1   0  -6  423.16   11.70
   1   0  -6  422.56   11.20
   1   0  -6  440.46   11.20
   1   0  -6  418.76   12.10
  -1   0   6  445.46   11.60
  -1   0   6  429.46   11.30
  -1   0   6  435.76   11.70
  -1   0   6  415.06   11.60
  -1   0   6  433.26   11.40
  -1   0   6  438.56   11.80
   0   0  -6 1522.05   31.30
   0   0  -6 1573.04   31.30
   0   0  -6 1538.05   30.70
   0   0  -6 1574.74   30.90
   0   0  -6 1545.35   31.50
   0   0   6 1566.14   30.70
   0   0   6 1541.35   31.00
   0   0   6 1560.14   32.00
   0   0   6 1583.14   31.40
  -1   0  -6 2402.76   45.10
  -1   0  -6 2446.56   45.80
  -1   0  -6 2371.36   45.10
  -1   0  -6 2440.06   45.60
  -1   0  -6 2375.36   45.30
   1   0   6 2417.96   45.50
   1   0   6 2375.26   45.30
   1   0   6 2414.16   45.80
   1   0   6 2424.06   45.30
   1   0   6 2336.87   47.20
   1   0   6 2379.96   45.20
  -2   0  -6  266.57    6.70
  -2   0  -6  269.77    7.00
  -2   0  -6  261.07    6.80
  -2   0  -6  262.27    7.00
  -2   0  -6  263.77    6.90
   2   0   6  270.17    7.00
   2   0   6  259.37    9.00
   2   0   6  269.87    6.90
   2   0   6  267.77    7.90
   2   0   6  267.17    8.10
   3   0   6 1841.32   37.50
   3   0   6 1943.51   38.30
  -4   0  -6  180.38    7.40
   4   0   6  180.88    7.20
   4   0   6  169.38    7.80
  -5   0  -6  892.01   21.20
   5   0   6  842.72   22.10
   5   0   6  857.21   20.70
  -6   0  -6 1007.70   23.60
   6   0   6  948.61   25.40
   6   0   6  932.11   23.10
  -7   0  -6  663.93   15.50
  -7   0  -6  652.43   15.70
  -7   0  -6  648.54   15.00
  -7   0  -6  632.14   19.20
   7   0   6  629.44   20.80
   7   0   6  627.94   18.20
  -8   0  -6   87.09    6.70
  -8   0  -6   73.29    6.30
  -8   0  -6   72.29    7.30
  -8   0  -6   74.09    8.20
   8   0   6   69.19    9.60
  -9   0  -6   11.60    5.60
  -9   0  -6   -2.60    5.20
  -9   0  -6   -3.50    6.50
  -9   0  -6    3.60    5.20
  -9   0  -6    5.00    5.30
  -9   0  -6   -1.60    5.30
   9   0   6   -6.60    6.40
 -10   0  -6   -0.70    7.30
 -10   0  -6  -10.60    7.30
  10   0   6    4.90    7.50
  11   0   6    5.40    8.70
   9  -1  -6   20.20   13.30
   8  -1  -6  -10.60   15.50
   8  -1  -6    8.70   10.00
  -8   1   6    9.00   12.60
   7  -1  -6  179.08   21.70
   7  -1  -6  124.59   13.20
  -7   1   6   99.59   12.10
  -7   1   6  113.59   14.70
  -7   1   6   86.99   12.50
   6  -1  -6   71.89    9.70
   6  -1  -6   63.99    9.10
   6  -1  -6   71.99   10.50
   6  -1  -6   70.69   10.20
   6  -1  -6   95.69   11.90
   6  -1  -6   70.59    9.10
  -6   1   6   64.59    8.80
  -6   1   6   68.79   10.10
  -6   1   6   80.89   10.70
  -6   1   6   76.99    9.60
  -6   1   6   73.89    9.20
   5  -1  -6   14.10    6.40
   5  -1  -6   -7.10    5.30
   5  -1  -6    2.10    5.20
   5  -1  -6    1.50    5.00
   5  -1  -6   -4.80    6.40
   5  -1  -6    0.40    5.40
  -5   1   6    1.60    5.40
  -5   1   6  -10.30    5.60
  -5   1   6   -2.80    5.40
  -5   1   6    2.00    5.70
  -5   1   6    1.20    5.60
   4  -1  -6   59.09    7.90
   4  -1  -6   65.19    7.30
   4  -1  -6   47.80    6.80
   4  -1  -6   46.40    5.90
   4  -1  -6   54.69    7.50
  -4   1   6   50.39   10.20
  -4   1   6   59.69    7.10
  -4   1   6   59.39    7.40
  -4   1   6   55.49    7.20
   3  -1  -6   13.90    4.60
   3  -1  -6   19.20    4.40
   3  -1  -6   21.20    4.60
   3  -1  -6   19.50    3.90
   3  -1  -6   13.90    3.70
   3  -1  -6   16.00    3.60
  -3   1   6   12.60    4.30
  -3   1   6   16.00    4.40
  -3   1   6   18.00    4.10
  -3   1   6   20.60    4.60
  -3   1   6   17.70    4.40
  -3   1   6   15.60    2.90
   2  -1  -6   83.89    5.40
   2  -1  -6   86.19    5.60
   2  -1  -6   84.19    6.10
   2  -1  -6   90.79    5.70
   2  -1  -6   86.79    6.40
  -2   1   6   82.99    6.30
  -2   1   6   81.79    6.10
  -2   1   6   84.19    6.00
  -2   1   6   92.29    6.10
  -2   1   6   83.19    4.30
  -2   1   6   88.49    6.10
   1  -1  -6   37.40    3.90
   1  -1  -6   44.40    4.70
   1  -1  -6   42.80    4.00
   1  -1  -6   36.80    4.40
  -1   1   6   38.70    3.30
  -1   1   6   29.60    3.90
  -1   1   6   38.80    4.30
  -1   1   6   41.30    4.30
  -1   1   6   36.30    4.10
   0  -1  -6  398.16   10.80
   0  -1  -6  399.06   11.20
   0  -1  -6  410.96   11.50
   0  -1  -6  411.66   10.80
   0   1   6  410.76   11.30
   0   1   6  394.66   11.00
   0   1   6  408.76   10.90
   0   1   6  405.56   11.10
   0   1   6  399.46   10.60
   0   1   6  396.56   10.60
  -1  -1  -6    2.60    2.00
  -1  -1  -6    3.90    1.80
  -1  -1  -6    3.00    2.00
  -1  -1  -6    3.20    1.80
   1   1   6    2.90    2.00
   1   1   6   -0.80    1.40
   1   1   6    0.20    1.60
   1   1   6    2.20    1.80
   1   1   6    1.60    1.80
   1   1   6    4.70    2.00
  -2  -1  -6 1302.27   26.30
  -2  -1  -6 1289.97   26.40
  -2  -1  -6 1298.37   26.30
  -2  -1  -6 1291.07   26.20
   2   1   6 1297.97   26.10
   2   1   6 1353.56   25.60
   2   1   6 1301.37   26.00
   2   1   6 1295.87   26.30
   2   1   6 1301.67   26.70
   2   1   6 1309.67   26.30
  -3  -1  -6   35.70    3.10
  -3  -1  -6   36.80    3.10
  -3  -1  -6   40.90    3.20
  -3  -1  -6   31.80    2.90
   3   1   6   36.00    3.30
   3   1   6   40.30    2.90
   3   1   6   40.80    3.50
   3   1   6   35.30    3.90
   3   1   6   38.70    3.10
  -4  -1  -6    1.60    1.80
  -4  -1  -6    1.70    2.20
  -4  -1  -6   -3.70    1.70
  -4  -1  -6    2.10    1.80
  -4  -1  -6    1.50    1.80
   4   1   6    2.50    1.90
   4   1   6    3.10    2.90
   4   1   6   -2.00    2.00
   4   1   6    3.00    2.60
  -5  -1  -6   46.40    3.50
  -5  -1  -6   50.89    3.80
  -5  -1  -6   54.59    5.20
  -5  -1  -6   49.50    3.80
  -5  -1  -6   54.29    3.60
   5   1   6   48.70    5.70
   5   1   6   48.10    4.30
   5   1   6   48.70    4.70
  -6  -1  -6   33.60    3.80
  -6  -1  -6   38.80    3.80
  -6  -1  -6   30.30    4.70
  -6  -1  -6   33.30    4.00
  -6  -1  -6   33.80    4.10
   6   1   6   36.80    4.80
   6   1   6   41.10    6.30
   6   1   6   37.30    5.00
   6   1   6   32.80    4.00
  -7  -1  -6  115.59    6.70
  -7  -1  -6  110.49    6.20
  -7  -1  -6  111.89    6.40
  -7  -1  -6  112.49    6.60
   7   1   6  114.69    7.40
   7   1   6  136.79    9.40
   7   1   6  120.89    7.50
   7   1   6  127.79    6.80
  -8  -1  -6   11.30    4.10
  -8  -1  -6    4.50    4.30
  -8  -1  -6    7.80    4.30
  -8  -1  -6    9.20    4.90
  -8  -1  -6    7.80    4.10
   8   1   6   12.90    6.50
   8   1   6    6.40    4.60
   8   1   6    8.30    4.30
   8   1   6   -4.70    4.50
  -9  -1  -6   19.10    5.60
  -9  -1  -6    9.80    5.50
  -9  -1  -6   14.90    5.50
  -9  -1  -6   16.60    6.20
  -9  -1  -6   21.20    6.80
   9   1   6   18.50    6.20
   9   1   6   11.70    6.90
   9   1   6   17.90    6.80
 -10  -1  -6  -13.60    6.50
 -10  -1  -6   -3.20    7.30
 -10  -1  -6   -7.70    6.80
  10   1   6  -10.00    7.20
  11   1   6   -0.60    8.10
   8  -2  -6   -9.70   21.90
   8  -2  -6  -13.90   11.80
   7  -2  -6   50.49   24.90
   7  -2  -6   61.59   15.00
   7  -2  -6   80.39   14.10
  -7   2   6   53.19   12.00
  -7   2   6   73.19   12.60
  -7   2   6   70.09   12.50
   6  -2  -6   69.19   10.70
   6  -2  -6   69.09   11.40
   6  -2  -6   64.39    9.70
   6  -2  -6   63.69    9.60
  -6   2   6   42.40    9.60
  -6   2   6   64.19    9.50
  -6   2   6   64.29   10.10
  -6   2   6   54.29    9.70
   5  -2  -6  125.99   11.80
   5  -2  -6   96.19   12.60
   5  -2  -6  103.09    9.90
   5  -2  -6   95.69   10.30
   5  -2  -6  111.19    9.50
   5  -2  -6   99.99    9.90
  -5   2   6   92.99   10.90
  -5   2   6   80.09   11.20
  -5   2   6   88.69   11.50
  -5   2   6   90.49   11.10
  -5   2   6  108.59   11.20
   4  -2  -6   51.59    7.00
   4  -2  -6   59.09    7.60
   4  -2  -6   33.00    5.60
   4  -2  -6   51.49    7.90
   4  -2  -6   50.69    6.70
   4  -2  -6   52.39    7.40
  -4   2   6   46.90    7.20
  -4   2   6   34.20    6.80
  -4   2   6   47.10    6.60
  -4   2   6   52.39    6.70
   3  -2  -6   22.40    5.30
   3  -2  -6   18.70    4.30
   3  -2  -6   18.90    4.90
   3  -2  -6   22.60    4.50
   3  -2  -6   22.00    5.60
   3  -2  -6   20.70    4.60
  -3   2   6   23.30    5.30
  -3   2   6   18.50    4.90
  -3   2   6   19.90    4.90
  -3   2   6   22.90    4.90
  -3   2   6   24.80    5.00
   2  -2  -6  137.99    7.30
   2  -2  -6  147.49    6.20
   2  -2  -6  138.99    7.00
   2  -2  -6  149.79    7.60
   2  -2  -6  147.49    8.00
   2  -2  -6  145.69    8.10
  -2   2   6  142.79    8.00
  -2   2   6  132.39    8.10
  -2   2   6  148.59    8.00
   1  -2  -6   37.70    5.10
   1  -2  -6   30.30    4.40
   1  -2  -6   24.20    4.20
   1  -2  -6   28.30    4.00
  -1   2   6   33.20    4.70
  -1   2   6   30.60    4.70
  -1   2   6   28.00    4.10
  -1   2   6   31.30    4.50
  -1   2   6   29.80    4.30
   0  -2  -6   15.20    3.50
   0  -2  -6   16.10    3.10
   0  -2  -6   16.80    3.10
   0  -2  -6   16.00    3.00
   0  -2  -6   16.20    3.40
   0   2   6   14.90    2.70
   0   2   6   15.60    3.30
   0   2   6   19.50    3.30
   0   2   6   20.10    3.70
   0   2   6   16.80    3.40
  -1  -2  -6  507.95   13.70
  -1  -2  -6  521.55   13.30
  -1  -2  -6  524.95   13.30
  -1  -2  -6  524.35   13.60
   1   2   6  504.15   13.30
   1   2   6  523.55   13.20
   1   2   6  538.05   13.70
   1   2   6  521.55   13.60
   1   2   6  542.65   12.40
  -2  -2  -6  273.27    8.60
  -2  -2  -6  260.57    8.40
  -2  -2  -6  276.67    8.40
  -2  -2  -6  281.77    8.50
   2   2   6  277.27    8.60
   2   2   6  276.17    8.50
   2   2   6  281.67    8.40
   2   2   6  276.07    6.70
  -3  -2  -6   94.69    4.70
  -3  -2  -6   88.59    4.70
  -3  -2  -6   91.09    4.80
  -3  -2  -6   89.79    4.90
   3   2   6   91.69    4.90
   3   2   6   83.39    4.60
   3   2   6   77.69    4.90
   3   2   6   99.69    4.80
  -4  -2  -6    1.80    1.90
  -4  -2  -6   -2.10    2.00
  -4  -2  -6    0.00    1.90
  -4  -2  -6    1.50    2.20
  -4  -2  -6   -1.70    2.20
   4   2   6    0.20    2.20
   4   2   6   -1.50    1.80
   4   2   6    3.40    2.10
   4   2   6    0.70    2.50
   4   2   6    2.40    2.80
   4   2   6   -1.40    2.30
  -5  -2  -6  313.47    8.90
  -5  -2  -6  302.87    9.20
  -5  -2  -6  309.77    9.00
  -5  -2  -6  311.47    9.40
  -5  -2  -6  315.17   10.90
   5   2   6  322.97   10.70
   5   2   6  310.77    8.90
   5   2   6  302.97   10.50
   5   2   6  320.77    8.70
   5   2   6  300.27    9.80
   5   2   6  315.97    9.70
  -6  -2  -6  141.29    6.20
  -6  -2  -6  136.39    6.30
  -6  -2  -6  134.49    6.00
  -6  -2  -6  135.29    7.90
   6   2   6  130.19    8.10
   6   2   6  143.29    5.90
   6   2   6  131.39    8.00
   6   2   6  139.59    6.10
   6   2   6  138.29    6.60
   6   2   6  135.79    7.00
  -7  -2  -6   75.29    7.20
  -7  -2  -6   73.39    9.20
  -7  -2  -6   81.99    5.90
  -7  -2  -6   76.39   11.50
  -7  -2  -6   93.09    6.40
   7   2   6   91.89    5.70
   7   2   6   96.99    6.60
   7   2   6   90.19    7.80
   7   2   6   85.69    6.00
   7   2   6   94.09    7.30
  -8  -2  -6  145.69    8.10
  -8  -2  -6  164.28    8.80
  -8  -2  -6  149.19    8.60
  -8  -2  -6  167.18   10.20
  -8  -2  -6  156.48    8.60
   8   2   6  172.58    8.60
   8   2   6  163.28    8.30
   8   2   6  175.18   11.30
   8   2   6  158.18    9.20
   8   2   6  158.78    8.90
  -9  -2  -6  148.29   11.00
  -9  -2  -6  114.99    8.70
  -9  -2  -6  120.69    9.60
  -9  -2  -6  127.69    9.70
  -9  -2  -6  120.59    9.20
   9   2   6  138.79   11.10
   9   2   6  132.89    9.60
   9   2   6  146.99    9.90
   9   2   6  129.69    9.60
   9   2   6  111.39   10.60
 -10  -2  -6   -0.50    6.60
 -10  -2  -6   -5.50    6.80
 -10  -2  -6   -1.00    7.10
  10   2   6   -4.90    6.60
 -11  -2  -6   21.80   14.60
  11   2   6    2.30    8.40
   8  -3  -6   -0.20   13.40
   7  -3  -6   10.30   14.70
   7  -3  -6    5.10   10.90
  -7   3   6  -17.70   12.40
   6  -3  -6   32.70    9.30
   6  -3  -6   32.30   12.10
   6  -3  -6   13.50   11.20
  -6   3   6   10.70   10.10
  -6   3   6   15.70    9.20
  -6   3   6   14.20   10.50
  -6   3   6   35.00   10.50
   5  -3  -6   97.19   11.60
   5  -3  -6   91.89   11.30
   5  -3  -6  105.39   12.30
   5  -3  -6  103.29   10.10
   5  -3  -6   80.39   11.30
   5  -3  -6  110.39   13.50
  -5   3   6  101.89   11.80
  -5   3   6   80.39   11.00
  -5   3   6  105.39   12.10
  -5   3   6  108.09   12.40
  -5   3   6   95.09   12.60
   4  -3  -6    4.80    7.10
   4  -3  -6    1.60    4.60
   4  -3  -6   11.90    5.70
   4  -3  -6   -0.80    5.10
   4  -3  -6    8.60    7.00
   4  -3  -6   -3.10    5.50
  -4   3   6    1.70    5.80
  -4   3   6    5.10    6.60
  -4   3   6   12.90    6.00
  -4   3   6    1.10    6.00
  -4   3   6    2.80    5.80
   3  -3  -6   15.00    5.70
   3  -3  -6   24.90    6.00
   3  -3  -6   24.20    4.90
   3  -3  -6   19.10    5.20
   3  -3  -6   14.90    4.90
  -3   3   6   18.90    5.20
  -3   3   6   20.00    6.10
   2  -3  -6   46.50    5.50
   2  -3  -6   64.09    6.70
   2  -3  -6   51.09    7.20
   2  -3  -6   50.99    6.40
   2  -3  -6   55.39    5.60
   2  -3  -6   54.89    6.90
  -2   3   6   64.29    6.70
  -2   3   6   53.49    7.00
  -2   3   6   60.99    6.70
  -2   3   6   64.29    7.30
  -2   3   6   47.70    6.60
   1  -3  -6   32.10    4.80
   1  -3  -6   30.80    5.00
   1  -3  -6   24.70    4.80
   1  -3  -6   27.40    4.20
  -1   3   6   22.90    4.60
  -1   3   6   33.10    5.10
  -1   3   6   21.30    4.30
  -1   3   6   33.40    5.10
   0  -3  -6    4.00    2.90
   0  -3  -6    8.70    2.70
   0  -3  -6    8.50    3.10
   0  -3  -6    8.50    3.30
   0   3   6    7.40    3.10
   0   3   6    9.50    2.90
   0   3   6    3.90    3.30
   0   3   6    6.60    3.10
   0   3   6    8.70    3.20
  -1  -3  -6   27.30    3.90
  -1  -3  -6   13.70    3.30
  -1  -3  -6   13.30    3.10
  -1  -3  -6   16.80    3.50
  -1  -3  -6   13.00    3.20
   1   3   6   18.90    3.00
   1   3   6   19.60    3.70
   1   3   6   15.50    3.20
   1   3   6   21.40    3.70
   1   3   6   18.50    3.30
  -2  -3  -6   52.79    4.30
  -2  -3  -6   55.99    4.50
  -2  -3  -6   58.89    4.70
  -2  -3  -6   56.89    4.80
   2   3   6   60.19    5.10
   2   3   6   58.69    4.80
   2   3   6   57.79    3.50
   2   3   6   55.89    4.70
   2   3   6   50.19    4.50
  -3  -3  -6  143.89    6.30
  -3  -3  -6  136.79    6.40
  -3  -3  -6  142.99    6.20
  -3  -3  -6  135.79    6.20
   3   3   6  143.49    6.80
   3   3   6  148.99    6.40
   3   3   6  128.79    6.00
   3   3   6  150.28    6.60
  -4  -3  -6   38.40    4.20
  -4  -3  -6   32.90    4.80
  -4  -3  -6   41.70    4.40
  -4  -3  -6   47.50    4.40
  -4  -3  -6   42.00    4.20
   4   3   6   40.10    5.10
   4   3   6   44.40    3.90
   4   3   6   48.70    4.30
   4   3   6   38.90    4.80
   4   3   6   49.80    4.20
  -5  -3  -6  282.57    9.40
  -5  -3  -6  283.77    9.10
  -5  -3  -6  281.07    9.00
  -5  -3  -6  293.57    9.50
  -5  -3  -6  279.87   10.40
   5   3   6  273.97    8.90
   5   3   6  282.27   10.10
   5   3   6  286.67   10.00
   5   3   6  271.77    9.30
   5   3   6  289.47    9.60
  -6  -3  -6   71.59    5.60
  -6  -3  -6   82.49    5.60
  -6  -3  -6   79.39    5.70
  -6  -3  -6   60.09    6.40
  -6  -3  -6   72.29    5.50
   6   3   6   73.79    5.60
   6   3   6   82.49    6.50
   6   3   6   75.59    5.50
   6   3   6   87.39    5.50
   6   3   6   77.09    6.90
  -7  -3  -6  145.69   11.90
  -7  -3  -6  147.09    9.80
  -7  -3  -6  181.88    8.50
  -7  -3  -6  175.48    8.30
  -7  -3  -6  163.48    8.10
   7   3   6  197.68    9.30
   7   3   6  166.38    9.20
   7   3   6  182.68    7.90
   7   3   6  156.08    8.00
   7   3   6  173.18    7.50
  -8  -3  -6   11.30    4.70
  -8  -3  -6   10.50    4.90
  -8  -3  -6   21.90    4.70
  -8  -3  -6   17.90    5.30
  -8  -3  -6   12.10    4.40
   8   3   6   14.60    5.10
   8   3   6   13.30    5.90
   8   3   6    9.60    4.20
   8   3   6   16.00    5.50
   8   3   6   13.20    4.30
   8   3   6   11.60    5.40
  -9  -3  -6   88.99    9.90
  -9  -3  -6   64.79    9.00
  -9  -3  -6   57.19    7.70
  -9  -3  -6   62.09    8.20
  -9  -3  -6   72.59    8.90
   9   3   6   77.69    8.10
   9   3   6   62.09    7.90
   9   3   6   63.89    8.70
   9   3   6   71.29   10.20
   9   3   6   68.49    9.90
   9   3   6   66.29    8.50
 -10  -3  -6   20.90   14.10
 -10  -3  -6   19.40    7.20
 -10  -3  -6   15.00    6.90
 -10  -3  -6   25.30    8.40
 -10  -3  -6   26.10    7.90
  10   3   6   27.20    8.50
  10   3   6   34.10    8.80
  10   3   6   28.70    6.60
 -11  -3  -6    9.50   14.30
  11   3   6    7.70    7.50
  12   3   6    4.50    9.30
   7  -4  -6   16.70   18.50
   7  -4  -6    9.30   12.80
   6  -4  -6   18.20   10.80
   6  -4  -6   36.40   18.20
   6  -4  -6   41.70   13.50
  -6   4   6   -2.40   10.40
   5  -4  -6    5.00    8.10
   5  -4  -6   15.80   10.20
   5  -4  -6  -16.20    8.20
   5  -4  -6  -10.10    9.60
  -5   4   6    1.70    9.90
  -5   4   6   15.70    8.70
  -5   4   6   -5.10    8.50
  -5   4   6    4.00    8.70
   4  -4  -6   32.70    6.60
   4  -4  -6   44.20    7.80
   4  -4  -6   23.20    6.90
   4  -4  -6   30.20    7.30
   4  -4  -6   23.80    8.00
   4  -4  -6   15.60    8.90
  -4   4   6   19.50    8.30
  -4   4   6   31.70    8.20
  -4   4   6   21.50    7.50
  -4   4   6   36.00    8.30
  -4   4   6   38.30    8.30
   3  -4  -6   58.69    8.30
   3  -4  -6   29.70    9.20
   3  -4  -6   46.30    6.80
   3  -4  -6   48.00    6.90
   3  -4  -6   57.29    7.10
  -3   4   6   41.50    7.60
  -3   4   6   53.59    8.10
  -3   4   6   43.10    7.60
   2  -4  -6   15.70    8.00
   2  -4  -6   23.10    5.90
   2  -4  -6   21.70    5.10
   2  -4  -6   28.30    6.40
   2  -4  -6   16.60    4.10
  -2   4   6   24.10    5.30
  -2   4   6   19.00    5.60
  -2   4   6   25.20    5.70
  -2   4   6   21.80    6.10
  -2   4   6   21.80    5.90
   1  -4  -6  227.88   10.70
   1  -4  -6  246.18   10.40
   1  -4  -6  232.78   11.10
   1  -4  -6  238.68   10.20
  -1   4   6  226.08   10.80
  -1   4   6  241.68   10.80
  -1   4   6  249.48   10.60
  -1   4   6  236.38   10.90
  -1   4   6  239.28   10.60
   0  -4  -6   62.39    6.30
   0  -4  -6   59.99    5.80
   0  -4  -6   67.29    6.70
   0  -4  -6   57.89    6.20
   0   4   6   68.69    6.40
   0   4   6   60.09    6.10
   0   4   6   65.09    9.20
   0   4   6   57.39    6.10
   0   4   6   72.39    6.50
  -1  -4  -6   35.00    4.10
  -1  -4  -6   30.00    4.40
  -1  -4  -6   37.80    5.00
  -1  -4  -6   33.20    4.60
  -1  -4  -6   30.20    4.70
   1   4   6   29.50    4.50
   1   4   6   27.00    4.30
   1   4   6   21.70    4.50
   1   4   6   33.90    5.20
  -2  -4  -6   51.99    5.20
  -2  -4  -6   60.29    5.30
  -2  -4  -6   56.79    5.40
  -2  -4  -6   52.39    4.90
   2   4   6   53.19    5.00
   2   4   6   54.89    5.30
   2   4   6   57.99    5.60
   2   4   6   51.59    5.80
  -3  -4  -6  135.79    6.90
  -3  -4  -6  134.29    6.80
  -3  -4  -6  133.89    6.80
  -3  -4  -6  119.79    6.70
   3   4   6  131.09    7.30
   3   4   6  125.19    6.60
   3   4   6  120.59    6.40
   3   4   6  129.69    7.10
  -4  -4  -6   61.79    5.40
  -4  -4  -6   67.29    5.40
  -4  -4  -6   72.59    5.40
  -4  -4  -6   76.59    5.60
   4   4   6   69.29    4.80
   4   4   6   67.29    6.10
   4   4   6   64.59    5.30
   4   4   6   67.79    5.70
   4   4   6   70.19    6.40
  -5  -4  -6  236.08    9.70
  -5  -4  -6  241.58    9.20
  -5  -4  -6  247.38    9.30
  -5  -4  -6  245.38    9.00
  -5  -4  -6  230.38    8.90
   5   4   6  234.18    8.50
   5   4   6  237.98    8.90
   5   4   6  250.47   10.20
   5   4   6  232.68    9.60
   5   4   6  234.18    8.70
  -6  -4  -6  219.88    9.00
  -6  -4  -6  229.78    9.50
  -6  -4  -6  207.98   10.00
  -6  -4  -6  221.58    9.20
  -6  -4  -6  226.78    9.10
   6   4   6  241.18   10.20
   6   4   6  234.28    9.20
   6   4   6  208.28    8.50
   6   4   6  220.48    9.60
  -7  -4  -6  310.17   11.40
  -7  -4  -6  284.97   11.00
  -7  -4  -6  289.47   12.40
  -7  -4  -6  290.57   11.00
   7   4   6  312.57   11.20
   7   4   6  308.67   11.00
   7   4   6  273.67   10.40
   7   4   6  299.37   11.80
  -8  -4  -6  177.38   10.00
  -8  -4  -6  174.58   10.40
  -8  -4  -6  157.18    8.70
  -8  -4  -6  175.78    9.30
  -8  -4  -6  160.88    9.40
   8   4   6  134.99    9.50
   8   4   6  157.78    8.60
   8   4   6  150.98    9.70
   8   4   6  167.48    9.50
   8   4   6  170.18   11.00
  -9  -4  -6   62.69    8.20
  -9  -4  -6   75.59   10.10
  -9  -4  -6   63.69    8.20
  -9  -4  -6   70.59    8.80
  -9  -4  -6   60.09    7.60
   9   4   6   58.19    7.60
   9   4   6   52.09    9.20
   9   4   6   62.99    9.00
   9   4   6   39.40    8.00
   9   4   6   64.39    8.20
 -10  -4  -6    2.50    6.70
 -10  -4  -6    4.10    7.00
 -10  -4  -6   -1.70    8.30
 -10  -4  -6   18.00    9.20
 -10  -4  -6    0.50    6.90
  10   4   6   -8.90    8.50
  10   4   6    8.10    7.50
  11   4   6    8.90    7.90
  12   4   6    4.80    9.10
   6  -5  -6   -6.70   13.60
   6  -5  -6    1.50   15.00
   5  -5  -6   -8.20    9.40
   5  -5  -6    6.70   11.90
   5  -5  -6   17.70   11.30
  -5   5   6   10.20   11.00
  -5   5   6   25.40   10.90
  -5   5   6   17.20   10.60
   4  -5  -6   31.00    8.00
   4  -5  -6   29.10    9.50
   4  -5  -6   34.50    7.80
   4  -5  -6   52.09    9.80
   4  -5  -6   35.90    8.90
  -4   5   6   34.80    8.80
  -4   5   6   29.80    9.60
  -4   5   6   27.20    8.50
  -4   5   6   25.90    8.80
   3  -5  -6   10.80    8.30
   3  -5  -6   24.20    5.80
   3  -5  -6   10.80    7.40
   3  -5  -6   25.40    7.00
   3  -5  -6   18.70    6.80
   3  -5  -6   15.80    6.70
  -3   5   6   28.30    6.90
  -3   5   6    5.80    6.80
  -3   5   6   28.30    8.20
  -3   5   6   23.10    7.70
  -3   5   6   28.50    7.90
   2  -5  -6   67.09    8.60
   2  -5  -6   63.89    8.30
   2  -5  -6   55.49    7.10
   2  -5  -6   65.19    8.70
   2  -5  -6   68.79   13.80
  -2   5   6   64.09    8.40
  -2   5   6   58.89    8.40
  -2   5   6   58.19    8.70
  -2   5   6   66.79    8.70
   1  -5  -6   35.10    6.50
   1  -5  -6   30.90    4.80
   1  -5  -6   33.00    6.30
   1  -5  -6   30.60    6.20
   1  -5  -6   36.30    6.20
  -1   5   6   35.20    6.00
  -1   5   6   30.90    6.30
  -1   5   6   28.70    6.50
  -1   5   6   31.20    6.20
   0  -5  -6   40.90    5.60
   0  -5  -6   39.40    5.80
   0  -5  -6   34.50    5.90
   0  -5  -6   39.30    6.60
   0   5   6   45.60    6.50
   0   5   6   38.90    5.90
   0   5   6   43.30    6.20
   0   5   6   36.10    5.80
  -1  -5  -6  312.57   12.00
  -1  -5  -6  296.37   11.60
  -1  -5  -6  287.97   11.50
  -1  -5  -6  310.57   11.40
   1   5   6  303.77   11.60
   1   5   6  302.97   11.60
   1   5   6  301.17   11.60
   1   5   6  307.67   12.10
  -2  -5  -6  114.99    7.10
  -2  -5  -6  106.89    7.40
  -2  -5  -6  109.79    7.40
  -2  -5  -6  109.69    7.30
   2   5   6  105.89    7.10
   2   5   6  102.09    7.70
   2   5   6  102.29    8.00
   2   5   6   97.19    7.10
  -3  -5  -6   57.49    6.00
  -3  -5  -6   61.99    6.00
  -3  -5  -6   54.49    5.80
  -3  -5  -6   56.09    5.70
   3   5   6   54.59    6.50
   3   5   6   56.99    6.70
   3   5   6   59.69    5.70
   3   5   6   58.39    5.80
  -4  -5  -6  464.85   14.30
  -4  -5  -6  456.75   14.10
  -4  -5  -6  493.15   14.80
  -4  -5  -6  475.55   14.40
   4   5   6  482.55   14.40
   4   5   6  474.35   15.00
   4   5   6  477.75   15.10
   4   5   6  489.65   14.20
  -5  -5  -6  430.76   13.80
  -5  -5  -6  442.96   13.90
  -5  -5  -6  409.76   13.40
  -5  -5  -6  419.26   13.30
  -5  -5  -6  419.16   13.60
   5   5   6  425.96   13.00
   5   5   6  411.86   13.20
   5   5   6  412.66   12.20
   5   5   6  448.86   14.10
  -6  -5  -6   70.69    7.30
  -6  -5  -6   65.09    7.00
  -6  -5  -6   64.19    7.20
  -6  -5  -6   71.29    6.70
  -6  -5  -6   74.99    7.00
   6   5   6   69.39    6.70
   6   5   6   66.19    7.40
   6   5   6   84.29    9.00
   6   5   6   65.59    5.60
   6   5   6   75.59    6.90
  -7  -5  -6  152.78    9.20
  -7  -5  -6  155.08    9.20
  -7  -5  -6  174.08    9.60
  -7  -5  -6  175.48   10.00
  -7  -5  -6  141.89    9.90
   7   5   6  159.08    9.00
   7   5   6  164.58    9.90
   7   5   6  136.29   10.30
   7   5   6  156.48    9.30
   7   5   6  149.99    7.80
  -8  -5  -6  382.76   13.80
  -8  -5  -6  406.86   15.30
  -8  -5  -6  390.66   13.60
  -8  -5  -6  384.56   14.50
  -8  -5  -6  386.56   14.90
   8   5   6  400.76   16.00
   8   5   6  390.96   13.90
   8   5   6  411.66   14.30
   8   5   6  380.46   13.10
   8   5   6  382.16   14.90
  -9  -5  -6    4.40    6.00
  -9  -5  -6   -2.90    6.10
  -9  -5  -6    4.20    6.20
  -9  -5  -6   13.00    8.90
  -9  -5  -6   -2.10    5.40
   9   5   6   12.40    6.80
   9   5   6    5.20    6.20
   9   5   6    3.30    8.30
   9   5   6   12.00    8.60
   9   5   6   -1.20    6.00
   9   5   6   -4.50    4.70
 -10  -5  -6   13.20    7.20
 -10  -5  -6   15.30    7.40
 -10  -5  -6    3.50    7.30
 -10  -5  -6   21.10    9.30
  10   5   6    6.90    8.60
  10   5   6    3.10    6.50
  10   5   6    5.30    6.40
  11   5   6   37.40    8.90
  12   5   6    6.00    8.60
   6  -6  -6   18.40   15.40
   5  -6  -6    4.90   14.20
   5  -6  -6   23.60   12.70
   4  -6  -6    0.40    9.30
   4  -6  -6  -13.10   11.00
   4  -6  -6    8.10   11.60
  -4   6   6  -10.40    9.70
  -4   6   6    2.30    9.70
  -4   6   6    4.40   10.90
  -4   6   6   12.20   10.50
   3  -6  -6    5.00    8.40
   3  -6  -6    4.10    7.50
   3  -6  -6   -6.50    6.10
   3  -6  -6   11.50    8.70
   3  -6  -6   -1.30    8.50
  -3   6   6   15.80    7.80
  -3   6   6   -4.10    8.40
  -3   6   6   -4.90    8.90
  -3   6   6    6.70    7.60
   2  -6  -6   51.49    9.60
   2  -6  -6   46.80    7.90
   2  -6  -6   56.79    8.30
   2  -6  -6   54.19    9.40
   2  -6  -6   41.90    6.30
   2  -6  -6   41.20    7.70
  -2   6   6   38.80    8.60
  -2   6   6   41.10    8.50
  -2   6   6   63.49    9.40
  -2   6   6   58.29    9.20
   1  -6  -6    9.70    5.80
   1  -6  -6   -0.50    5.20
   1  -6  -6   -3.10   11.00
   1  -6  -6   -7.70    3.90
   1  -6  -6    7.10    6.20
  -1   6   6  -15.10    7.50
  -1   6   6   -0.40    5.90
  -1   6   6   -1.00    5.30
  -1   6   6    3.30    5.80
   0  -6  -6   64.39    7.60
   0  -6  -6   56.29    7.30
   0  -6  -6   56.29    7.30
   0  -6  -6   57.89    7.90
   0   6   6   64.19   10.90
   0   6   6   63.79    8.70
   0   6   6   53.79    8.30
   0   6   6   51.39    7.20
  -1  -6  -6   64.89    8.30
  -1  -6  -6   64.49    7.60
  -1  -6  -6   80.49    8.20
  -1  -6  -6   78.59    7.90
   1   6   6   65.69    7.80
   1   6   6   69.99    8.50
   1   6   6   53.29    7.50
   1   6   6   84.99    8.50
  -2  -6  -6  823.12   22.10
  -2  -6  -6  836.32   22.10
  -2  -6  -6  823.72   21.90
  -2  -6  -6  827.52   22.40
   2   6   6  810.62   21.90
   2   6   6  803.22   21.80
   2   6   6  726.43   28.40
   2   6   6  816.62   22.60
  -3  -6  -6    7.80    4.70
  -3  -6  -6    9.20    4.10
  -3  -6  -6   12.50    3.90
   3   6   6    4.00    4.90
   3   6   6   16.80    4.60
   3   6   6    7.20    4.80
   3   6   6   13.10    4.20
  -4  -6  -6  197.28    9.70
  -4  -6  -6  193.78   10.30
  -4  -6  -6  195.18   10.00
  -4  -6  -6  196.68    9.80
   4   6   6  199.18    9.80
   4   6   6  197.08    9.90
   4   6   6  197.38    7.10
   4   6   6  200.18   10.10
  -5  -6  -6  303.17   12.60
  -5  -6  -6  296.07   11.80
  -5  -6  -6  284.27   11.60
  -5  -6  -6  302.97   12.20
  -5  -6  -6  270.17   11.90
   5   6   6  301.17   12.50
   5   6   6  284.47   10.10
   5   6   6  294.17   11.60
   5   6   6  313.67   11.90
  -6  -6  -6  372.56   13.80
  -6  -6  -6  399.46   14.30
  -6  -6  -6  392.56   14.70
  -6  -6  -6  360.56   14.10
  -6  -6  -6  368.86   13.70
   6   6   6  371.26   11.80
   6   6   6  404.46   13.70
   6   6   6  398.86   13.70
   6   6   6  365.86   14.20
  -7  -6  -6   77.29    8.80
  -7  -6  -6   65.59    8.50
  -7  -6  -6   89.19    9.30
  -7  -6  -6   85.19    8.50
   7   6   6  100.69   13.20
   7   6   6   89.09    9.10
   7   6   6   88.29    9.90
   7   6   6   80.29    6.30
   7   6   6   91.19    8.50
  -8  -6  -6  563.24   17.70
  -8  -6  -6  547.25   18.20
  -8  -6  -6  571.84   19.70
  -8  -6  -6  550.64   17.30
  -8  -6  -6  544.35   18.30
   8   6   6  516.65   19.40
   8   6   6  525.05   18.50
   8   6   6  551.14   16.00
   8   6   6  553.44   17.90
   8   6   6  547.95   17.40
  -9  -6  -6    5.90    6.70
  -9  -6  -6   22.10    7.30
  -9  -6  -6    9.10    6.60
  -9  -6  -6    6.20    8.20
  -9  -6  -6    5.50    6.30
   9   6   6    6.40    6.60
   9   6   6   11.50    5.40
   9   6   6   20.80    7.20
 -10  -6  -6   72.19    9.90
 -10  -6  -6   70.09    9.50
 -10  -6  -6   72.59    9.60
 -10  -6  -6   87.39   11.80
  10   6   6   75.99    9.20
  10   6   6   81.99   11.40
  10   6   6   50.69    9.40
  11   6   6   12.60    7.40
  11   6   6   21.50    8.30
  12   6   6   15.30    9.20
   5  -7  -6   63.89   15.30
   4  -7  -6    8.20   12.00
   4  -7  -6   18.90   14.70
  -4   7   6   23.50   13.30
   3  -7  -6    5.40   10.80
   3  -7  -6    8.20    8.50
   3  -7  -6   19.90   11.50
  -3   7   6  -10.90    9.10
  -3   7   6   -6.20    9.80
  -3   7   6   11.50   11.20
  -3   7   6   -8.70   10.10
   2  -7  -6   13.40    8.90
   2  -7  -6    7.30    7.90
   2  -7  -6    9.80    9.00
   2  -7  -6   14.30    6.20
  -2   7   6    3.70    7.40
  -2   7   6    9.80    8.70
  -2   7   6   18.60    9.00
  -2   7   6    0.80    9.30
   1  -7  -6  122.69   11.90
   1  -7  -6  143.09   13.10
   1  -7  -6  119.99   11.70
   1  -7  -6  126.79   13.60
  -1   7   6  132.99   13.00
  -1   7   6  143.89   12.20
  -1   7   6  140.19   13.20
  -1   7   6  135.69   12.60
   0  -7  -6    3.70    4.20
   0  -7  -6    1.70    5.90
   0  -7  -6    6.20    6.70
   0  -7  -6   11.20    6.30
   0  -7  -6    5.80    6.60
   0   7   6   -2.30    6.30
   0   7   6   -1.70    5.40
   0   7   6   13.60    6.70
   0   7   6    8.70    6.50
  -1  -7  -6   35.70    7.40
  -1  -7  -6   39.80    7.10
  -1  -7  -6   42.70    8.90
  -1  -7  -6   54.49    7.50
   1   7   6   54.49    7.90
   1   7   6   45.30    8.20
   1   7   6   39.40    7.20
   1   7   6   56.59    8.10
  -2  -7  -6   43.40    6.90
  -2  -7  -6   36.40    7.20
  -2  -7  -6   51.59    7.10
   2   7   6   37.50    7.10
   2   7   6   42.50    7.00
   2   7   6   44.10    7.60
   2   7   6   45.50    7.20
  -3  -7  -6   21.00    6.40
  -3  -7  -6    9.70    5.30
  -3  -7  -6   26.20    6.70
   3   7   6   12.10    5.90
   3   7   6   17.30    5.70
   3   7   6    8.90    5.50
   3   7   6   15.70    5.50
  -4  -7  -6  351.46   15.20
  -4  -7  -6  368.86   14.70
  -4  -7  -6  353.56   13.80
  -4  -7  -6  375.16   13.30
  -4  -7  -6  349.47   14.20
   4   7   6  364.66   14.60
   4   7   6  368.66   14.20
   4   7   6  389.66   15.50
   4   7   6  351.76   14.00
   4   7   6  364.86   11.40
  -5  -7  -6   18.80    5.60
  -5  -7  -6    9.40    5.60
  -5  -7  -6    9.70    5.30
  -5  -7  -6   12.10    5.30
  -5  -7  -6   -0.30    4.40
   5   7   6    7.90    5.10
   5   7   6    9.40    5.00
   5   7   6    9.90    5.70
   5   7   6    7.30    6.50
   5   7   6    3.80    3.40
  -6  -7  -6  502.85   19.50
  -6  -7  -6  553.44   17.80
  -6  -7  -6  548.95   18.40
  -6  -7  -6  551.04   18.60
   6   7   6  537.45   18.40
   6   7   6  525.05   15.00
   6   7   6  523.95   17.50
   6   7   6  572.04   17.80
  -7  -7  -6   96.59   10.70
  -7  -7  -6   87.59    9.40
  -7  -7  -6   99.69   11.20
  -7  -7  -6  124.59   10.60
  -7  -7  -6  109.79   10.00
   7   7   6   94.19    7.00
   7   7   6  117.29   10.40
   7   7   6  102.99   11.70
   7   7   6  116.69   10.60
   7   7   6   88.49   10.20
  -8  -7  -6    5.30    6.90
  -8  -7  -6   10.80    6.10
  -8  -7  -6   16.80    6.70
  -8  -7  -6    3.60    7.90
  -8  -7  -6   -2.20    5.60
   8   7   6   -1.40    8.40
   8   7   6    3.20    4.50
   8   7   6   19.30    7.20
   8   7   6   14.60    9.20
   8   7   6   -0.10    7.00
  -9  -7  -6    6.00    6.80
  -9  -7  -6    6.20    6.80
  -9  -7  -6   -5.70    6.90
  -9  -7  -6   -2.70    9.30
  -9  -7  -6    1.50    8.70
   9   7   6    7.40    7.90
   9   7   6    2.60    5.40
 -10  -7  -6  184.18   16.10
 -10  -7  -6  155.98   18.00
 -10  -7  -6  199.88   14.70
 -10  -7  -6  182.98   15.00
  10   7   6  216.58   16.70
  10   7   6  223.48   12.60
  11   7   6   -0.50    7.20
  11   7   6   26.30    9.10
  12   7   6   -6.00    8.30
   3  -8  -6   34.70   14.30
  -3   8   6   60.29   21.20
   2  -8  -6   20.50    8.00
   2  -8  -6   33.50   12.40
   2  -8  -6   57.99   13.10
  -2   8   6   13.70   10.50
  -2   8   6   35.60   12.30
  -2   8   6   48.20   11.40
   1  -8  -6   -5.80    9.20
   1  -8  -6   -6.40    6.10
   1  -8  -6   12.60    9.30
   1  -8  -6    2.50    9.50
  -1   8   6   10.50    9.00
  -1   8   6    2.30    8.10
  -1   8   6   18.40   10.50
   0  -8  -6   -2.90    7.90
   0  -8  -6   -5.80    7.50
   0  -8  -6    7.30    7.90
   0  -8  -6    1.10    8.60
   0   8   6   22.80    7.40
   0   8   6   -0.10    8.60
   0   8   6    2.80    7.10
   0   8   6   12.60    8.90
  -1  -8  -6   51.99    9.50
  -1  -8  -6   49.20    8.30
  -1  -8  -6   46.50    8.10
  -1  -8  -6   67.69    9.40
   1   8   6   71.49    9.70
   1   8   6   52.19    8.90
   1   8   6   46.70    8.70
   1   8   6   70.99    9.30
  -2  -8  -6  268.17   13.90
  -2  -8  -6  246.48   13.90
  -2  -8  -6  277.87   14.30
  -2  -8  -6  228.48   14.20
   2   8   6  262.37   14.60
   2   8   6  276.67   15.30
   2   8   6  248.98   13.90
   2   8   6  258.47   14.10
  -3  -8  -6   71.39    9.20
  -3  -8  -6   51.99    8.80
  -3  -8  -6   54.69    7.70
  -3  -8  -6   27.10    7.30
   3   8   6   46.70    8.70
   3   8   6   44.30    8.40
   3   8   6   58.69    8.40
   3   8   6   51.59    8.70
  -4  -8  -6   87.39    9.70
  -4  -8  -6   79.79    8.60
  -4  -8  -6   99.69   10.60
  -4  -8  -6   76.49    9.70
  -4  -8  -6   76.09   10.10
   4   8   6  102.19    8.00
   4   8   6   82.69   11.60
   4   8   6   80.69    9.90
   4   8   6   86.59   10.80
   4   8   6   86.59   10.70
  -5  -8  -6  123.69   11.30
  -5  -8  -6  139.79   15.40
  -5  -8  -6  122.39   16.30
  -5  -8  -6  128.19   10.20
  -5  -8  -6  129.89   11.20
   5   8   6  129.29   11.30
   5   8   6  134.39   12.50
   5   8   6  111.89   10.90
   5   8   6  128.59   11.40
   5   8   6  127.79    8.00
  -6  -8  -6  336.27   18.60
  -6  -8  -6  334.47   15.50
  -6  -8  -6  315.67   14.10
  -6  -8  -6  333.97   15.30
  -6  -8  -6  329.97   14.90
   6   8   6  325.37   15.30
   6   8   6  314.77   11.30
   6   8   6  347.97   15.20
   6   8   6  310.47   10.60
   6   8   6  362.76   17.50
   6   8   6  350.36   16.30
  -7  -8  -6  124.99   11.90
  -7  -8  -6  117.89   13.70
  -7  -8  -6   97.19   11.30
  -7  -8  -6  104.99   10.50
  -7  -8  -6  114.39   12.20
   7   8   6  103.19   15.00
   7   8   6   97.99   13.40
   7   8   6  120.79   12.70
   7   8   6  118.69   12.20
   7   8   6  106.39    7.60
  -8  -8  -6   65.49    9.20
  -8  -8  -6   63.59    8.90
  -8  -8  -6   79.59   10.90
  -8  -8  -6   69.69   10.60
  -8  -8  -6   58.79   11.70
   8   8   6   61.39   10.30
   8   8   6   59.89    7.50
   8   8   6   62.49    9.90
   8   8   6   55.29   11.20
  -9  -8  -6   30.90    9.10
  -9  -8  -6   15.30    8.40
  -9  -8  -6   13.00    8.90
  -9  -8  -6   24.70   11.50
   9   8   6   23.80    6.60
   9   8   6   50.49   10.10
   9   8   6   22.20   10.30
 -10  -8  -6  132.09   16.40
 -10  -8  -6  117.19   14.80
 -10  -8  -6  136.09   16.70
  10   8   6  168.68   17.70
  11   8   6   13.20   10.00
   2  -9  -6   34.70   14.90
   1  -9  -6   10.40    9.70
   1  -9  -6   14.40   18.10
   1  -9  -6   30.40   12.70
  -1   9   6    4.60   10.70
   0  -9  -6   51.89   11.20
   0  -9  -6   46.40    7.80
   0  -9  -6   26.90   10.80
   0   9   6   45.80   13.20
   0   9   6   50.49   10.00
   0   9   6   41.00   11.20
   0   9   6   20.60   10.10
  -1  -9  -6   50.99   10.60
  -1  -9  -6   26.50    9.40
  -1  -9  -6   39.10    9.80
   1   9   6   32.20    9.10
   1   9   6   15.30   10.60
   1   9   6   31.80    9.70
   1   9   6   42.90   10.00
  -2  -9  -6   31.60    9.50
  -2  -9  -6   32.60    8.60
  -2  -9  -6   27.80    9.80
  -2  -9  -6   26.90    9.40
   2   9   6   37.60   10.70
   2   9   6   44.40    9.40
   2   9   6   30.50    9.40
   2   9   6   45.90    9.40
  -3  -9  -6   17.60    8.70
  -3  -9  -6   10.70    8.50
  -3  -9  -6   33.90    8.50
  -3  -9  -6   12.50    8.40
   3   9   6   27.70    9.60
   3   9   6   32.20    8.80
   3   9   6   10.00    7.00
   3   9   6   12.30    8.50
  -4  -9  -6   34.30    9.10
  -4  -9  -6   44.90    8.40
  -4  -9  -6   34.70    7.30
  -4  -9  -6   45.90    8.30
   4   9   6   44.20    8.30
   4   9   6   37.60   10.10
   4   9   6   43.40    8.60
   4   9   6   43.00    9.80
   4   9   6   39.10    7.00
  -5  -9  -6   26.30    8.00
  -5  -9  -6   21.30    8.10
  -5  -9  -6   35.80    8.70
  -5  -9  -6   30.30    9.20
   5   9   6   21.90    7.70
   5   9   6   10.00   10.50
   5   9   6   20.70    7.80
   5   9   6   32.80    5.90
   5   9   6   25.80    8.90
  -6  -9  -6   88.19   11.00
  -6  -9  -6   98.29   12.30
  -6  -9  -6   98.09   12.50
  -6  -9  -6   97.29   14.00
  -6  -9  -6   93.49   12.40
   6   9   6  102.99   12.50
   6   9   6   98.19   12.40
   6   9   6  103.39    8.80
   6   9   6   81.29    7.70
   6   9   6   81.39   10.90
   6   9   6   83.19   13.00
  -7  -9  -6   22.40    9.20
  -7  -9  -6    1.00    9.50
  -7  -9  -6   23.60    8.40
  -7  -9  -6   13.10    7.80
  -7  -9  -6   14.00    6.60
   7   9   6   24.90    9.20
   7   9   6  -11.00   10.30
   7   9   6   20.60    8.80
   7   9   6   16.20    5.60
  -8  -9  -6   62.79   11.30
  -8  -9  -6   46.10   11.20
  -8  -9  -6   65.99    9.00
  -8  -9  -6   65.19   10.20
  -8  -9  -6   50.19   11.40
   8   9   6   79.59    9.00
   8   9   6  105.59   15.10
   8   9   6   74.89   12.10
  -9  -9  -6   11.40    9.80
  -9  -9  -6   25.00   11.00
  -9  -9  -6    1.10    9.10
   9   9   6   34.30   11.70
   9   9   6   21.40    7.70
   9   9   6   17.90   13.70
 -10  -9  -6   -7.90   13.00
  10   9   6   18.70   12.50
  10   9   6   -5.20    9.10
  11   9   6    3.30   10.80
   1 -10  -6   68.49   18.40
   0 -10  -6   -6.20   13.70
   0  10   6   13.80   13.50
  -1 -10  -6   14.00   12.30
   1  10   6    9.30   11.30
   1  10   6  -25.90   13.10
   1  10   6    6.00   10.90
  -2 -10  -6    9.70   10.20
   2  10   6   -7.90   10.80
   2  10   6    8.40   10.30
   2  10   6  -12.50   11.80
  -3 -10  -6   -9.30    8.80
  -3 -10  -6    6.70   11.00
  -3 -10  -6    3.70   10.00
  -3 -10  -6   30.00   10.80
   3  10   6    0.90    8.40
   3  10   6   -2.50    9.60
   3  10   6  -12.80    8.20
   3  10   6   -0.20   10.90
  -4 -10  -6   31.20    9.40
  -4 -10  -6   22.60    9.70
  -4 -10  -6    9.80   10.60
   4  10   6   15.20    8.40
   4  10   6    6.80   10.80
   4  10   6    6.00    7.60
   4  10   6    6.30    8.90
  -5 -10  -6  -11.00    9.40
  -5 -10  -6    8.50    9.50
  -5 -10  -6    3.30    9.50
  -5 -10  -6  -12.60    7.30
   5  10   6    7.30    8.60
   5  10   6   25.10   11.70
   5  10   6   16.70    9.20
   5  10   6   -1.40    8.80
  -6 -10  -6   -2.00    9.20
  -6 -10  -6    2.60    7.10
  -6 -10  -6   23.50   10.80
  -6 -10  -6   18.50   10.20
   6  10   6   13.10    7.00
   6  10   6    9.20    5.70
   6  10   6   15.30    9.70
   6  10   6    8.30   10.10
   6  10   6   -7.00   11.00
  -7 -10  -6    8.60    8.00
  -7 -10  -6   31.00   10.60
  -7 -10  -6    3.20   10.10
  -7 -10  -6    3.40   12.10
   7  10   6   34.30   10.20
   7  10   6   11.60    7.00
   7  10   6   -5.50   10.70
   7  10   6    8.80    6.40
  -8 -10  -6   49.40   13.70
  -8 -10  -6   25.50   11.00
  -8 -10  -6   52.49   14.20
  -8 -10  -6   22.20    9.10
   8  10   6   50.99   13.20
   8  10   6   39.20    8.70
   8  10   6   61.09   12.70
  -9 -10  -6   15.20   10.20
  -9 -10  -6  -13.70   12.60
   9  10   6   36.40   13.30
   9  10   6   -3.60    8.20
  10  10   6    8.00   16.50
  10  10   6   45.50   13.50
  -1 -11  -6   37.70   16.70
  -2 -11  -6   32.20   15.30
   2  11   6   -8.30   13.70
  -3 -11  -6   15.20   13.30
  -3 -11  -6   16.10   13.70
   3  11   6   36.10   11.50
   3  11   6    4.30   10.80
  -4 -11  -6   72.19   14.60
  -4 -11  -6   77.59   11.00
  -4 -11  -6   76.99   13.70
   4  11   6   81.49   11.90
   4  11   6   97.19   13.60
   4  11   6   89.09   13.20
   4  11   6   91.69   16.10
  -5 -11  -6    8.10    8.50
  -5 -11  -6   27.60   12.50
  -5 -11  -6  -10.00   11.20
   5  11   6  -11.60    8.70
   5  11   6   10.20   11.80
   5  11   6  -11.80   12.20
  -6 -11  -6   -8.30   12.10
  -6 -11  -6    5.40    8.70
  -6 -11  -6    8.80   12.70
   6  11   6   14.30    8.90
   6  11   6   16.10   11.60
   6  11   6    6.90    8.70
   6  11   6    7.90   12.10
  -7 -11  -6   22.90   10.10
  -7 -11  -6   13.70   12.90
   7  11   6    9.50   13.50
   7  11   6   -0.60   13.80
   7  11   6   22.30   18.40
  -8 -11  -6   34.10   15.50
  -8 -11  -6   25.60   11.30
   8  11   6   26.70   11.50
  -9 -11  -6  -17.90   12.20
   4  12   6    4.60   14.00
   5  12   6  -12.70   17.00
   6  12   6    6.30   16.50
   6  12   6   13.30    8.90
   7  12   6   46.50   10.30
   8  12   6   14.30   11.60
  -6 -11   7   55.59   10.10
  -5 -11   7    5.20    7.40
  -4 -11   7   19.30    8.70
  -3 -11   7   -4.60    8.20
   2  11  -7   -2.20   14.90
  -2 -11   7   14.30    9.10
  -1 -11   7   60.09   12.10
   0 -11   7   40.90   11.00
   1 -11   7  117.19   18.70
  -7 -10   7    8.70    7.30
  -6 -10   7   32.60    7.70
  -5 -10   7   79.49   10.70
   4  10  -7   23.30    9.40
  -4 -10   7   26.70    7.80
   3  10  -7    1.20    7.90
  -3 -10   7   -5.90    7.00
   2  10  -7   -1.30   15.50
   2  10  -7   27.80    7.50
   2  10  -7   10.50    9.10
  -2 -10   7   23.20    8.20
   1  10  -7   28.10    8.00
  -1 -10   7   34.30   10.00
   0 -10   7   10.10    7.20
   1 -10   7   46.40   13.00
   2 -10   7   -3.80   11.90
   3 -10   7   -3.90   14.00
  -6  -9   7    9.30    6.20
  -6  -9   7    7.80   12.00
   5   9  -7   30.60   10.40
   5   9  -7   18.20    9.70
   5   9  -7   34.00   19.60
   5   9  -7   28.80    9.20
  -5  -9   7   30.30    7.50
  -5  -9   7   34.30   10.20
   4   9  -7   66.49    9.10
   4   9  -7   67.79   11.00
   4   9  -7   85.79   12.10
   4   9  -7   88.89   11.90
  -4  -9   7   83.59    9.80
  -4  -9   7   77.99   10.50
   3   9  -7   22.30    7.10
   3   9  -7   52.39   10.50
   3   9  -7   34.80    8.10
   3   9  -7   38.60    8.50
   3   9  -7   26.50    7.50
  -3  -9   7   29.10   11.30
  -3  -9   7   33.80    7.90
  -3  -9   7   24.00    7.50
   2   9  -7   -3.70    7.00
   2   9  -7   -2.60    5.50
   2   9  -7    4.10    6.00
   2   9  -7    3.80    7.20
   2   9  -7   -7.60    6.60
  -2  -9   7    6.50    6.10
  -2  -9   7    2.60    7.80
  -2  -9   7    0.40    5.80
  -2  -9   7   -3.80    6.10
   1   9  -7    3.40    6.00
   1   9  -7    1.70    5.90
   1   9  -7   10.70    7.60
   1   9  -7  -10.50    5.10
  -1  -9   7    3.80    6.50
   0   9  -7   37.80    8.40
   0  -9   7   37.90    8.30
  -1   9  -7   86.89   10.70
   1  -9   7   76.49   10.50
  -2   9  -7   41.90   10.10
   2  -9   7   70.19   11.80
   3  -9   7  117.39   15.60
  -8  -8   7   13.50   13.80
   7   8  -7  -12.20   15.30
   7   8  -7    2.40   12.70
   7   8  -7   58.39   14.20
  -7  -8   7   32.20   11.30
   6   8  -7   -1.90    9.60
   6   8  -7    3.20    8.70
   6   8  -7   -8.70    7.40
   6   8  -7    1.30   10.60
   6   8  -7    1.90    9.20
  -6  -8   7   -8.00    9.10
   5   8  -7  -17.80    7.80
   5   8  -7   -0.80    9.10
   5   8  -7   14.80    7.80
   5   8  -7    1.00    7.60
   5   8  -7   -1.50    6.10
   5   8  -7   16.80    7.10
  -5  -8   7    2.50    4.80
  -5  -8   7  -13.20    7.10
  -5  -8   7   -4.00    7.70
   4   8  -7   67.49    8.30
   4   8  -7   64.79    9.20
   4   8  -7   85.09   12.20
   4   8  -7   56.79    8.70
   4   8  -7   69.09    8.60
  -4  -8   7   67.39    9.80
  -4  -8   7   78.29   11.30
  -4  -8   7   70.49    8.50
   3   8  -7  208.48   10.70
   3   8  -7  217.58   11.30
   3   8  -7  221.48   12.10
   3   8  -7  239.98   13.70
   3   8  -7  220.48   12.30
  -3  -8   7  195.48   11.90
  -3  -8   7  205.78   12.30
  -3  -8   7  226.18   11.80
  -3  -8   7  219.68   10.90
  -3  -8   7  212.78   12.40
   2   8  -7   51.09    7.20
   2   8  -7   57.39    6.90
   2   8  -7   66.29    6.80
   2   8  -7   54.59    7.80
   2   8  -7   69.79    8.00
  -2  -8   7   68.09    6.70
  -2  -8   7   57.79    8.10
  -2  -8   7   58.89    6.70
  -2  -8   7   55.29    7.10
  -2  -8   7   48.80    8.30
   1   8  -7   37.50    5.60
   1   8  -7   35.80    5.00
   1   8  -7   31.00    5.90
   1   8  -7   24.40    6.70
   1   8  -7   29.70    5.20
  -1  -8   7   18.50    6.40
   0   8  -7   26.10    6.70
   0  -8   7   28.10    7.20
  -1   8  -7    9.00    6.50
   1  -8   7    5.90    5.80
  -2   8  -7   11.70    7.10
   2  -8   7   26.70    8.20
  -3   8  -7    3.80    8.30
   3  -8   7    4.60    8.20
  -4   8  -7   10.10    9.50
   5  -8   7   -0.60    8.70
  -8  -7   7  -16.30   12.60
   7   7  -7   42.70   13.20
   7   7  -7   63.49   10.60
   7   7  -7   49.90   10.00
   7   7  -7   51.29   12.00
   7   7  -7   42.00   13.00
  -7  -7   7   67.09   10.70
   6   7  -7   -2.70    8.70
   6   7  -7   -6.30    6.90
   6   7  -7    2.00    7.40
   6   7  -7    1.20    8.90
   6   7  -7   -5.20    8.00
   6   7  -7   -5.70    9.60
  -6  -7   7    6.80    8.40
   5   7  -7    7.10    5.70
   5   7  -7   22.60    7.40
   5   7  -7    0.70    8.20
   5   7  -7   23.80    7.10
   5   7  -7   17.00    7.70
   5   7  -7   11.80    7.10
  -5  -7   7   21.50   10.00
  -5  -7   7   18.20    8.50
  -5  -7   7    7.30    6.10
  -5  -7   7   15.80    6.80
   4   7  -7   31.00    5.30
   4   7  -7   25.30    6.70
   4   7  -7   36.60    6.20
   4   7  -7   28.80    7.60
   4   7  -7   27.80    7.10
   4   7  -7   28.20    6.60
  -4  -7   7   15.30    6.60
  -4  -7   7   13.30    6.20
  -4  -7   7   30.90    7.00
  -4  -7   7   16.70    8.20
  -4  -7   7   22.30    5.20
  -4  -7   7   30.90    7.00
   3   7  -7   71.69    8.50
   3   7  -7   71.49    8.80
   3   7  -7   66.39    8.00
   3   7  -7   72.79    8.20
   3   7  -7   66.79    7.30
  -3  -7   7   62.89    9.50
  -3  -7   7   61.09    6.90
  -3  -7   7   65.19    8.80
  -3  -7   7   74.29    7.60
  -3  -7   7   68.79    8.00
  -3  -7   7   73.29    8.40
   2   7  -7   29.30    5.40
   2   7  -7   28.90    5.10
   2   7  -7   31.30    6.40
   2   7  -7   33.70    5.60
   2   7  -7   32.30    5.70
  -2  -7   7   37.60    5.40
  -2  -7   7   35.10    5.10
  -2  -7   7   17.30    5.20
  -2  -7   7   36.20    6.50
   1   7  -7   64.89    6.70
   1   7  -7   66.79    8.50
   1   7  -7   62.49    6.70
   1   7  -7   73.59    6.30
   1   7  -7   65.79    6.60
  -1  -7   7   57.29    7.90
  -1  -7   7   72.99    8.40
  -1  -7   7   63.29    7.10
   0   7  -7   12.80    5.10
   0  -7   7    8.60    5.30
  -1   7  -7   15.80    5.90
   1  -7   7   14.20    5.30
  -2   7  -7    8.10    5.70
   2  -7   7   24.00    6.40
  -3   7  -7   40.80    7.20
   3  -7   7   37.50    8.10
  -4   7  -7   20.20    7.80
   4  -7   7   24.40    7.30
  -5   7  -7   28.80   10.10
   5  -7   7   45.60    9.80
   6  -7   7   15.70    8.30
  -8  -6   7   27.80   12.20
   7   6  -7    1.50    9.80
   7   6  -7   -2.10    8.80
   7   6  -7  -11.80   10.20
   7   6  -7    3.30    9.20
   7   6  -7   17.50   10.30
   7   6  -7   13.40   10.70
  -7  -6   7  -12.20    9.20
  -7  -6   7   16.00    9.00
   6   6  -7  -12.20    7.40
   6   6  -7    0.90    6.80
   6   6  -7   -3.30    7.40
   6   6  -7   -4.20    7.70
   6   6  -7    4.40    6.90
  -6  -6   7   13.40    9.20
  -6  -6   7    6.90    6.90
   5   6  -7  132.29   11.50
   5   6  -7  122.99    9.80
   5   6  -7  149.29    9.70
   5   6  -7  146.59   11.10
   5   6  -7  120.39   11.40
   5   6  -7  115.49   11.00
  -5  -6   7  126.59   10.90
  -5  -6   7  127.39   10.50
  -5  -6   7  129.59   11.60
  -5  -6   7  142.09   11.70
  -5  -6   7  137.99   10.10
   4   6  -7   -2.90    4.50
   4   6  -7   -0.10    5.10
   4   6  -7   -0.80    5.10
   4   6  -7    4.60    5.00
   4   6  -7    9.20    5.70
   4   6  -7    0.30    4.50
  -4  -6   7    5.80    4.00
  -4  -6   7    3.10    5.10
  -4  -6   7   -0.70    5.40
  -4  -6   7    8.00    4.90
  -4  -6   7   -0.70    6.50
  -4  -6   7    5.60    5.00
   3   6  -7   -2.80    3.10
   3   6  -7    1.70    3.90
   3   6  -7    3.80    4.90
   3   6  -7    3.30    4.50
   3   6  -7    1.10    4.40
   3   6  -7   -2.80    4.00
  -3  -6   7    1.80    4.10
  -3  -6   7    2.70    5.60
  -3  -6   7    2.90    4.30
  -3  -6   7    3.70    5.70
   2   6  -7   64.99    7.90
   2   6  -7   54.99    4.50
   2   6  -7   57.39    6.40
   2   6  -7   50.59    6.00
   2   6  -7   52.19    6.40
   2   6  -7   45.30    6.90
  -2  -6   7   32.70    6.30
  -2  -6   7   47.50    6.60
  -2  -6   7   59.09    5.90
  -2  -6   7   53.09    6.50
  -2  -6   7   43.50    5.90
  -2  -6   7   62.09    5.90
   1   6  -7   40.40    5.00
   1   6  -7   30.30    4.40
   1   6  -7   40.10    5.10
   1   6  -7   33.40    4.60
   1   6  -7   40.60    8.40
  -1  -6   7   41.60    7.30
  -1  -6   7   38.90    5.00
   0  -6   7  796.42   23.10
   1  -6   7    7.00    4.60
  -2   6  -7    7.80    4.60
   2  -6   7   -2.30    4.60
  -3   6  -7   20.20    6.30
   3  -6   7   11.70    6.00
   3  -6   7   15.90    7.10
  -4   6  -7   27.60    6.70
   4  -6   7   31.30    7.70
  -5   6  -7   70.79   10.40
   5  -6   7   77.29   11.00
  -6   6  -7    1.10    8.80
   6  -6   7    4.60    7.10
  -7   6  -7   18.80   11.50
   7  -6   7   -2.60    7.30
   8   5  -7   -0.10   11.40
  -8  -5   7    2.20   10.90
  -8  -5   7    5.70   12.50
   7   5  -7   -3.60    9.10
   7   5  -7    5.00    9.40
   7   5  -7   10.60   10.90
   7   5  -7    7.60   10.00
  -7  -5   7    7.30    8.50
  -7  -5   7   -4.00    9.00
   6   5  -7    7.30    7.30
   6   5  -7   -6.60    6.40
   6   5  -7   -1.60    7.30
   6   5  -7    9.10    6.50
   6   5  -7    4.00    7.70
  -6  -5   7   -4.40    7.70
  -6  -5   7    6.70    7.00
  -6  -5   7    3.40   12.50
  -6  -5   7   -8.30    6.30
  -6  -5   7    3.40    7.30
   5   5  -7  132.79   10.90
   5   5  -7  133.69   10.50
   5   5  -7  134.69    9.30
   5   5  -7  126.09   10.00
   5   5  -7  131.49   10.60
   5   5  -7  108.29    9.40
  -5  -5   7  114.99    9.80
  -5  -5   7  130.69    9.90
  -5  -5   7  106.29    9.90
  -5  -5   7  136.49   10.30
   4   5  -7   -3.80    4.80
   4   5  -7   -1.10    4.70
   4   5  -7    6.10    4.60
   4   5  -7    3.40    5.30
   4   5  -7    7.00    4.00
   4   5  -7   -3.60    4.30
  -4  -5   7   -6.00    4.40
  -4  -5   7    1.90    4.60
  -4  -5   7   -6.70    4.20
  -4  -5   7    6.20    4.80
   3   5  -7    8.00    3.70
   3   5  -7    0.50    3.70
   3   5  -7    1.40    3.40
   3   5  -7   -1.00    4.70
   3   5  -7    3.60    3.90
   3   5  -7   -0.20    4.60
  -3  -5   7    0.60    3.50
  -3  -5   7   -0.70    3.60
  -3  -5   7   -1.00    3.60
   2   5  -7   75.29    5.00
   2   5  -7   69.89    7.00
   2   5  -7   73.99    6.10
   2   5  -7   75.89    5.80
   2   5  -7   77.49    6.00
   2   5  -7   68.29    6.00
  -2  -5   7   84.59    7.50
  -2  -5   7   72.29    5.30
  -2  -5   7   74.29    6.20
  -2  -5   7   63.89    6.50
  -2  -5   7   69.79    5.50
   1   5  -7   25.00    3.60
   1   5  -7   22.10    3.70
   1   5  -7   17.80    3.40
   1   5  -7   24.30    3.90
   1   5  -7   21.20    2.80
   1   5  -7   11.50    4.30
  -1  -5   7   24.30    3.60
  -1  -5   7   23.40    3.60
  -1  -5   7   17.00    4.50
  -1  -5   7   19.40    5.30
  -1  -5   7   20.40    3.30
  -1  -5   7   19.60    3.30
   0   5  -7 1074.79   25.40
   0  -5   7 1078.29   22.70
   0  -5   7  997.10   29.50
  -1   5  -7  156.08    8.50
   1  -5   7  160.58    7.40
   1  -5   7  150.48    9.00
  -2   5  -7  162.98    8.70
  -2   5  -7  173.68    6.30
   2  -5   7  152.38    9.60
  -3   5  -7    2.90    3.90
  -3   5  -7    0.30    2.30
   3  -5   7    0.30    4.50
   3  -5   7    5.30    4.70
  -4   5  -7    3.80    2.90
   4  -5   7    3.40    5.70
   4  -5   7   -6.00    4.20
  -5   5  -7  106.79    6.50
  -5   5  -7  117.79    9.80
   5  -5   7  101.59   10.20
  -6   5  -7   42.90    5.60
  -6   5  -7   47.10    8.10
   6  -5   7   32.00    8.40
  -7   5  -7    5.10    6.10
  -7   5  -7  -13.50    8.80
   7  -5   7    1.30    5.70
  -8   5  -7  -14.90   12.20
   8  -5   7   -0.30    7.50
   9   4  -7   14.30   18.10
   8   4  -7   -1.20   12.90
   8   4  -7   28.70   13.20
  -8  -4   7   18.00   11.40
  -8  -4   7   21.30   11.70
   7   4  -7   -0.40    9.30
   7   4  -7    4.70    9.00
   7   4  -7   18.80    9.40
   7   4  -7   17.00   10.30
   7   4  -7   11.80    9.40
  -7  -4   7   18.70    9.20
  -7  -4   7   29.30    9.30
  -7  -4   7   16.40    9.00
   6   4  -7   12.10    6.40
   6   4  -7    8.40    7.20
   6   4  -7   18.10    7.30
   6   4  -7   20.00    7.70
   6   4  -7   34.00    7.30
  -6  -4   7   22.50    7.60
  -6  -4   7    7.00    7.60
  -6  -4   7    5.90    7.00
  -6  -4   7   43.80    8.70
  -6  -4   7   19.40    7.90
   5   4  -7   58.39    8.10
   5   4  -7   43.10    7.90
   5   4  -7   49.40    6.70
   5   4  -7   53.59    7.80
  -5  -4   7   51.89    7.30
  -5  -4   7   42.40    7.10
  -5  -4   7   51.69    7.00
  -5  -4   7   46.20    7.30
  -5  -4   7   50.09    6.80
   4   4  -7  120.89    7.70
   4   4  -7   82.39    8.90
   4   4  -7  110.79    8.40
   4   4  -7  100.49    8.70
   4   4  -7   95.69    7.50
  -4  -4   7  113.29    7.80
  -4  -4   7   99.59    7.70
  -4  -4   7  101.99    8.20
   3   4  -7  115.59    7.20
   3   4  -7  116.89    6.90
   3   4  -7   99.89    8.00
   3   4  -7  118.69    6.90
   3   4  -7  113.09    7.20
   3   4  -7  129.89    7.70
  -3  -4   7  113.09    7.70
  -3  -4   7  130.49    7.50
  -3  -4   7  117.39    7.10
  -3  -4   7  114.59    6.90
   2   4  -7   40.50    4.70
   2   4  -7   32.90    4.30
   2   4  -7   40.50    4.90
   2   4  -7   40.40    5.60
   2   4  -7   48.60    5.20
   2   4  -7   43.50    4.60
  -2  -4   7   36.90    3.90
  -2  -4   7   45.60    4.80
  -2  -4   7   45.00    5.70
  -2  -4   7   41.20    6.10
  -2  -4   7   38.70    4.60
  -2  -4   7   45.70    5.40
   1   4  -7   17.60    3.00
   1   4  -7   15.00    2.80
   1   4  -7   26.70    4.20
   1   4  -7   21.30    3.20
   1   4  -7   19.10    3.20
  -1  -4   7   18.20    3.60
  -1  -4   7   23.80    3.50
  -1  -4   7   16.60    3.00
  -1  -4   7   20.90    3.20
  -1  -4   7   20.80    4.60
  -1  -4   7   22.50    5.10
  -1  -4   7   19.30    3.20
   0   4  -7  201.58    6.50
   0   4  -7  210.48    8.60
   0  -4   7  215.38    7.30
   0  -4   7  202.28    9.70
  -1   4  -7  545.75   15.00
   1  -4   7  538.05   13.90
   1  -4   7  526.15   16.50
  -2   4  -7 1041.30   22.30
  -2   4  -7 1050.69   24.20
   2  -4   7 1007.00   26.00
   2  -4   7 1033.10   23.40
   2  -4   7 1020.60   26.60
  -3   4  -7   28.40    3.80
  -3   4  -7   31.80    4.50
   3  -4   7   34.00    6.50
   3  -4   7   21.80    5.50
   3  -4   7   28.70    4.90
  -4   4  -7    0.40    3.60
  -4   4  -7    0.50    2.60
   4  -4   7   -0.30    4.80
  -5   4  -7    4.70    4.20
  -5   4  -7    1.50    3.10
   5  -4   7   -1.50    4.50
  -6   4  -7   -3.80    4.10
  -6   4  -7    7.60    7.50
   6  -4   7   -1.50    5.60
  -7   4  -7   54.89    6.60
   7  -4   7   66.19   10.60
  -8   4  -7   27.70    7.10
   8  -4   7   35.00   10.50
   9  -4   7    1.50    9.40
   9   3  -7    3.30   19.00
   8   3  -7   -1.70   12.70
   8   3  -7    0.10   12.50
   8   3  -7  -26.30   11.40
  -8  -3   7  -17.40   11.30
  -8  -3   7   -7.50   10.60
   7   3  -7   23.70    9.40
   7   3  -7   24.60    9.20
   7   3  -7   23.80    9.20
   7   3  -7   38.00   10.10
  -7  -3   7    9.80    9.70
  -7  -3   7   23.70    9.20
  -7  -3   7   42.40    9.20
   6   3  -7    4.90    7.20
   6   3  -7    2.20    8.30
   6   3  -7   -0.70    6.30
   6   3  -7   17.80    7.90
   6   3  -7   21.90    7.40
   6   3  -7    2.50    6.90
  -6  -3   7   13.90    7.50
  -6  -3   7   -8.80    7.10
  -6  -3   7    3.00    6.80
  -6  -3   7    5.10    6.20
  -6  -3   7    8.80    6.80
   5   3  -7   15.10    6.70
   5   3  -7   31.00    7.00
   5   3  -7   26.30    5.60
   5   3  -7   25.00    6.70
   5   3  -7   33.70    5.80
   5   3  -7   28.70    6.20
  -5  -3   7   30.90    5.90
  -5  -3   7   26.60    6.20
  -5  -3   7   29.10    6.40
  -5  -3   7   28.60    7.50
   4   3  -7  109.09    8.40
   4   3  -7  123.59    7.70
   4   3  -7  111.19    8.40
   4   3  -7  108.69    7.80
   4   3  -7  115.39   12.30
   4   3  -7  111.49    8.90
  -4  -3   7  127.89    8.40
  -4  -3   7  122.19    8.10
  -4  -3   7  110.19    7.60
   3   3  -7  169.98    7.90
   3   3  -7  173.68    8.00
   3   3  -7  163.58    7.70
   3   3  -7  182.38    8.80
   3   3  -7  154.08    9.00
  -3  -3   7  175.98    8.40
  -3  -3   7  164.88    8.30
  -3  -3   7  177.78    8.00
  -3  -3   7  172.78    9.00
  -3  -3   7  173.08    6.00
  -3  -3   7  183.08    8.20
  -3  -3   7  169.28    8.50
   2   3  -7   15.80    3.30
   2   3  -7   11.20    3.00
   2   3  -7   21.70    4.40
   2   3  -7   16.90    3.30
   2   3  -7   12.30    3.60
  -2  -3   7    8.00    4.00
  -2  -3   7   15.40    3.30
  -2  -3   7   18.40    3.70
  -2  -3   7   12.70    3.70
  -2  -3   7   17.80    3.10
  -2  -3   7   13.00    3.50
   1   3  -7  681.63   17.50
   1   3  -7  720.73   15.90
   1   3  -7  691.83   15.70
   1   3  -7  690.73   16.20
  -1  -3   7  693.23   16.00
  -1  -3   7  678.03   15.90
  -1  -3   7  686.23   15.30
  -1  -3   7  691.73   15.80
  -1  -3   7  678.13   18.60
  -1  -3   7  683.93   15.60
  -1  -3   7  666.63   17.70
   0   3  -7  385.16    9.80
   0   3  -7  386.86    9.40
   0   3  -7  379.76   11.40
   0   3  -7  380.26    9.70
   0   3  -7  375.06    9.40
   0  -3   7  369.16   10.00
   0  -3   7  377.96   12.70
   0  -3   7  392.06    9.40
   0  -3   7  386.26   12.00
  -1   3  -7  124.29    6.10
   1  -3   7  128.09    5.80
   1  -3   7  110.49    7.10
  -2   3  -7 1714.93   34.70
   2  -3   7 1647.34   36.60
   2  -3   7 1654.93   37.40
   2  -3   7 1675.33   34.50
  -3   3  -7 1092.29   23.50
  -3   3  -7 1094.19   23.80
   3  -3   7 1009.90   26.50
   3  -3   7 1027.80   26.30
   3  -3   7 1027.80   24.10
  -4   3  -7  395.36   11.80
  -4   3  -7  391.76   11.50
   4  -3   7  382.06   12.50
   4  -3   7  358.86   14.10
  -5   3  -7    6.10    3.20
  -5   3  -7    1.90    3.00
   5  -3   7    0.60    3.70
   5  -3   7   -2.00    4.80
  -6   3  -7   10.80    4.30
  -6   3  -7   17.20    5.00
   6  -3   7   19.30    6.80
  -7   3  -7   56.29    7.80
   7  -3   7   41.00    9.00
  -8   3  -7   43.40    6.70
   8  -3   7   52.19   10.00
  -9   3  -7    1.50    8.10
   9  -3   7   14.00    9.80
   9   2  -7   -0.20    9.00
   8   2  -7   36.40   13.50
   8   2  -7    2.00   13.90
  -8  -2   7   -2.10   11.80
  -8  -2   7   16.80   12.70
   7   2  -7   28.40    8.80
   7   2  -7   31.70   10.70
   7   2  -7   33.60   10.70
  -7  -2   7    7.70   13.40
  -7  -2   7   34.20    9.60
  -7  -2   7   10.70    9.40
   6   2  -7   23.80    6.70
   6   2  -7   32.90    8.60
   6   2  -7   20.40    7.00
   6   2  -7   23.10    7.70
   6   2  -7   20.30    8.50
  -6  -2   7   20.00    7.50
  -6  -2   7   16.50    8.10
  -6  -2   7   31.30    7.60
  -6  -2   7   25.80    8.20
  -6  -2   7   11.40    6.80
   5   2  -7    4.30    5.90
   5   2  -7   20.30    5.70
   5   2  -7    2.70    5.20
   5   2  -7    7.20    6.50
   5   2  -7   -0.10    4.60
  -5  -2   7    1.60    5.60
  -5  -2   7    9.20    5.70
  -5  -2   7   12.10    5.60
  -5  -2   7    9.40    5.90
  -5  -2   7   16.90    6.00
   4   2  -7   14.70    5.50
   4   2  -7   12.60    3.90
   4   2  -7   17.30    4.30
   4   2  -7   14.70    4.80
  -4  -2   7   18.60    4.90
  -4  -2   7   13.10    3.90
  -4  -2   7    8.20    4.60
  -4  -2   7   14.80    4.40
   3   2  -7   85.79    6.10
   3   2  -7   73.49    6.00
   3   2  -7   76.29    7.10
   3   2  -7   78.49    5.80
   3   2  -7   76.09    6.50
   3   2  -7   72.89    7.10
  -3  -2   7   90.49    7.00
  -3  -2   7   86.49    6.30
  -3  -2   7   81.99    7.10
  -3  -2   7   66.89    5.70
  -3  -2   7   70.99    6.10
   2   2  -7  869.71   19.60
   2   2  -7  857.11   20.40
   2   2  -7  840.62   21.10
   2   2  -7  847.72   19.80
   2   2  -7  867.11   20.20
   2   2  -7  871.51   19.60
  -2  -2   7  870.81   19.60
  -2  -2   7  846.92   20.00
  -2  -2   7  855.91   22.40
  -2  -2   7  852.01   19.90
  -2  -2   7  855.21   20.10
  -2  -2   7  814.72   20.70
   1   2  -7    4.50    2.40
   1   2  -7    5.30    2.70
   1   2  -7    9.00    2.50
   1   2  -7    2.10    2.40
   1   2  -7    7.80    2.40
  -1  -2   7    7.50    2.90
  -1  -2   7    4.00    2.70
  -1  -2   7    4.60    2.50
  -1  -2   7    4.30    2.80
  -1  -2   7    7.80    2.50
  -1  -2   7    3.90    2.30
  -1  -2   7    7.80    2.60
   0   2  -7  135.19    5.50
   0   2  -7  125.99    5.90
   0   2  -7  128.09    5.30
   0   2  -7  122.79    4.80
   0   2  -7  124.89    4.80
   0  -2   7  130.49    5.20
   0  -2   7  135.69    6.30
   0  -2   7  130.49    5.20
   0  -2   7  126.89    5.00
   0  -2   7  135.39    4.90
   0  -2   7  117.09    6.70
   0  -2   7  124.69    5.30
  -1   2  -7   23.90    3.00
   1  -2   7   22.70    3.10
   1  -2   7   21.40    3.90
   1  -2   7   25.00    3.40
  -2   2  -7  594.44   14.10
   2  -2   7  584.44   15.80
   2  -2   7  548.05   16.40
   2  -2   7  593.94   14.60
  -3   2  -7 1378.96   29.40
  -3   2  -7 1357.66   28.30
   3  -2   7 1378.06   29.50
   3  -2   7 1355.26   31.80
   3  -2   7 1373.66   31.20
  -4   2  -7  106.89    6.20
  -4   2  -7   95.99    5.40
   4  -2   7  106.49    6.40
   4  -2   7  100.89    8.10
  -5   2  -7  195.68    8.40
  -5   2  -7  198.98    7.70
   5  -2   7  196.58    8.90
   5  -2   7  175.98   10.60
  -6   2  -7   21.80    3.90
  -6   2  -7    9.80    4.20
   6  -2   7   18.10    6.20
   6  -2   7   17.90    5.00
  -7   2  -7    0.30    4.30
   7  -2   7    6.60    6.50
  -8   2  -7    6.70    5.30
  -8   2  -7   21.20    7.40
   8  -2   7   21.90    8.70
  -9   2  -7    3.40    7.20
   9  -2   7   14.90    7.60
  10  -2   7   -6.20    9.20
   9   1  -7   19.20   11.90
  -9  -1   7   32.20   17.70
   8   1  -7    9.60    8.80
   8   1  -7   23.00   15.40
   8   1  -7    9.80   14.70
  -8  -1   7   54.39   13.70
   7   1  -7    7.90    9.80
   7   1  -7   11.10    9.70
   7   1  -7   18.40   11.10
  -7  -1   7   -1.00    9.40
  -7  -1   7    1.90    9.00
  -7  -1   7    1.00    9.50
   6   1  -7   20.60    7.50
   6   1  -7   13.90    8.70
   6   1  -7    0.70    6.90
   6   1  -7    2.40    6.70
   6   1  -7   23.90    7.70
  -6  -1   7   16.90    7.20
  -6  -1   7   21.20    8.20
  -6  -1   7   14.40    8.00
  -6  -1   7   21.30    7.40
  -6  -1   7   21.10    7.80
   5   1  -7   24.50    6.60
   5   1  -7   22.70    7.20
   5   1  -7   17.50    5.20
   5   1  -7   27.50    7.10
   5   1  -7   16.60    5.90
  -5  -1   7   22.20    6.60
  -5  -1   7   22.50    6.70
  -5  -1   7   14.50    5.90
  -5  -1   7   21.50    7.90
  -5  -1   7   25.60    6.80
  -5  -1   7   17.00    4.40
   4   1  -7    9.10    4.40
   4   1  -7   -1.50    4.50
   4   1  -7    3.60    5.00
   4   1  -7    3.10    5.80
   4   1  -7    3.00    4.50
  -4  -1   7   11.80    4.50
  -4  -1   7   -4.10    4.00
  -4  -1   7    0.90    4.50
  -4  -1   7    4.60    3.30
  -4  -1   7   -0.50    4.10
   3   1  -7   99.39    6.60
   3   1  -7   78.19    7.60
   3   1  -7   98.19    6.60
   3   1  -7   96.79    7.20
   3   1  -7   90.19    6.40
   3   1  -7   86.19    7.40
  -3  -1   7   98.79    7.30
  -3  -1   7   89.89    6.60
  -3  -1   7   87.39    7.10
  -3  -1   7   86.29    6.70
  -3  -1   7   87.49    5.70
   2   1  -7  238.58   11.30
   2   1  -7  266.97    8.90
   2   1  -7  266.57   10.30
   2   1  -7  255.37    8.90
   2   1  -7  270.57   10.00
   2   1  -7  290.17    9.70
  -2  -1   7  250.37    9.80
  -2  -1   7  272.97    9.80
  -2  -1   7  274.57    9.50
  -2  -1   7  258.07    9.60
  -2  -1   7  261.37    9.30
  -2  -1   7  260.27   10.30
   1   1  -7  365.86   10.70
   1   1  -7  363.66   10.20
   1   1  -7  362.56   11.40
   1   1  -7  369.16   10.10
   1   1  -7  363.46   11.00
  -1  -1   7  363.36   10.30
  -1  -1   7  371.96   10.60
  -1  -1   7  360.96   10.70
  -1  -1   7  371.76   11.30
  -1  -1   7  367.66   11.10
  -1  -1   7  385.36   10.90
   0   1  -7   42.20    3.70
   0   1  -7   35.20    3.80
   0   1  -7   40.60    4.10
   0   1  -7   37.50    3.40
   0   1  -7   34.90    3.20
   0  -1   7   34.60    3.30
   0  -1   7   35.00    3.70
   0  -1   7   40.90    3.60
   0  -1   7   35.10    3.80
   0  -1   7   33.80    4.00
   0  -1   7   36.60    3.80
   0  -1   7   38.10    3.60
  -1   1  -7   67.69    4.00
  -1   1  -7   65.99    4.00
  -1   1  -7   69.69    3.90
  -1   1  -7   61.19    3.20
  -1   1  -7   59.89    3.40
   1  -1   7   68.99    4.30
   1  -1   7   62.79    4.80
   1  -1   7   63.39    3.40
   1  -1   7   70.99    3.70
   1  -1   7   71.09    4.20
   1  -1   7   50.19    3.60
  -2   1  -7   43.90    3.20
   2  -1   7   41.40    4.50
   2  -1   7   42.80    3.90
   2  -1   7   50.89    4.40
  -3   1  -7  861.01   17.80
   3  -1   7  846.62   20.50
   3  -1   7  799.52   21.10
   3  -1   7  840.92   19.50
  -4   1  -7  508.35   14.00
  -4   1  -7  502.75   11.70
   4  -1   7  477.45   15.00
   4  -1   7  481.85   13.80
  -5   1  -7 1068.99   24.80
  -5   1  -7 1063.39   22.00
   5  -1   7 1048.50   26.70
   5  -1   7  999.70   24.60
  -6   1  -7   36.90    5.30
  -6   1  -7   45.40    4.40
   6  -1   7   64.59    8.60
   6  -1   7   46.00    6.20
  -7   1  -7   -4.50    4.10
   7  -1   7    1.00    4.40
   7  -1   7    4.90    6.00
  -8   1  -7    7.30    5.20
  -8   1  -7   -4.30    5.70
   8  -1   7    5.90    6.50
  -9   1  -7   -0.80    6.80
   9  -1   7    5.90    7.60
  10  -1   7    0.00    9.00
   8   0  -7   13.70   11.50
   8   0  -7  -28.80   18.70
  -8   0   7   35.00   14.50
   7   0  -7    7.80   11.20
   7   0  -7   -0.90    8.40
   7   0  -7    2.80   10.10
   7   0  -7    9.00   11.90
  -7   0   7   -6.70    7.10
  -7   0   7    6.60   10.60
  -7   0   7   -0.90    9.70
  -7   0   7   10.00   10.80
   6   0  -7   40.90    8.50
   6   0  -7   17.30    8.00
   6   0  -7   28.50   10.00
   6   0  -7    7.20    8.00
   6   0  -7   19.20    6.40
  -6   0   7   34.10    9.10
  -6   0   7   39.30    8.20
  -6   0   7   19.20    7.50
  -6   0   7   32.20    6.20
   5   0  -7    6.20    6.60
   5   0  -7    1.00    5.50
   5   0  -7   14.40    6.90
   5   0  -7   13.60    5.40
   5   0  -7    3.00    6.10
  -5   0   7   13.60    4.30
  -5   0   7   22.90    6.70
  -5   0   7   10.60    6.90
  -5   0   7   12.00    6.40
  -5   0   7    8.70    6.20
  -5   0   7   13.10    7.00
   4   0  -7   26.00    6.50
   4   0  -7   23.50    5.20
   4   0  -7   20.10    5.10
   4   0  -7   19.10    5.40
  -4   0   7   25.90    5.70
  -4   0   7   29.30    6.10
  -4   0   7   37.30    6.90
  -4   0   7   29.50    4.30
  -4   0   7   21.30    5.40
   3   0  -7   14.20    4.90
   3   0  -7   13.90    3.60
   3   0  -7    3.40    4.10
   3   0  -7   15.90    4.50
   3   0  -7   12.00    3.70
  -3   0   7    9.30    4.00
  -3   0   7   11.50    4.20
  -3   0   7   14.70    4.40
  -3   0   7   13.10    4.60
  -3   0   7   15.10    4.70
  -3   0   7   18.60    3.70
   2   0  -7    7.00    2.80
   2   0  -7    4.70    3.00
   2   0  -7    5.00    3.30
   2   0  -7    6.20    3.00
   2   0  -7    5.90    3.50
   2   0  -7    3.60    3.90
  -2   0   7    9.40    2.80
  -2   0   7    5.20    3.40
  -2   0   7    7.40    3.20
  -2   0   7    5.50    3.50
  -2   0   7    8.40    3.50
   1   0  -7    2.90    2.80
   1   0  -7    7.70    3.20
   1   0  -7    8.90    3.20
   1   0  -7    1.10    2.20
   1   0  -7    4.00    2.50
  -1   0   7    7.00    3.00
  -1   0   7   -1.30    2.50
  -1   0   7    2.40    2.80
  -1   0   7    2.30    2.40
  -1   0   7    7.00    2.70
  -1   0   7    0.70    2.60
   0   0  -7   33.20    4.00
   0   0  -7   35.30    3.50
   0   0  -7   32.60    3.90
   0   0  -7   35.50    3.50
   0   0  -7   32.10    3.90
   0   0   7   30.90    4.00
   0   0   7   28.50    3.70
   0   0   7   31.80    3.70
   0   0   7   33.80    3.90
   0   0   7   31.70    3.90
  -1   0  -7  214.38    6.70
  -1   0  -7  203.98    6.50
  -1   0  -7  211.98    7.00
  -1   0  -7  206.88    6.90
  -1   0  -7  208.08    7.20
   1   0   7  199.58    6.90
   1   0   7  206.78    6.80
   1   0   7  199.78    6.90
   1   0   7  217.38    8.20
   1   0   7  208.18    6.70
  -2   0  -7   14.10    2.20
  -2   0  -7   17.10    2.30
  -2   0  -7   21.80    3.00
  -2   0  -7   16.30    2.40
  -2   0  -7   16.40    2.50
   2   0   7   13.30    3.10
   2   0   7   16.20    2.40
   2   0   7   15.70    3.50
   2   0   7   17.00    2.50
   2   0   7   18.80    3.20
   3   0   7  470.05   12.70
   3   0   7  469.15   12.80
  -4   0  -7   -2.20    2.60
   4   0   7    6.60    3.70
   4   0   7    3.30    3.10
  -5   0  -7  118.39    7.10
   5   0   7  124.89    8.20
   5   0   7  120.39    6.60
  -6   0  -7   24.40    4.50
   6   0   7   32.50    6.30
   6   0   7   26.20    5.10
  -7   0  -7    9.10    4.50
   7   0   7   20.00    5.20
   7   0   7    8.00    5.20
  -8   0  -7   16.10    5.50
   8   0   7   -0.60    6.70
   8   0   7   -1.30    5.70
  -9   0  -7   -7.20    6.00
   9   0   7    2.70    7.80
 -10   0  -7   20.00    9.20
  10   0   7   16.80    8.10
  11   0   7   -1.30    9.80
   8  -1  -7   10.80   12.90
  -8   1   7    9.50   26.00
   7  -1  -7   32.70   13.30
   7  -1  -7   48.70   11.20
   7  -1  -7   55.09   13.90
  -7   1   7   18.60   11.90
  -7   1   7   37.50   11.50
  -7   1   7   16.60   12.10
   6  -1  -7  -10.80   10.10
   6  -1  -7   15.10    7.30
   6  -1  -7    3.10    8.00
   6  -1  -7   -4.40    9.50
  -6   1   7   14.20    8.70
  -6   1   7    4.10   11.70
  -6   1   7   -4.20    9.00
  -6   1   7    7.00    8.60
   5  -1  -7   19.70    6.50
   5  -1  -7   30.30    7.40
   5  -1  -7   36.60    8.70
   5  -1  -7   28.50    7.90
   5  -1  -7   14.30    6.20
   5  -1  -7   35.60    6.90
  -5   1   7   29.70    8.10
  -5   1   7   23.10    7.30
  -5   1   7   29.00    7.90
  -5   1   7   35.90    7.20
  -5   1   7   27.40    8.20
   4  -1  -7   16.60    8.00
   4  -1  -7   11.60    4.90
   4  -1  -7    0.90    4.90
   4  -1  -7   11.10    6.40
   4  -1  -7    3.10    5.50
  -4   1   7   13.60    5.60
  -4   1   7   18.80    5.90
  -4   1   7   13.70    3.60
  -4   1   7    8.60    5.90
  -4   1   7    9.80    5.90
  -4   1   7   11.50    5.60
   3  -1  -7    7.30    5.30
   3  -1  -7    9.30    3.90
   3  -1  -7   18.00    4.80
   3  -1  -7   16.80    4.10
   3  -1  -7   12.90    5.00
  -3   1   7   16.30    5.00
  -3   1   7   16.80    5.00
  -3   1   7   11.10    4.40
  -3   1   7   18.30    5.00
  -3   1   7   17.00    3.40
  -3   1   7   18.00    4.90
   2  -1  -7    7.60    3.90
   2  -1  -7    6.10    3.60
   2  -1  -7    9.50    3.40
   2  -1  -7    9.80    3.70
   2  -1  -7    7.10    3.30
  -2   1   7    5.10    3.90
  -2   1   7    4.70    3.80
  -2   1   7   12.80    4.10
  -2   1   7    9.80    2.80
  -2   1   7    5.60    4.40
  -2   1   7    4.30    6.00
   1  -1  -7   44.50    5.40
   1  -1  -7   39.10    4.50
   1  -1  -7   50.19    4.70
   1  -1  -7   56.09    5.60
  -1   1   7   54.39    4.10
  -1   1   7   51.79    5.00
  -1   1   7   39.80    4.90
  -1   1   7   50.29    5.60
   0  -1  -7   66.99    5.20
   0  -1  -7   63.99    4.50
   0  -1  -7   66.59    5.40
   0  -1  -7   67.39    4.60
   0   1   7   60.69    4.40
   0   1   7   58.59    5.10
   0   1   7   64.09    5.10
   0   1   7   58.49    5.10
   0   1   7   63.29    4.80
   0   1   7   63.99    4.40
  -1  -1  -7   38.20    3.70
  -1  -1  -7   40.00    3.70
  -1  -1  -7   38.90    4.10
  -1  -1  -7   35.80    4.10
   1   1   7   35.40    4.20
   1   1   7   35.60    4.00
   1   1   7   43.40    3.40
   1   1   7   37.10    3.70
   1   1   7   37.00    3.80
  -2  -1  -7   13.10    2.60
  -2  -1  -7   13.70    2.50
  -2  -1  -7   14.90    2.80
  -2  -1  -7   10.40    2.50
   2   1   7   13.90    2.00
   2   1   7   12.60    2.40
   2   1   7   13.30    2.80
   2   1   7   13.40    2.90
   2   1   7   16.30    2.50
   2   1   7   17.20    3.20
  -3  -1  -7 1885.41   37.20
  -3  -1  -7 1894.21   37.20
  -3  -1  -7 1912.01   37.30
  -3  -1  -7 1905.01   37.30
   3   1   7 1897.21   36.80
   3   1   7 1969.80   37.00
   3   1   7 1886.41   37.40
   3   1   7 1951.20   37.30
   3   1   7 1945.01   37.80
  -4  -1  -7  639.64   14.80
  -4  -1  -7  672.33   17.50
  -4  -1  -7  649.74   14.80
  -4  -1  -7  661.33   14.60
  -4  -1  -7  656.93   14.50
   4   1   7  673.03   14.90
   4   1   7  659.43   16.60
   4   1   7  630.94   16.30
  -5  -1  -7    2.90    2.10
  -5  -1  -7    1.20    2.30
  -5  -1  -7    1.20    2.60
  -5  -1  -7    4.10    2.30
   5   1   7    7.70    4.10
   5   1   7    2.40    3.20
   5   1   7    1.50    2.70
  -6  -1  -7  116.59    5.60
  -6  -1  -7   93.99    7.70
  -6  -1  -7  104.99    5.40
  -6  -1  -7  109.49    5.10
  -6  -1  -7  100.19    5.60
   6   1   7  114.49    8.20
   6   1   7  111.69    6.70
  -7  -1  -7  178.28    7.60
  -7  -1  -7  182.08   10.10
  -7  -1  -7  160.68    7.00
  -7  -1  -7  176.78    7.00
  -7  -1  -7  182.58    7.60
   7   1   7  176.68   10.70
   7   1   7  174.28    8.90
  -8  -1  -7   96.49    6.70
  -8  -1  -7   85.59    6.80
  -8  -1  -7   84.09    7.00
  -8  -1  -7   93.29    7.00
  -8  -1  -7  106.09    9.10
   8   1   7   84.09    9.60
   8   1   7   89.49    8.10
  -9  -1  -7   -2.80    5.10
  -9  -1  -7    7.40    5.00
  -9  -1  -7   13.50    5.30
  -9  -1  -7   -4.30    5.80
  -9  -1  -7   14.50    5.50
   9   1   7    2.40    5.00
   9   1   7    2.40    5.70
 -10  -1  -7    2.70    6.70
 -10  -1  -7    3.60    8.40
 -10  -1  -7  -10.10    6.80
  10   1   7   -5.60    7.20
  11   1   7   -1.70    8.00
   8  -2  -7   11.90   13.00
   7  -2  -7   23.00   19.40
   7  -2  -7   35.90   15.30
  -7   2   7   -6.10   12.10
   6  -2  -7   33.60   11.00
   6  -2  -7   12.10    9.00
   6  -2  -7  -15.50   10.70
   6  -2  -7   19.80    9.80
  -6   2   7   19.40    9.90
  -6   2   7   -1.80    9.10
  -6   2   7  -18.00   10.00
   5  -2  -7   -1.50    6.80
   5  -2  -7   -3.80    7.30
   5  -2  -7   -6.80    8.90
   5  -2  -7    4.70    6.80
   5  -2  -7   -6.60    6.80
   5  -2  -7   -3.10    8.10
  -5   2   7    1.40    8.00
  -5   2   7   13.80    8.30
  -5   2   7    7.20    7.10
  -5   2   7    5.10    7.20
  -5   2   7    9.20    7.50
   4  -2  -7    9.50    6.60
   4  -2  -7    5.00    5.30
   4  -2  -7   10.10    6.60
   4  -2  -7    3.60    5.90
   4  -2  -7    7.30    5.50
   4  -2  -7   13.80    5.70
  -4   2   7   -2.50    5.20
  -4   2   7   -1.40    6.30
  -4   2   7    9.00    6.20
  -4   2   7    4.90    6.10
  -4   2   7    5.60    6.10
   3  -2  -7  117.49    7.40
   3  -2  -7  109.79    8.60
   3  -2  -7   98.89    8.70
   3  -2  -7  104.79    9.10
  -3   2   7  125.89    9.30
  -3   2   7  104.39    9.10
  -3   2   7  121.89    9.30
  -3   2   7  101.79    9.30
   2  -2  -7    2.80    3.30
   2  -2  -7    2.20    4.50
   2  -2  -7    0.80    3.30
   2  -2  -7   11.20    4.20
  -2   2   7    1.50    3.90
  -2   2   7    6.00    4.40
  -2   2   7    3.70    4.20
   1  -2  -7   14.90    3.90
   1  -2  -7   11.00    3.70
   1  -2  -7   10.60    3.50
   1  -2  -7   13.60    4.00
  -1   2   7   14.00    4.10
  -1   2   7    3.50    3.50
  -1   2   7   12.30    4.10
  -1   2   7   10.90    3.90
  -1   2   7   10.90    2.60
  -1   2   7   12.90    3.70
   0  -2  -7  267.67   10.10
   0  -2  -7  269.17    9.40
   0  -2  -7  273.27    9.50
   0  -2  -7  275.77   10.40
   0   2   7  282.67    9.20
   0   2   7  262.97   10.00
   0   2   7  279.07    9.90
   0   2   7  266.07    9.60
   0   2   7  272.17   10.10
  -1  -2  -7  557.24   15.00
  -1  -2  -7  559.14   14.40
  -1  -2  -7  562.44   14.40
  -1  -2  -7  536.95   14.60
   1   2   7  559.04   14.90
   1   2   7  536.05   14.40
   1   2   7  534.55   14.60
   1   2   7  567.94   13.30
   1   2   7  565.24   14.40
  -2  -2  -7  443.96   12.30
  -2  -2  -7  464.35   12.20
  -2  -2  -7  454.15   12.10
  -2  -2  -7  437.76   12.40
   2   2   7  456.55   10.30
   2   2   7  438.46   12.30
   2   2   7  451.45   12.30
   2   2   7  448.36   12.10
  -3  -2  -7  236.18    8.00
  -3  -2  -7  231.48    7.90
  -3  -2  -7  238.08    8.10
  -3  -2  -7  231.88    7.90
   3   2   7  239.78    8.40
   3   2   7  243.98    7.80
   3   2   7  229.18    7.80
   3   2   7  222.68    8.00
   3   2   7  229.58    8.00
   3   2   7  241.08    8.00
  -4  -2  -7  522.35   13.30
  -4  -2  -7  511.85   13.10
  -4  -2  -7  519.95   13.00
  -4  -2  -7  519.35   13.00
   4   2   7  532.35   13.60
   4   2   7  513.95   13.40
   4   2   7  490.55   13.90
   4   2   7  492.15   13.80
   4   2   7  513.75   12.90
   4   2   7  540.35   12.70
  -5  -2  -7  187.08    7.20
  -5  -2  -7  193.78    7.40
  -5  -2  -7  196.98    7.00
  -5  -2  -7  192.48    7.30
  -5  -2  -7  193.78    9.00
   5   2   7  181.48    6.90
   5   2   7  209.98    6.90
   5   2   7  184.88    8.00
   5   2   7  189.38    8.00
   5   2   7  199.38    8.70
   5   2   7  204.18    7.50
  -6  -2  -7   29.00    3.90
  -6  -2  -7   26.70    3.90
  -6  -2  -7   26.20    4.10
  -6  -2  -7   22.50    4.40
  -6  -2  -7   26.60    3.70
   6   2   7   25.10    4.50
   6   2   7   28.80    4.80
   6   2   7   36.30    4.50
   6   2   7   33.20    5.90
   6   2   7   32.00    3.80
   6   2   7   29.10    3.80
  -7  -2  -7  410.86   14.80
  -7  -2  -7  395.76   11.90
  -7  -2  -7  428.16   12.60
  -7  -2  -7  430.26   12.60
  -7  -2  -7  436.76   12.00
   7   2   7  409.56   11.40
   7   2   7  413.76   13.80
   7   2   7  410.96   11.80
   7   2   7  436.76   15.70
   7   2   7  434.06   13.10
  -8  -2  -7   69.79    6.80
  -8  -2  -7   63.09    8.70
  -8  -2  -7   51.29    6.20
  -8  -2  -7   63.19    7.30
  -8  -2  -7   62.09    7.00
   8   2   7   61.49    6.80
   8   2   7   52.59    8.70
   8   2   7   63.09    6.60
   8   2   7   67.29    7.20
   8   2   7   56.29    7.70
  -9  -2  -7    3.10    4.90
  -9  -2  -7    3.70    5.70
  -9  -2  -7   -3.20    4.90
  -9  -2  -7  -11.50    5.40
  -9  -2  -7    1.30    5.40
   9   2   7    3.70    5.70
   9   2   7    3.90    7.90
   9   2   7   -1.50    5.30
   9   2   7   -2.50   11.60
   9   2   7    5.50    7.10
   9   2   7    1.50    5.50
 -10  -2  -7   -1.00    6.60
 -10  -2  -7  -15.70    7.70
 -10  -2  -7    0.70    6.50
  10   2   7   -6.60    7.50
 -11  -2  -7  -11.60   10.60
  11   2   7   -1.40    7.80
   7  -3  -7   -5.50   12.40
   6  -3  -7   -3.10   12.50
   6  -3  -7   10.30   12.70
   6  -3  -7   26.90   10.80
  -6   3   7    0.80   10.90
  -6   3   7   20.50   11.60
  -6   3   7   -1.50   11.60
   5  -3  -7    1.80   15.50
   5  -3  -7    9.90    9.10
   5  -3  -7   11.00    7.80
   5  -3  -7   11.60    9.00
  -5   3   7   15.00    9.40
  -5   3   7   20.10    9.30
  -5   3   7   13.20    8.20
  -5   3   7   18.70    9.50
   4  -3  -7    0.60    6.00
   4  -3  -7   -3.60    7.50
   4  -3  -7   20.10    6.70
   4  -3  -7    8.80    6.30
   4  -3  -7   -0.50    7.60
   4  -3  -7    7.60    6.60
  -4   3   7    1.20    6.90
  -4   3   7   -0.30    6.10
  -4   3   7    4.80    7.20
  -4   3   7   -2.00    6.60
  -4   3   7   -4.00    7.00
   3  -3  -7   98.79    9.00
   3  -3  -7   90.79    9.90
   3  -3  -7   86.79    8.90
   3  -3  -7   94.49    7.70
   3  -3  -7   88.49    8.40
   3  -3  -7   76.79   10.60
  -3   3   7   87.09    9.20
  -3   3   7   75.19    9.80
  -3   3   7   89.99   10.10
  -3   3   7  112.09    9.90
  -3   3   7  115.19   10.60
   2  -3  -7  179.98    9.40
   2  -3  -7  174.48    9.60
   2  -3  -7  155.68   11.10
   2  -3  -7  167.18   10.40
  -2   3   7  175.28    9.90
  -2   3   7  161.48    9.90
  -2   3   7  154.98   10.00
  -2   3   7  161.78   10.20
  -2   3   7  162.58   10.00
   1  -3  -7   33.20    5.60
   1  -3  -7   33.10    5.00
   1  -3  -7   40.40    6.10
   1  -3  -7   38.80    5.70
  -1   3   7   29.80    5.40
  -1   3   7   36.30    6.00
  -1   3   7   38.70    6.20
   0  -3  -7    4.00    3.60
   0  -3  -7   -1.20    3.20
   0  -3  -7    3.90    4.00
   0  -3  -7    3.30    3.30
   0   3   7    3.10    3.80
   0   3   7    2.60    3.50
   0   3   7   -6.20    3.30
   0   3   7   -0.50    2.90
   0   3   7   -1.40    3.30
  -1  -3  -7  163.88    7.50
  -1  -3  -7  166.08    8.20
  -1  -3  -7  162.78    8.00
  -1  -3  -7  157.08    7.60
   1   3   7  154.48    7.60
   1   3   7  159.38    6.80
   1   3   7  159.98    8.00
   1   3   7  152.28    7.70
  -2  -3  -7  119.69    6.70
  -2  -3  -7  111.29    6.20
  -2  -3  -7  122.59    6.50
  -2  -3  -7  117.49    6.80
   2   3   7  110.39    6.60
   2   3   7  114.99    6.60
   2   3   7  113.29    7.00
   2   3   7  119.39    5.10
   2   3   7  115.49    6.60
  -3  -3  -7  403.36   12.10
  -3  -3  -7  413.06   12.10
  -3  -3  -7  402.46   11.90
  -3  -3  -7  411.76   12.10
   3   3   7  407.46   12.00
   3   3   7  413.06   12.40
   3   3   7  415.86   12.50
  -4  -3  -7 1242.58   27.00
  -4  -3  -7 1258.77   27.10
  -4  -3  -7 1219.78   26.60
  -4  -3  -7 1232.28   26.80
   4   3   7 1229.88   25.60
   4   3   7 1168.58   26.80
   4   3   7 1252.47   27.40
   4   3   7 1253.57   26.70
   4   3   7 1261.17   27.00
  -5  -3  -7  512.95   14.00
  -5  -3  -7  513.95   14.00
  -5  -3  -7  491.95   15.40
  -5  -3  -7  502.55   13.60
  -5  -3  -7  500.05   13.60
   5   3   7  505.55   13.30
   5   3   7  516.05   13.40
   5   3   7  492.25   14.10
   5   3   7  509.65   14.00
   5   3   7  519.55   14.70
   5   3   7  523.25   14.10
  -6  -3  -7  497.25   16.10
  -6  -3  -7  507.35   13.80
  -6  -3  -7  515.95   14.40
  -6  -3  -7  523.15   14.40
  -6  -3  -7  493.95   13.80
   6   3   7  521.05   13.40
   6   3   7  526.35   15.00
   6   3   7  504.85   15.30
   6   3   7  541.35   13.80
   6   3   7  483.05   14.60
  -7  -3  -7   94.69    7.20
  -7  -3  -7   82.79    7.00
  -7  -3  -7   88.39    7.00
  -7  -3  -7   86.49    6.60
  -7  -3  -7   77.99    7.90
   7   3   7   90.19    8.30
   7   3   7   86.89    6.70
   7   3   7   95.29    6.60
   7   3   7   87.29    9.00
   7   3   7   84.79    6.30
   7   3   7   91.19    7.40
  -8  -3  -7    8.80    4.90
  -8  -3  -7   16.50    4.60
  -8  -3  -7   14.30    4.60
  -8  -3  -7    4.70    5.20
  -8  -3  -7   14.70    5.10
   8   3   7   17.90    5.10
   8   3   7   16.40    6.30
   8   3   7   14.20    5.50
   8   3   7   10.70    6.00
   8   3   7   12.80    4.70
   8   3   7   17.30    4.70
  -9  -3  -7    8.80    5.30
  -9  -3  -7    7.40    6.30
  -9  -3  -7    9.70    6.50
  -9  -3  -7    2.20    5.10
   9   3   7    8.20    5.70
   9   3   7   15.90    7.80
   9   3   7   19.20   13.70
   9   3   7   13.70    6.00
   9   3   7   11.70    5.80
   9   3   7   18.20    7.10
 -10  -3  -7   65.29    7.80
 -10  -3  -7   55.59    8.10
 -10  -3  -7   48.60    9.10
  10   3   7   43.20    9.10
  10   3   7   65.09    9.00
  11   3   7   14.20    8.40
  12   3   7   -7.00    9.40
   7  -4  -7    2.70   15.90
   6  -4  -7  -17.00   15.30
   6  -4  -7   -0.20   12.80
  -6   4   7    1.80   13.60
   5  -4  -7    8.70   13.60
   5  -4  -7   27.00   10.30
   5  -4  -7   22.10   11.10
  -5   4   7   19.10   10.50
  -5   4   7   17.70   10.90
  -5   4   7   11.40   11.00
   4  -4  -7   10.80    8.00
   4  -4  -7    5.60    7.30
   4  -4  -7   11.00    9.20
   4  -4  -7   -7.90    8.00
   4  -4  -7   -4.60    8.80
   4  -4  -7    8.60   10.00
  -4   4   7    6.70    8.60
  -4   4   7    1.50    8.10
  -4   4   7   -6.40    8.50
  -4   4   7   12.10    8.20
   3  -4  -7   38.20    6.50
   3  -4  -7   38.00    7.80
   3  -4  -7   40.00    6.70
   3  -4  -7   49.70    7.30
   3  -4  -7   47.60    8.40
   3  -4  -7   38.70    8.50
  -3   4   7   52.99    8.70
  -3   4   7   51.19    9.10
  -3   4   7   52.49    8.90
   2  -4  -7    9.00    5.80
   2  -4  -7   -6.70    5.10
   2  -4  -7    2.20    5.80
   2  -4  -7    0.90    5.10
  -2   4   7   -1.20   10.00
  -2   4   7    5.00    6.00
  -2   4   7   -3.10    5.00
  -2   4   7   -2.30    5.20
   1  -4  -7  187.18    9.80
   1  -4  -7  165.08   10.20
   1  -4  -7  160.38    9.50
   1  -4  -7  154.58   10.80
  -1   4   7  167.88   10.10
  -1   4   7  160.98    9.80
  -1   4   7  157.78   10.00
  -1   4   7  165.58   10.20
  -1   4   7  147.59    9.60
   0  -4  -7  353.96   13.50
   0  -4  -7  315.87   18.10
   0  -4  -7  361.16   13.20
   0  -4  -7  370.76   12.70
   0   4   7  369.86   13.40
   0   4   7  356.56   13.10
   0   4   7  349.77   12.60
   0   4   7  347.87   12.90
   0   4   7  350.06   15.10
  -1  -4  -7   45.80    5.80
  -1  -4  -7   39.00    6.10
  -1  -4  -7   54.99    8.00
  -1  -4  -7   46.60    5.70
  -1  -4  -7   34.70    5.20
   1   4   7   43.90    5.90
   1   4   7   36.00    5.30
   1   4   7   46.00    6.10
   1   4   7   37.10    5.50
  -2  -4  -7 1128.49   26.30
  -2  -4  -7 1103.79   26.50
  -2  -4  -7 1121.89   26.10
  -2  -4  -7 1096.59   26.00
   2   4   7 1125.69   26.40
   2   4   7 1149.58   24.10
   2   4   7 1147.09   26.60
   2   4   7 1121.09   26.10
  -3  -4  -7  853.81   21.20
  -3  -4  -7  845.52   21.20
  -3  -4  -7  857.01   21.10
  -3  -4  -7  859.81   21.10
   3   4   7  840.52   21.00
   3   4   7  867.51   21.60
   3   4   7  860.91   21.20
   3   4   7  838.22   20.80
  -4  -4  -7  451.85   13.60
  -4  -4  -7  449.76   13.70
  -4  -4  -7  450.65   13.30
  -4  -4  -7  454.15   13.60
   4   4   7  448.76   11.50
   4   4   7  453.65   13.50
   4   4   7  461.55   13.80
   4   4   7  459.15   14.30
   4   4   7  439.36   12.80
   4   4   7  440.66   13.20
  -5  -4  -7  143.39    7.70
  -5  -4  -7  145.69    7.70
  -5  -4  -7  144.39    7.80
  -5  -4  -7  120.89    7.40
  -5  -4  -7  126.49    8.30
   5   4   7  125.29    9.10
   5   4   7  134.59    7.50
   5   4   7  134.79    8.60
   5   4   7  138.79    7.00
   5   4   7  137.39    7.10
   5   4   7  142.39    8.20
  -6  -4  -7 1492.95   32.30
  -6  -4  -7 1523.45   33.00
  -6  -4  -7 1516.95   33.00
  -6  -4  -7 1497.05   34.80
  -6  -4  -7 1496.75   32.80
   6   4   7 1529.15   33.40
   6   4   7 1508.55   32.80
   6   4   7 1414.26   32.30
   6   4   7 1492.25   32.10
  -7  -4  -7   67.39    7.00
  -7  -4  -7   71.99    7.00
  -7  -4  -7   75.99    7.50
  -7  -4  -7   65.29    7.40
  -7  -4  -7   68.29    8.10
   7   4   7   64.49    6.10
   7   4   7   63.29    7.20
   7   4   7   58.89    7.30
  -8  -4  -7    5.20    4.90
  -8  -4  -7   15.70    4.90
  -8  -4  -7    6.90    5.40
  -8  -4  -7    4.00    5.00
  -8  -4  -7    5.30    5.10
   8   4   7   12.10    5.00
   8   4   7    5.40    5.60
   8   4   7   10.30    5.90
   8   4   7   12.60    5.40
   8   4   7    4.50    6.60
   8   4   7    1.40    4.40
  -9  -4  -7  177.18   10.50
  -9  -4  -7  185.68   10.30
  -9  -4  -7  174.08   11.90
  -9  -4  -7  181.78   11.30
  -9  -4  -7  189.08   12.60
   9   4   7  185.98   12.90
   9   4   7  195.28   11.70
   9   4   7  173.88   10.20
   9   4   7  170.18   10.30
   9   4   7  181.08   14.10
 -10  -4  -7    2.40    7.80
 -10  -4  -7   -7.20    6.80
 -10  -4  -7   -4.00    6.50
  10   4   7   13.90    9.70
  10   4   7   -7.90    6.60
  10   4   7    2.20    6.00
  11   4   7    6.40    7.30
  11   4   7    6.60    7.50
  12   4   7    8.10    9.70
   5  -5  -7   17.40   13.00
   5  -5  -7   20.90   11.50
  -5   5   7   14.50   11.90
   4  -5  -7   19.40   10.70
   4  -5  -7   16.90   14.00
   4  -5  -7  -10.90   11.60
   4  -5  -7   13.10    9.20
  -4   5   7   18.90    9.20
  -4   5   7   27.20   10.50
  -4   5   7   17.00   10.70
   3  -5  -7    1.90    7.60
   3  -5  -7   24.50    8.40
   3  -5  -7   13.30    8.50
   3  -5  -7   21.70    6.60
   3  -5  -7   -3.40    7.70
  -3   5   7   27.20    8.60
  -3   5   7   13.10    7.40
  -3   5   7   22.30   10.50
   2  -5  -7  105.09   10.70
   2  -5  -7   98.49   10.40
   2  -5  -7  112.89    9.10
   2  -5  -7  115.59   11.90
   2  -5  -7  103.29   11.00
  -2   5   7   99.59   11.20
  -2   5   7  104.19   11.80
  -2   5   7   98.69   11.30
  -2   5   7  104.69   11.60
  -2   5   7  120.69   11.00
   1  -5  -7   22.60    6.60
   1  -5  -7   19.30    6.80
   1  -5  -7   29.10    5.90
   1  -5  -7   19.60    6.10
  -1   5   7   19.40    6.90
  -1   5   7   14.40    5.90
  -1   5   7   12.10    5.90
  -1   5   7   18.90    6.60
   0  -5  -7  383.96   14.10
   0  -5  -7  372.16   14.10
   0  -5  -7  363.46   15.00
   0  -5  -7  381.16   14.60
   0   5   7  357.26   13.60
   0   5   7  390.56   14.70
   0   5   7  392.26   14.60
   0   5   7  354.66   14.30
   0   5   7  363.26   14.20
  -1  -5  -7   71.59    8.20
  -1  -5  -7   63.89    7.30
  -1  -5  -7   69.39    7.50
  -1  -5  -7   75.09    7.40
   1   5   7   89.99    7.60
   1   5   7   79.09    8.20
   1   5   7   76.09    8.00
   1   5   7   75.99    7.50
   1   5   7   62.29    7.20
  -2  -5  -7  530.15   16.20
  -2  -5  -7  538.35   16.50
  -2  -5  -7  521.25   16.70
  -2  -5  -7  524.85   16.10
   2   5   7  525.25   16.60
   2   5   7  531.65   16.30
   2   5   7  527.65   16.40
   2   5   7  541.15   16.40
  -3  -5  -7  170.48    9.50
  -3  -5  -7  197.88    9.70
  -3  -5  -7  180.48    9.10
  -3  -5  -7  187.48    9.30
   3   5   7  188.08    9.70
   3   5   7  187.98    9.20
   3   5   7  180.68    9.40
   3   5   7  176.48    7.30
  -4  -5  -7  360.96   13.00
  -4  -5  -7  347.07   12.50
  -4  -5  -7  370.86   12.90
  -4  -5  -7  383.46   13.20
   4   5   7  384.76   12.70
   4   5   7  363.86   13.30
   4   5   7  381.76   13.00
  -5  -5  -7  258.07   10.70
  -5  -5  -7  254.97   11.10
  -5  -5  -7  239.88   10.70
  -5  -5  -7  250.17   11.30
  -5  -5  -7  254.67   10.50
   5   5   7  236.28   10.00
   5   5   7  256.57   14.30
   5   5   7  246.78   10.80
   5   5   7  247.48   10.40
   5   5   7  223.48    9.10
  -6  -5  -7 1150.78   27.90
  -6  -5  -7 1215.48   28.50
  -6  -5  -7 1122.79   30.30
  -6  -5  -7 1237.48   28.50
   6   5   7 1170.38   26.90
   6   5   7 1232.28   27.60
   6   5   7 1225.28   27.50
   6   5   7 1044.80   27.60
  -7  -5  -7    9.40    4.90
  -7  -5  -7   10.80    4.80
  -7  -5  -7    8.90    5.30
  -7  -5  -7   -1.70    5.30
  -7  -5  -7    6.40    4.90
   7   5   7   14.20    5.30
   7   5   7   11.00    4.40
   7   5   7   12.40    6.10
   7   5   7    9.60    5.00
   7   5   7   -0.60    5.50
   7   5   7    9.50    5.20
  -8  -5  -7  148.99    9.60
  -8  -5  -7  164.78   10.10
  -8  -5  -7  171.98   11.40
  -8  -5  -7  161.78   11.60
  -8  -5  -7  161.28   10.50
   8   5   7  150.18    9.00
   8   5   7  154.88   10.20
   8   5   7  159.28   12.40
   8   5   7  153.08   11.50
   8   5   7  152.18    9.70
   8   5   7  158.28   10.50
  -9  -5  -7   32.60    6.50
  -9  -5  -7   41.20    9.00
  -9  -5  -7   21.50    6.80
  -9  -5  -7   20.30    7.30
  -9  -5  -7   29.20    7.10
   9   5   7   25.70    7.70
   9   5   7   16.20    7.10
   9   5   7   19.30    6.30
   9   5   7   17.70   10.10
   9   5   7   32.20    8.70
 -10  -5  -7   11.50    8.80
 -10  -5  -7   30.20    8.00
 -10  -5  -7   32.20    8.00
 -10  -5  -7   28.70   11.20
  10   5   7   13.70    7.50
  10   5   7   25.70    6.90
  10   5   7   20.20    9.80
  11   5   7    3.20    8.10
  11   5   7    9.50    8.30
  12   5   7    2.30    9.60
   5  -6  -7  -21.00   13.50
   4  -6  -7  -14.80   13.20
   4  -6  -7   39.50   13.20
   4  -6  -7    8.50   10.80
  -4   6   7    4.30   11.70
   3  -6  -7   36.80    8.60
   3  -6  -7   45.30   11.80
   3  -6  -7   63.49    9.20
   3  -6  -7   61.49   11.30
   3  -6  -7   66.19   12.00
  -3   6   7   44.10    9.60
  -3   6   7   63.29   10.60
   2  -6  -7   16.30    8.60
   2  -6  -7   18.40    8.30
   2  -6  -7    2.50    8.40
   2  -6  -7    7.80    5.90
   2  -6  -7   18.70    8.80
  -2   6   7    3.40    8.50
  -2   6   7    8.50    8.10
  -2   6   7    0.30    8.60
  -2   6   7    2.50    7.30
  -2   6   7   10.70    8.50
   1  -6  -7    7.50    6.90
   1  -6  -7   -1.50    6.30
   1  -6  -7    7.00    4.90
   1  -6  -7    1.10    6.00
   1  -6  -7    2.60    7.30
  -1   6   7    7.40    5.90
  -1   6   7   -1.70    7.20
  -1   6   7  -12.60    6.80
  -1   6   7    2.90    7.20
  -1   6   7   10.50    7.20
   0  -6  -7  143.59   11.10
   0  -6  -7  148.99   11.90
   0  -6  -7  173.28   11.20
   0  -6  -7  130.69   10.40
   0   6   7  156.88   10.90
   0   6   7  147.09   11.70
   0   6   7  151.78   11.20
   0   6   7  121.09   10.90
  -1  -6  -7   12.10    6.80
  -1  -6  -7   24.80    5.90
  -1  -6  -7   19.60    5.50
  -1  -6  -7   14.70    5.30
   1   6   7   15.00    5.90
   1   6   7    4.60    5.40
   1   6   7   15.70    6.00
   1   6   7    8.20    6.30
  -2  -6  -7  370.46   14.20
  -2  -6  -7  368.66   14.30
  -2  -6  -7  368.16   14.30
   2   6   7  374.96   15.00
   2   6   7  366.26   14.20
   2   6   7  368.26   14.20
   2   6   7  359.16   14.40
  -3  -6  -7   77.09   13.30
  -3  -6  -7   83.79    7.90
  -3  -6  -7   78.09    8.40
  -3  -6  -7   70.39    7.80
   3   6   7   58.29    7.90
   3   6   7   78.29    8.10
   3   6   7   75.89    8.50
  -4  -6  -7 1220.38   28.90
  -4  -6  -7 1178.48   28.90
   4   6   7 1162.08   28.60
   4   6   7 1165.68   28.50
   4   6   7 1186.58   29.10
  -5  -6  -7  147.39    9.90
  -5  -6  -7  146.49    9.80
  -5  -6  -7  155.28   10.20
  -5  -6  -7  148.79   10.50
  -5  -6  -7  152.48    9.80
   5   6   7  153.88    9.50
   5   6   7  161.98    9.70
   5   6   7  135.69    7.60
   5   6   7  169.18   10.10
  -6  -6  -7   49.70    7.60
  -6  -6  -7   42.60    6.90
  -6  -6  -7   31.50    5.90
  -6  -6  -7   50.69    7.70
  -6  -6  -7   49.99    7.10
   6   6   7   59.89    7.80
   6   6   7   48.60    5.60
   6   6   7   57.39    7.10
   6   6   7   58.49    8.20
  -7  -6  -7   24.00    6.40
  -7  -6  -7   18.50    5.40
  -7  -6  -7   20.20    6.20
  -7  -6  -7   18.10    5.70
   7   6   7   15.30    7.50
   7   6   7   18.80    4.60
   7   6   7   24.20    6.90
   7   6   7   27.40    6.50
   7   6   7   20.00    6.00
  -8  -6  -7  410.36   16.30
  -8  -6  -7  465.25   17.90
  -8  -6  -7  443.86   15.80
  -8  -6  -7  415.46   15.40
  -8  -6  -7  450.55   16.50
   8   6   7  407.56   18.30
   8   6   7  456.55   16.10
   8   6   7  435.36   15.50
   8   6   7  392.06   17.10
   8   6   7  424.76   14.30
  -9  -6  -7   48.30    9.90
  -9  -6  -7   79.39   10.20
  -9  -6  -7   51.59    8.10
  -9  -6  -7   48.40    8.60
  -9  -6  -7   35.30    7.80
   9   6   7   55.59    8.50
   9   6   7   60.79    8.90
   9   6   7   61.29    8.30
   9   6   7   62.39    8.80
 -10  -6  -7    7.20   11.10
 -10  -6  -7   -2.90    8.40
 -10  -6  -7    6.00    8.80
 -10  -6  -7   -7.10    7.90
  10   6   7    0.50    6.50
  10   6   7   -2.10    7.40
  10   6   7    2.10    9.10
  11   6   7   22.60    8.00
  11   6   7   29.90    9.40
  12   6   7   15.10   10.30
   4  -7  -7  -16.80   17.40
   3  -7  -7   15.10   14.80
   3  -7  -7   18.60   13.20
  -3   7   7   11.80   11.60
   2  -7  -7   17.30   12.00
   2  -7  -7  -20.90   11.30
   2  -7  -7   -0.50   10.00
   2  -7  -7   -6.10    7.20
  -2   7   7   -0.30    9.30
  -2   7   7   -4.50   10.10
  -2   7   7    3.00   10.00
   1  -7  -7   16.20    8.90
   1  -7  -7   15.60    9.70
   1  -7  -7   16.40    9.10
   1  -7  -7   20.40    6.50
   1  -7  -7   16.80    8.30
  -1   7   7   16.20   10.30
  -1   7   7   35.10    9.40
  -1   7   7   23.30    8.10
  -1   7   7   23.30    9.00
   0  -7  -7  144.59   13.50
   0  -7  -7  145.39    9.50
   0  -7  -7  118.29   12.00
   0  -7  -7  129.89   12.20
   0  -7  -7  139.69   13.30
   0   7   7  135.79   16.30
   0   7   7  120.99   12.40
   0   7   7  147.49   13.30
   0   7   7  140.39   11.90
  -1  -7  -7   57.89    8.50
  -1  -7  -7   41.20    8.20
  -1  -7  -7   53.59    8.10
  -1  -7  -7   53.49    8.80
   1   7   7   49.30    8.00
   1   7   7   42.00    7.70
   1   7   7   50.19    8.20
   1   7   7   37.00    8.10
  -2  -7  -7   -0.10    6.20
  -2  -7  -7    0.50    5.80
  -2  -7  -7    3.00    5.70
  -2  -7  -7    8.90    6.50
   2   7   7    0.20    5.50
   2   7   7    0.60    6.00
   2   7   7   -5.20    6.00
   2   7   7   -2.60    5.80
  -3  -7  -7  102.99   10.20
  -3  -7  -7   76.69   10.40
  -3  -7  -7  107.39    9.90
  -3  -7  -7   91.69    9.90
   3   7   7   92.29    9.80
   3   7   7   83.69    9.70
   3   7   7   94.49   10.10
   3   7   7  119.29   11.30
  -4  -7  -7  287.87   13.70
  -4  -7  -7  304.87   14.00
  -4  -7  -7  285.07   13.90
  -4  -7  -7  301.67   13.90
   4   7   7  283.77   13.20
   4   7   7  286.07   13.90
   4   7   7  295.37   13.50
   4   7   7  312.97   14.80
   4   7   7  307.27   10.60
  -5  -7  -7   70.59    9.60
  -5  -7  -7   88.09   12.10
  -5  -7  -7   73.29    9.50
  -5  -7  -7   81.59    9.80
  -5  -7  -7   66.99    9.60
   5   7   7   95.49    9.50
   5   7   7   63.39    9.20
   5   7   7   83.29    9.60
   5   7   7   81.39   10.30
  -6  -7  -7   71.89    9.40
  -6  -7  -7   86.69   10.60
  -6  -7  -7   69.29    8.60
  -6  -7  -7   70.79    9.40
  -6  -7  -7   72.69   10.20
   6   7   7   63.09    6.20
   6   7   7   70.29    9.10
   6   7   7   74.09    9.80
   6   7   7   66.19    8.70
   6   7   7   73.09    9.60
  -7  -7  -7   20.90    6.10
  -7  -7  -7   26.20    8.20
  -7  -7  -7   20.20    6.90
  -7  -7  -7   31.30    8.00
  -7  -7  -7   13.20    6.50
   7   7   7   29.70    7.70
   7   7   7    8.70    8.00
   7   7   7   26.30    5.00
   7   7   7   24.30    7.10
   7   7   7   22.50    9.30
  -8  -7  -7  245.58   13.30
  -8  -7  -7  254.67   13.60
  -8  -7  -7  223.78   14.80
  -8  -7  -7  231.48   13.90
  -8  -7  -7  269.77   15.10
   8   7   7  215.68   16.60
   8   7   7  235.88   14.90
   8   7   7  244.38   10.80
   8   7   7  243.68   14.10
  -9  -7  -7   46.30    8.90
  -9  -7  -7   27.20    8.20
  -9  -7  -7   30.90    8.10
  -9  -7  -7   47.50   10.70
  -9  -7  -7   56.49   10.60
   9   7   7   42.70    9.30
   9   7   7   60.89   12.10
   9   7   7   50.99    7.50
 -10  -7  -7   34.30    9.80
 -10  -7  -7  -16.80   13.80
 -10  -7  -7   -9.60    9.30
  10   7   7    3.10    7.80
  10   7   7    2.20    6.70
  10   7   7   -8.70   10.60
  11   7   7    4.70    9.00
  11   7   7    8.00    8.00
   3  -8  -7    1.80   19.90
   2  -8  -7   -3.10   21.10
   2  -8  -7   13.20   13.80
  -2   8   7   -3.90   11.50
   1  -8  -7   22.40   11.00
   1  -8  -7    4.60    7.50
  -1   8   7  -13.70   10.10
  -1   8   7   12.90   10.50
   0  -8  -7   49.30   11.40
   0  -8  -7   48.80   11.00
   0  -8  -7   53.39    7.50
   0  -8  -7   34.70   10.20
   0   8   7   66.89   11.20
   0   8   7   54.19   11.10
   0   8   7   53.99    9.70
   0   8   7   74.19   10.30
  -1  -8  -7    9.50    7.90
  -1  -8  -7    0.60    8.70
  -1  -8  -7   17.20    8.40
  -1  -8  -7    8.20    8.80
   1   8   7    8.60    8.90
   1   8   7    8.10    9.10
   1   8   7    9.00    8.60
   1   8   7   13.80    7.50
  -2  -8  -7    9.70    7.40
  -2  -8  -7    3.30    7.30
  -2  -8  -7    7.70    7.50
  -2  -8  -7    1.10    7.50
   2   8   7   19.20    8.60
   2   8   7   10.70    7.20
   2   8   7    4.90    7.40
   2   8   7   12.20    7.50
  -3  -8  -7   50.29    9.00
  -3  -8  -7   65.59    9.50
  -3  -8  -7   47.20    8.50
   3   8   7   59.39    9.00
   3   8   7   51.19    9.10
   3   8   7   69.49    9.30
   3   8   7   43.80    9.40
  -4  -8  -7   62.29    9.20
  -4  -8  -7   90.09   10.90
  -4  -8  -7   68.39    9.30
  -4  -8  -7   63.99    8.80
   4   8   7   59.99    8.90
   4   8   7   53.69    9.60
   4   8   7   57.49    8.00
   4   8   7   55.19    8.80
   4   8   7   57.59    9.30
  -5  -8  -7    7.20    6.50
  -5  -8  -7   -1.20    6.60
  -5  -8  -7   18.10   10.00
  -5  -8  -7   13.30    7.00
  -5  -8  -7    1.10    6.30
   5   8   7    6.50    7.30
   5   8   7    7.30    4.40
   5   8   7    0.70    8.40
   5   8   7    4.60    7.80
   5   8   7    8.20    7.70
  -6  -8  -7   30.10    8.70
  -6  -8  -7   30.50    7.40
  -6  -8  -7   36.00    8.00
  -6  -8  -7   28.40    7.20
  -6  -8  -7   33.30    9.50
   6   8   7   39.40    8.70
   6   8   7   31.70    9.90
   6   8   7   34.00    9.10
   6   8   7   32.00    8.00
   6   8   7   29.70    5.50
  -7  -8  -7   25.10    9.40
  -7  -8  -7   35.90    7.50
  -7  -8  -7   37.00    9.50
  -7  -8  -7   32.90    8.40
  -7  -8  -7   28.10    7.80
   7   8   7   35.00    8.70
   7   8   7   26.80    9.70
   7   8   7   47.30    9.40
   7   8   7   30.50    6.30
  -8  -8  -7   -4.80    6.90
  -8  -8  -7    4.70    8.20
  -8  -8  -7   17.10   10.20
  -8  -8  -7    8.00   10.20
  -8  -8  -7   12.70    8.10
   8   8   7   -7.20    8.30
   8   8   7   -8.60    8.50
   8   8   7    0.10    5.40
  -9  -8  -7   37.50    9.00
  -9  -8  -7   30.80   10.10
  -9  -8  -7    8.60    9.40
  -9  -8  -7   40.60   11.40
   9   8   7   -0.30    9.80
   9   8   7   22.50    6.90
  10   8   7   50.69   12.40
  10   8   7   26.60    8.10
  11   8   7   16.40   10.40
  11   8   7    1.70    9.00
   1  -9  -7   13.20   14.30
  -1   9   7   12.80   12.80
   0  -9  -7    2.10    7.80
   0  -9  -7    0.20   12.20
   0  -9  -7   12.20   11.50
   0   9   7   14.50   10.20
   0   9   7   -8.40   11.10
   0   9   7  -13.70   12.10
  -1  -9  -7   25.80    7.20
  -1  -9  -7   12.90   10.70
  -1  -9  -7   12.80   11.30
  -1  -9  -7   26.30   10.60
   1   9   7   -0.80   11.30
   1   9   7    6.00    9.30
   1   9   7   21.60    9.70
  -2  -9  -7   11.30   10.20
  -2  -9  -7   13.30   10.40
  -2  -9  -7   19.20   10.30
   2   9   7  -15.20    9.70
   2   9   7   18.30    8.50
   2   9   7   10.70    9.10
  -3  -9  -7   11.90    8.70
  -3  -9  -7   24.80   10.80
  -3  -9  -7   18.60    9.40
  -3  -9  -7   20.40    8.80
   3   9   7   21.20    9.50
   3   9   7    8.70    8.40
   3   9   7  -15.50   11.50
   3   9   7   22.60    8.10
  -4  -9  -7   11.30    6.90
  -4  -9  -7    3.30    8.40
  -4  -9  -7    9.40    8.90
  -4  -9  -7   20.80    8.50
  -4  -9  -7   -2.30    8.20
   4   9   7   10.70    8.20
   4   9   7    3.30    8.90
   4   9   7    8.70   12.90
   4   9   7   -0.60    8.00
   4   9   7    3.50    6.20
  -5  -9  -7   -5.30    9.30
  -5  -9  -7    9.20    7.10
  -5  -9  -7   31.50    8.30
  -5  -9  -7   22.20    8.20
  -5  -9  -7    1.10    8.80
   5   9   7    8.30    9.30
   5   9   7   14.30    7.70
   5   9   7   -0.80    9.20
   5   9   7   17.90    6.00
  -6  -9  -7   11.50    8.50
  -6  -9  -7   12.60    7.30
  -6  -9  -7   29.20    9.00
  -6  -9  -7    6.50    8.40
  -6  -9  -7   10.40    9.80
   6   9   7    7.10    8.60
   6   9   7    7.90    5.60
   6   9   7   13.10    5.70
   6   9   7   -0.30   10.70
   6   9   7   21.90    8.20
  -7  -9  -7   13.20    7.60
  -7  -9  -7   -3.10    9.10
  -7  -9  -7   -9.50   11.00
  -7  -9  -7   10.30    8.60
  -7  -9  -7   -2.10   10.00
   7   9   7    5.40    9.80
   7   9   7   19.10    6.10
   7   9   7   13.70    8.90
  -8  -9  -7   10.10   10.30
  -8  -9  -7   -2.30   11.70
  -8  -9  -7   50.09    9.40
  -8  -9  -7   28.00   12.20
  -8  -9  -7   20.80    9.60
   8   9   7   28.20   10.30
   8   9   7   31.50    7.20
   8   9   7   20.40   11.40
  -9  -9  -7   -1.40   11.40
  -9  -9  -7    5.10    9.60
   9   9   7   -3.30   10.60
  10   9   7   34.90   13.90
  10   9   7   13.50    8.60
  11   9   7   -1.40   11.10
   0 -10  -7   17.50   20.10
  -1 -10  -7   21.80   14.60
  -1 -10  -7   76.19   17.90
   1  10   7   38.50   12.70
  -2 -10  -7  151.58   19.60
  -2 -10  -7  102.39   12.60
  -2 -10  -7  104.39   14.90
   2  10   7   85.69   13.80
   2  10   7  106.69   15.20
   2  10   7  138.29   15.70
  -3 -10  -7   17.80   10.80
  -3 -10  -7    0.70   12.10
  -3 -10  -7   27.00   11.50
   3  10   7   12.40   10.70
   3  10   7   26.70   12.70
   3  10   7   -0.20   10.50
  -4 -10  -7   24.10    8.80
  -4 -10  -7   23.90   10.90
  -4 -10  -7   23.00   11.50
  -4 -10  -7    4.20   11.90
   4  10   7   26.60   10.80
   4  10   7   27.90   10.50
   4  10   7    6.40   12.60
   4  10   7   32.40    8.60
  -5 -10  -7   10.30   10.50
  -5 -10  -7   17.70    8.40
  -5 -10  -7    3.20   10.30
  -5 -10  -7   -7.30   12.10
   5  10   7   -8.50   12.40
   5  10   7   22.60    9.60
   5  10   7   -6.20   10.60
  -6 -10  -7   17.10    8.90
  -6 -10  -7    4.70   10.40
  -6 -10  -7   16.00   10.10
  -6 -10  -7   14.40   12.30
   6  10   7   36.60   10.10
   6  10   7    8.70    7.40
   6  10   7   22.90    7.30
   6  10   7   16.10   11.30
  -7 -10  -7  -17.00   10.50
  -7 -10  -7    5.90    9.20
  -7 -10  -7   16.90   13.10
  -7 -10  -7   13.50   11.10
   7  10   7   12.80   10.40
   7  10   7   15.50   12.00
  -8 -10  -7   31.40   13.30
  -8 -10  -7   23.20    9.80
   8  10   7   23.70   12.10
   8  10   7   14.00    8.30
  -9 -10  -7   -1.10   11.60
   9  10   7    4.30   14.40
   9  10   7    0.90    8.20
  10  10   7   -7.10   22.50
  10  10   7    3.10   10.00
   2  11   7   15.20   19.30
   3  11   7   40.00   12.20
   3  11   7   30.00   14.80
  -4 -11  -7   23.80   14.00
   4  11   7   30.80   12.70
   4  11   7   22.80   11.70
  -5 -11  -7   91.09   11.60
  -5 -11  -7  119.49   15.40
   5  11   7   70.79   14.40
   5  11   7   66.09   11.40
  -6 -11  -7   18.00   10.60
  -6 -11  -7   37.60   13.70
   6  11   7   10.00    7.40
   6  11   7   39.00   13.90
  -7 -11  -7    8.50   10.80
  -7 -11  -7    8.70   14.40
   7  11   7   13.80    7.80
  -8 -11  -7   -3.70   11.90
   8  11   7    2.50    9.10
   9  11   7   35.10   10.30
   6  12   7   36.80    9.30
   7  12   7   42.20   10.30
  -4 -11   8   -5.10    8.50
  -3 -11   8    5.30    8.70
  -2 -11   8    7.70    9.60
  -1 -11   8   20.20    8.90
   0 -11   8    3.90   10.00
  -6 -10   8   14.10    7.20
  -5 -10   8   20.20    7.70
  -4 -10   8    9.30    8.00
   3  10  -8   10.50    9.30
  -3 -10   8   -5.30    7.00
   2  10  -8   14.60    8.40
  -2 -10   8   12.20    8.10
  -1 -10   8   -2.40    7.80
   0 -10   8   14.90    8.90
   1 -10   8   70.09   14.90
   2 -10   8   44.70   13.90
  -7  -9   8   10.10    7.00
  -6  -9   8    6.90    6.60
  -5  -9   8    8.80    6.50
   4   9  -8   73.69   10.20
   4   9  -8   65.49   14.40
  -4  -9   8   56.29    8.80
   3   9  -8   -0.80    7.10
   3   9  -8    5.10    9.30
   3   9  -8   -3.90    7.20
  -3  -9   8    0.30    6.50
   2   9  -8  -13.40    6.30
   2   9  -8  -11.60    8.10
   2   9  -8    2.10    6.70
  -2  -9   8  -16.10    8.80
  -2  -9   8    0.90    7.60
   1   9  -8   12.70    7.30
   1   9  -8    6.40    8.60
  -1  -9   8   -3.50    6.60
   0   9  -8   -0.70    8.30
   0  -9   8   -0.70    6.00
  -1   9  -8   -6.00    8.80
   1  -9   8   10.70    7.70
   2  -9   8   -2.50   10.10
   3  -9   8  -11.20   12.40
  -7  -8   8    0.70    6.40
  -6  -8   8    7.10    6.70
  -6  -8   8    1.30   11.60
   5   8  -8    8.40    7.00
   5   8  -8    7.30   11.90
   5   8  -8  -17.80    8.20
   5   8  -8   11.30    9.60
   5   8  -8    1.60    9.40
  -5  -8   8   11.10    6.10
  -5  -8   8   11.00    8.90
   4   8  -8   39.90    9.10
   4   8  -8   37.50    9.20
   4   8  -8   25.10    7.80
   4   8  -8   40.20    9.80
   4   8  -8   40.10    8.50
  -4  -8   8   29.70    6.90
  -4  -8   8   34.40    9.00
   3   8  -8   25.10    6.60
   3   8  -8   25.50    7.70
   3   8  -8   38.20   12.30
   3   8  -8   25.10    7.80
   3   8  -8   22.70    6.50
  -3  -8   8   15.60    8.60
  -3  -8   8   23.20    7.30
  -3  -8   8   10.90    6.90
  -3  -8   8   13.20    6.50
   2   8  -8    1.30    7.10
   2   8  -8    5.10    5.30
   2   8  -8    1.80    6.50
   2   8  -8    2.30    5.60
   2   8  -8    5.40    6.10
  -2  -8   8    3.70    6.40
  -2  -8   8    7.50    5.50
  -2  -8   8    7.40    6.60
  -2  -8   8   -2.10    5.30
   1   8  -8   22.50    5.70
   1   8  -8   17.60    7.10
   1   8  -8   16.50    5.30
  -1  -8   8    9.40    6.30
   0   8  -8   -4.50    6.00
   0  -8   8    1.40    5.70
  -1   8  -8   66.59    9.30
   1  -8   8   79.69   10.50
  -2   8  -8    9.10    8.00
   2  -8   8    4.80    7.20
  -3   8  -8    8.30    8.80
   3  -8   8   25.00   10.40
  -4   8  -8   27.90   13.70
  -8  -7   8   20.20   23.60
   7   7  -8   17.70   27.00
  -7  -7   8    1.70   12.10
   6   7  -8  -16.00    8.50
   6   7  -8   20.90   11.20
   6   7  -8  -12.40    9.80
   6   7  -8   -6.50    8.80
   6   7  -8   31.00   11.50
  -6  -7   8   10.00    5.60
  -6  -7   8    5.30   10.00
   5   7  -8    5.50    7.40
   5   7  -8  -13.70    8.80
   5   7  -8   10.80    8.00
   5   7  -8   -0.80    7.80
   5   7  -8   15.20    6.90
   5   7  -8    2.20    8.80
  -5  -7   8   -4.50    5.20
  -5  -7   8    0.90    7.60
  -5  -7   8   -0.40    7.70
   4   7  -8   25.20    5.70
   4   7  -8   26.90    7.10
   4   7  -8   26.10    6.90
   4   7  -8   23.50    6.40
   4   7  -8   12.60    7.70
   4   7  -8   18.90    8.20
  -4  -7   8   16.80    7.00
  -4  -7   8   20.20    6.00
  -4  -7   8   12.40    7.80
   3   7  -8   29.30    4.90
   3   7  -8   24.60    6.00
   3   7  -8   24.30    6.70
   3   7  -8   21.30    6.10
   3   7  -8   10.00    6.90
   3   7  -8   17.30    6.50
  -3  -7   8   19.50    6.90
  -3  -7   8   16.60    8.10
  -3  -7   8   24.60    5.80
  -3  -7   8   14.90    5.60
  -3  -7   8   13.30    6.50
  -3  -7   8   19.80    6.10
   2   7  -8  409.26   13.80
   2   7  -8  408.76   13.90
   2   7  -8  419.06   13.60
   2   7  -8  406.26   13.20
   2   7  -8  426.56   16.40
  -2  -7   8  404.96   13.50
  -2  -7   8  409.36   14.00
  -2  -7   8  401.96   13.00
  -2  -7   8  396.26   16.60
  -2  -7   8  396.06   12.80
   1   7  -8    5.70    5.20
   1   7  -8   13.80    4.90
   1   7  -8    2.30    4.50
   1   7  -8    8.90    4.30
   1   7  -8   11.60    4.60
  -1  -7   8   12.70    5.50
   0   7  -8    5.00    5.30
   0  -7   8    7.90    5.50
  -1   7  -8    4.40    5.60
   1  -7   8    5.00    5.20
  -2   7  -8   -2.30    5.40
   2  -7   8    4.60    6.50
  -3   7  -8  107.99   11.10
   3  -7   8  103.99   11.70
  -4   7  -8   36.80    8.20
   4  -7   8   39.40    8.40
  -5   7  -8  -10.50    9.20
   5  -7   8    5.80    7.60
   6  -7   8    2.90    8.30
  -8  -6   8  -25.20   14.00
   7   6  -8    2.30   12.50
  -7  -6   8   -7.10   11.10
   6   6  -8  -21.90    9.50
   6   6  -8   -3.90    9.30
   6   6  -8    1.30    9.40
   6   6  -8    2.10    8.30
   6   6  -8    9.20    8.20
  -6  -6   8    9.90    8.90
  -6  -6   8    4.10    8.90
  -6  -6   8    1.90    4.80
   5   6  -8    9.00    7.60
   5   6  -8    7.80    7.80
   5   6  -8   -8.30    6.10
   5   6  -8   -7.20    7.10
   5   6  -8    6.70    6.50
   5   6  -8    8.60    7.50
  -5  -6   8   17.20    7.20
  -5  -6   8    4.10    4.80
  -5  -6   8   -3.00    6.60
   4   6  -8   18.80    5.60
   4   6  -8   38.10    6.70
   4   6  -8   26.20    8.20
   4   6  -8   25.30    5.60
   4   6  -8   37.00    7.50
   4   6  -8   22.60    6.50
  -4  -6   8   16.20    7.50
  -4  -6   8   33.10    6.70
  -4  -6   8   27.70    6.90
  -4  -6   8   12.90    6.60
  -4  -6   8   33.90    7.20
  -4  -6   8   25.80    9.20
   3   6  -8    9.40    5.50
   3   6  -8    9.60    5.00
   3   6  -8    1.90    5.30
   3   6  -8    3.60    4.80
   3   6  -8    9.50    5.40
   3   6  -8    4.60    4.50
  -3  -6   8    2.90    5.50
  -3  -6   8   13.20    5.90
  -3  -6   8   11.20    5.30
  -3  -6   8    2.90    4.70
  -3  -6   8    4.60    5.00
  -3  -6   8    5.50    4.90
   2   6  -8  262.97   10.80
   2   6  -8  249.08   10.50
   2   6  -8  249.08   10.10
   2   6  -8  275.17   10.70
   2   6  -8  267.07   12.60
   2   6  -8  280.17    9.10
  -2  -6   8  283.37   10.40
  -2  -6   8  243.88   13.30
  -2  -6   8  264.47   13.00
  -2  -6   8  268.17   10.30
  -2  -6   8  282.97   10.20
   1   6  -8   86.49    6.60
   1   6  -8   86.99    6.50
   1   6  -8   88.49    6.70
   1   6  -8  101.09    9.00
   1   6  -8   96.99    6.90
   1   6  -8   93.29    5.30
  -1  -6   8   95.49    7.20
  -1  -6   8   90.19    8.70
   0   6  -8  107.49    8.80
   0  -6   8   95.39    9.00
  -1   6  -8    1.70    4.40
   1  -6   8    8.80    4.80
  -2   6  -8    7.60    5.40
   2  -6   8    6.70    4.90
  -3   6  -8   69.29    8.90
   3  -6   8   75.39    9.00
  -4   6  -8   72.29    9.80
   4  -6   8   64.49   10.10
   4  -6   8   71.89    9.80
  -5   6  -8  -11.50    6.60
   5  -6   8    6.10    6.80
  -6   6  -8   -0.60    9.00
   6  -6   8   -2.10    7.60
  -7   6  -8   33.50   12.50
   7  -6   8   13.60    9.80
  -8  -5   8    6.10   14.60
   7   5  -8   17.70   11.90
   7   5  -8   23.80   10.50
   7   5  -8    6.20   11.40
   7   5  -8   32.70   13.90
  -7  -5   8   14.10   13.90
  -7  -5   8   15.40   10.50
   6   5  -8   43.30    9.80
   6   5  -8   54.69   10.10
   6   5  -8   62.69    9.90
   6   5  -8   47.60   10.00
   6   5  -8   40.80    8.70
  -6  -5   8   44.70    9.60
  -6  -5   8   43.30    9.30
   5   5  -8    7.90    6.20
   5   5  -8   22.80    7.40
   5   5  -8   16.80    7.40
   5   5  -8    2.60    6.40
  -5  -5   8    8.30    4.80
  -5  -5   8   18.90    7.60
  -5  -5   8   -0.80    7.60
  -5  -5   8   17.40    7.00
  -5  -5   8   18.80    6.80
  -5  -5   8    1.40    6.70
   4   5  -8   22.80    6.60
   4   5  -8   24.20    5.60
   4   5  -8   24.50    5.40
   4   5  -8   15.60    5.60
   4   5  -8   16.50    6.10
  -4  -5   8   26.20    5.90
  -4  -5   8   21.40    6.50
  -4  -5   8   22.80    6.40
  -4  -5   8   17.40    6.00
  -4  -5   8   21.40    6.20
  -4  -5   8   14.70    6.30
   3   5  -8   13.30    4.20
   3   5  -8   22.40    6.20
   3   5  -8   19.30    5.00
   3   5  -8   15.50    4.70
   3   5  -8   29.10    5.20
  -3  -5   8   22.00    5.40
  -3  -5   8   20.30    5.80
  -3  -5   8   18.40    5.30
  -3  -5   8   19.80    5.50
   2   5  -8  123.59    7.50
   2   5  -8  119.29    9.00
   2   5  -8  112.99    7.40
   2   5  -8  125.59    7.30
   2   5  -8  143.89    7.00
  -2  -5   8  138.29    7.50
  -2  -5   8  130.09    9.30
  -2  -5   8  125.49    6.00
  -2  -5   8  121.69    7.20
  -2  -5   8  128.99    7.30
  -2  -5   8  136.69    9.40
   1   5  -8  449.26   12.50
   1   5  -8  454.05   11.90
   1   5  -8  421.76   12.30
   1   5  -8  474.45   12.50
   1   5  -8  437.56   15.40
  -1  -5   8  450.95   12.10
  -1  -5   8  452.55   12.20
  -1  -5   8  438.56   16.20
  -1  -5   8  453.15   11.70
  -1  -5   8  463.15   12.40
   0   5  -8  449.36   14.70
   0  -5   8  461.45   12.60
   0  -5   8  449.66   16.40
  -1   5  -8  207.88    9.70
   1  -5   8  199.28   11.20
   1  -5   8  223.08    8.80
  -2   5  -8   -4.10    2.50
  -2   5  -8    2.40    3.90
   2  -5   8    3.50    4.70
   2  -5   8    1.10    3.90
  -3   5  -8   -1.20    4.60
  -3   5  -8    1.90    2.80
   3  -5   8   -2.50    4.70
   3  -5   8   -3.90    4.90
  -4   5  -8   38.40    6.60
  -4   5  -8   35.20    4.80
   4  -5   8   32.50    6.40
   4  -5   8   48.60    9.20
  -5   5  -8   64.59    9.40
  -5   5  -8   74.29    6.70
   5  -5   8   83.99   10.50
  -6   5  -8   65.09    8.60
  -6   5  -8   54.19    8.40
   6  -5   8   55.49   10.70
  -7   5  -8   -5.80    6.80
  -7   5  -8    1.10    9.10
   7  -5   8    1.20    7.20
   8  -5   8   11.80   10.10
   8   4  -8   -0.30   15.60
  -8  -4   8   -4.10   15.10
   7   4  -8   16.30   11.60
   7   4  -8   25.40   11.60
   7   4  -8   26.10   12.90
   7   4  -8    6.40   11.20
  -7  -4   8   16.70   10.70
  -7  -4   8   12.40   10.10
   6   4  -8   30.70    9.40
   6   4  -8   22.30    8.70
   6   4  -8    7.80    8.70
   6   4  -8   24.00    8.90
   6   4  -8    9.60    7.80
   6   4  -8   27.00   10.10
  -6  -4   8   33.70   12.30
  -6  -4   8    5.10    8.30
  -6  -4   8   23.60    9.10
   5   4  -8   16.50    6.90
   5   4  -8    6.50    6.90
   5   4  -8    7.70    6.20
   5   4  -8   14.80    6.80
   5   4  -8    8.50    6.20
   5   4  -8   31.00    7.50
  -5  -4   8   16.90    7.00
  -5  -4   8    6.80    8.40
  -5  -4   8   12.50    5.20
  -5  -4   8    4.60    6.40
  -5  -4   8    6.70    6.60
  -5  -4   8   14.80    7.30
   4   4  -8   17.30    5.40
   4   4  -8    7.10    5.50
   4   4  -8    2.50    5.10
   4   4  -8    5.60    5.70
   4   4  -8    5.20    4.40
   4   4  -8    0.20    5.30
  -4  -4   8    8.70    5.50
  -4  -4   8    3.30    4.30
  -4  -4   8   11.10    5.90
  -4  -4   8   -2.10    4.70
  -4  -4   8    0.20    5.50
  -4  -4   8    2.90    4.80
   3   4  -8   50.29    5.90
   3   4  -8   37.60    6.70
   3   4  -8   62.49    6.40
   3   4  -8   54.59    7.90
   3   4  -8   46.70    6.20
  -3  -4   8   56.29    6.70
  -3  -4   8   46.00    6.30
   2   4  -8   31.00    5.10
   2   4  -8   24.50    5.50
   2   4  -8   41.40    4.90
   2   4  -8   31.90    4.40
   2   4  -8   24.10    4.30
  -2  -4   8   36.90    4.20
  -2  -4   8   33.40    6.20
  -2  -4   8   44.00    6.80
  -2  -4   8   37.40    4.90
  -2  -4   8   38.10    4.80
  -2  -4   8   40.40    5.70
   1   4  -8  149.59    7.00
   1   4  -8  154.68    6.60
   1   4  -8  149.29    6.70
   1   4  -8  125.69    8.20
   1   4  -8  143.89    6.50
  -1  -4   8  142.29    6.90
  -1  -4   8  145.89    6.30
  -1  -4   8  136.59    8.70
  -1  -4   8  141.59    8.90
  -1  -4   8  143.19    6.00
  -1  -4   8  151.48    6.90
  -1  -4   8  163.78    6.90
   0   4  -8  250.27    7.70
   0   4  -8  264.77    7.70
   0   4  -8  266.77    8.00
   0   4  -8  243.48   10.00
   0   4  -8  245.08    8.10
   0  -4   8  248.98   10.90
   0  -4   8  256.17    8.60
   0  -4   8  236.18   11.40
  -1   4  -8  785.82   19.60
   1  -4   8  746.53   21.90
   1  -4   8  776.82   18.40
  -2   4  -8  182.28    7.70
  -2   4  -8  182.78    8.20
   2  -4   8  163.58   10.00
   2  -4   8  174.18    8.10
  -3   4  -8    4.90    2.80
  -3   4  -8   -0.10    3.10
   3  -4   8   -1.60    4.90
   3  -4   8    2.70    3.70
   3  -4   8    7.60    4.80
  -4   4  -8   10.80    3.40
  -4   4  -8   14.40    4.30
   4  -4   8    6.20    4.20
   4  -4   8   -0.30    4.30
   4  -4   8    1.80    5.20
  -5   4  -8   20.00    4.50
  -5   4  -8   16.90    5.30
   5  -4   8   16.50    6.10
  -6   4  -8   35.10    8.30
   6  -4   8   29.90    8.10
  -7   4  -8   32.10    8.10
  -7   4  -8   40.50    6.70
   7  -4   8   41.80    9.80
  -8   4  -8    2.70    7.50
  -8   4  -8   11.10   14.80
   8  -4   8   12.10    8.70
  -9  -3   8   13.90   11.60
   8   3  -8   -4.60   14.60
  -8  -3   8   26.80   16.20
  -8  -3   8  -13.60    7.80
   7   3  -8  -11.30   11.70
   7   3  -8    3.00   10.40
   7   3  -8   -3.30   11.10
  -7  -3   8   -3.40    6.00
  -7  -3   8    7.60   11.20
  -7  -3   8   22.80   10.00
   6   3  -8   10.10    8.60
   6   3  -8  -13.30    8.40
   6   3  -8   -8.00    8.00
   6   3  -8  -10.10    8.00
   6   3  -8    1.70    9.40
   6   3  -8   -6.70    8.80
  -6  -3   8   -7.30    7.90
  -6  -3   8    2.30    8.20
  -6  -3   8   -6.90    5.00
  -6  -3   8   -2.00    7.90
   5   3  -8   20.10    7.70
   5   3  -8   13.60    6.50
   5   3  -8    9.70    6.10
   5   3  -8    7.50    6.30
   5   3  -8    6.60    6.50
   5   3  -8   19.60    7.60
  -5  -3   8   12.20    7.40
  -5  -3   8   11.80    7.20
  -5  -3   8    4.20    5.80
  -5  -3   8    7.00    5.10
  -5  -3   8    9.50    7.20
  -5  -3   8    8.50    6.50
   4   3  -8   70.69    7.90
   4   3  -8   58.29    8.20
   4   3  -8   71.99    7.50
   4   3  -8   68.09    8.80
   4   3  -8   72.09    9.20
  -4  -3   8   75.89    9.00
  -4  -3   8   55.09    7.60
  -4  -3   8   59.09    8.10
  -4  -3   8   76.29    8.40
  -4  -3   8   58.29    6.80
  -4  -3   8   74.09    9.10
   3   3  -8   38.10    5.80
   3   3  -8   27.70    6.10
   3   3  -8   29.30    4.70
   3   3  -8   38.20    5.30
   3   3  -8   29.10    5.80
  -3  -3   8   39.20    4.40
  -3  -3   8   28.20    5.40
  -3  -3   8   28.00    6.00
  -3  -3   8   18.20    5.10
   2   3  -8   -3.30    3.60
   2   3  -8    3.20    4.00
   2   3  -8    0.90    3.10
   2   3  -8    5.10    3.20
   2   3  -8    2.00    3.80
   2   3  -8    3.80    3.30
  -2  -3   8   -1.40    3.60
  -2  -3   8    3.80    4.00
  -2  -3   8    2.90    3.80
  -2  -3   8    5.20    3.00
  -2  -3   8   -0.50    3.50
   1   3  -8   -5.70    2.80
   1   3  -8   -3.20    2.50
   1   3  -8   -0.30    3.10
   1   3  -8   -4.80    2.80
   1   3  -8   -1.30    2.70
  -1  -3   8   -0.10    2.80
  -1  -3   8    1.20    3.20
  -1  -3   8   -1.20    2.70
  -1  -3   8    0.40    2.90
  -1  -3   8   -1.30    3.10
  -1  -3   8   -0.90    3.50
  -1  -3   8   -6.50    2.60
   0   3  -8   93.49    5.20
   0   3  -8   91.09    4.60
   0   3  -8   81.19    6.00
   0   3  -8   97.09    5.20
   0   3  -8   93.29    4.70
   0  -3   8   92.39    7.10
   0  -3   8   86.09    4.80
   0  -3   8   87.19    7.10
   0  -3   8   88.59    5.20
  -1   3  -8  774.62   18.70
   1  -3   8  742.43   17.90
   1  -3   8  752.72   21.20
  -2   3  -8   50.19    5.00
   2  -3   8   60.59    5.30
  -3   3  -8  284.37    9.50
  -3   3  -8  294.97    9.90
   3  -3   8  295.77   10.30
   3  -3   8  253.07   11.80
   3  -3   8  261.57   11.60
  -4   3  -8   47.80    5.10
  -4   3  -8   39.70    5.20
   4  -3   8   42.70    5.40
   4  -3   8   43.80    6.70
  -5   3  -8    6.40    3.50
  -5   3  -8    6.10    3.90
   5  -3   8    8.30    4.50
   5  -3   8    3.10    5.60
  -6   3  -8   47.30    7.00
   6  -3   8   39.90    8.60
  -7   3  -8   30.00    6.10
  -7   3  -8   36.10    6.80
   7  -3   8   31.80    8.60
  -8   3  -8   26.30    8.10
  -8   3  -8    2.60    6.40
   8  -3   8    5.90    7.10
  -9   3  -8    2.20    8.70
   9  -3   8   -8.30    8.90
   8   2  -8   17.50   15.70
  -8  -2   8   -1.10    9.30
   7   2  -8   27.00   12.30
   7   2  -8   -6.00   11.90
   7   2  -8    2.90   10.20
  -7  -2   8    9.90   10.50
  -7  -2   8    8.30    7.40
  -7  -2   8   32.10   10.40
   6   2  -8   -0.20    7.70
   6   2  -8    2.60    8.80
   6   2  -8   -6.70    8.40
   6   2  -8    3.70    8.70
  -6  -2   8   -3.50    8.40
  -6  -2   8    1.90    5.60
  -6  -2   8   -0.40    8.70
  -6  -2   8  -10.80    7.70
   5   2  -8   23.40    6.90
   5   2  -8   11.40    7.30
   5   2  -8    9.90    5.80
   5   2  -8   17.10    7.30
   5   2  -8    4.70    6.30
   5   2  -8    8.10    8.10
  -5  -2   8   19.00    7.30
  -5  -2   8   -8.10    7.00
  -5  -2   8   15.90    7.10
  -5  -2   8    7.00    6.50
  -5  -2   8   16.60    6.70
   4   2  -8   36.50    5.80
   4   2  -8   43.10    8.00
   4   2  -8   45.30    6.00
   4   2  -8   46.10    6.80
   4   2  -8   37.60    7.00
   4   2  -8   41.10    7.00
  -4  -2   8   42.40    6.30
  -4  -2   8   47.00    6.40
  -4  -2   8   47.60    7.00
  -4  -2   8   42.10    7.10
  -4  -2   8   44.10    6.80
   3   2  -8   40.30    5.30
   3   2  -8   42.70    5.50
   3   2  -8   43.10    7.00
   3   2  -8   32.30    6.00
   3   2  -8   41.20    5.30
   3   2  -8   33.20    7.40
  -3  -2   8   37.80    5.70
  -3  -2   8   34.90    5.40
  -3  -2   8   39.70    5.70
  -3  -2   8   41.40    6.10
   2   2  -8   -5.60    2.90
   2   2  -8   -1.60    2.90
   2   2  -8    1.00    3.60
   2   2  -8    8.30    3.50
   2   2  -8    1.20    4.00
   2   2  -8   -0.50    3.50
  -2  -2   8    0.80    3.60
  -2  -2   8    2.80    2.90
  -2  -2   8    6.10    3.70
  -2  -2   8   -1.80    3.30
  -2  -2   8    2.90    3.80
  -2  -2   8    6.70    4.20
   1   2  -8  203.48    7.50
   1   2  -8  198.18    8.10
   1   2  -8  208.08    7.50
   1   2  -8  199.38    8.70
   1   2  -8  191.88    8.30
  -1  -2   8  203.38    8.00
  -1  -2   8  210.48    8.20
  -1  -2   8  202.78    8.00
  -1  -2   8  207.78    9.30
  -1  -2   8  194.08    9.10
  -1  -2   8  206.38    7.20
  -1  -2   8  212.88    7.80
   0   2  -8  305.07   10.10
   0   2  -8  299.37    9.10
   0   2  -8  294.37    8.40
   0   2  -8  293.87    8.50
   0   2  -8  306.37    9.30
   0  -2   8  307.77   10.30
   0  -2   8  292.27    8.40
   0  -2   8  311.57    9.10
   0  -2   8  300.87    8.80
   0  -2   8  287.77    9.00
   0  -2   8  275.67   11.00
   0  -2   8  297.87    9.00
  -1   2  -8  194.18    7.80
  -1   2  -8  213.58    6.10
   1  -2   8  202.18    7.50
   1  -2   8  221.18    8.40
  -2   2  -8  174.98    6.90
   2  -2   8  173.88    9.10
   2  -2   8  183.08    7.40
  -3   2  -8  790.42   19.40
  -3   2  -8  809.62   17.90
   3  -2   8  734.13   21.60
   3  -2   8  782.82   20.60
   3  -2   8  755.82   19.10
  -4   2  -8   21.10    3.90
  -4   2  -8   25.50    3.60
   4  -2   8   21.50    5.40
   4  -2   8   15.10    3.80
  -5   2  -8    7.70    3.00
  -5   2  -8    8.80    4.00
   5  -2   8    4.40    3.70
   5  -2   8   10.60    5.20
  -6   2  -8    5.00    3.60
   6  -2   8    7.90    5.90
   6  -2   8    6.00    4.50
  -7   2  -8    1.70    4.20
  -7   2  -8    3.90    4.90
   7  -2   8    1.00    5.00
   7  -2   8   -4.00    6.40
  -8   2  -8   -2.50    5.70
   8  -2   8    2.00    7.30
  -9   2  -8   25.30    7.80
   9  -2   8   60.69   11.00
  10  -2   8   25.80   10.30
   8   1  -8   18.50   10.80
  -8  -1   8    2.20   11.30
   7   1  -8   19.60   12.50
   7   1  -8    9.90   10.00
   7   1  -8   12.10   11.60
   7   1  -8    4.60   13.70
  -7  -1   8   21.40   12.20
  -7  -1   8   14.00    8.40
  -7  -1   8   33.20   11.90
   6   1  -8   14.20    8.90
   6   1  -8   15.40    9.80
   6   1  -8   -3.30    8.40
   6   1  -8    4.50    9.50
  -6  -1   8   11.00    7.80
  -6  -1   8    1.50    8.40
  -6  -1   8   12.90    9.60
  -6  -1   8   17.30    9.60
   5   1  -8   18.20    8.60
   5   1  -8   -1.50    6.80
   5   1  -8   -3.10    6.00
   5   1  -8    7.10    5.80
   5   1  -8   10.80    7.40
  -5  -1   8   11.50    6.90
  -5  -1   8    7.50    7.00
  -5  -1   8    6.70    5.10
  -5  -1   8   10.80    7.10
  -5  -1   8    8.40    6.80
  -5  -1   8   10.00    7.30
   4   1  -8   16.00    6.50
   4   1  -8   25.90    5.70
   4   1  -8   14.00    6.30
   4   1  -8   20.90    5.50
   4   1  -8   33.20    6.50
  -4  -1   8   23.10    6.10
  -4  -1   8   14.30    4.50
  -4  -1   8   32.60    7.00
  -4  -1   8   23.10    5.90
  -4  -1   8   -0.30    5.00
  -4  -1   8   14.60    5.30
   3   1  -8   48.70    6.50
   3   1  -8   50.19    6.20
   3   1  -8   34.50    6.70
   3   1  -8   46.00    6.50
   3   1  -8   41.70    5.80
   3   1  -8   37.30    6.90
  -3  -1   8   41.50    6.00
  -3  -1   8   38.50    5.30
  -3  -1   8   45.80    5.90
  -3  -1   8   37.70    6.00
   2   1  -8   97.19    6.60
   2   1  -8   84.09    6.00
   2   1  -8   73.39    7.20
   2   1  -8   67.99    6.90
   2   1  -8   60.59    7.20
   2   1  -8   66.89    5.80
  -2  -1   8   82.29    6.50
  -2  -1   8   83.39    6.00
  -2  -1   8   75.39    6.80
  -2  -1   8   75.09    7.00
  -2  -1   8   85.39    6.40
  -2  -1   8   79.99    7.10
   1   1  -8  134.59    6.30
   1   1  -8  145.79    7.60
   1   1  -8  134.59    7.20
   1   1  -8  143.89    6.50
   1   1  -8  151.98    7.80
  -1  -1   8  132.79    7.40
  -1  -1   8  149.59    7.30
  -1  -1   8  153.78    7.80
  -1  -1   8  139.99    7.50
  -1  -1   8  144.99    6.90
   0   1  -8  151.68    7.00
   0   1  -8  155.38    7.30
   0   1  -8  169.38    7.20
   0   1  -8  164.48    6.50
   0   1  -8  158.58    6.40
   0  -1   8  159.88    6.90
   0  -1   8  162.18    7.00
   0  -1   8  163.98    7.30
   0  -1   8  170.98    7.30
   0  -1   8  172.28    6.70
   0  -1   8  167.18    8.00
   0  -1   8  162.78    6.60
  -1   1  -8  489.45   12.60
  -1   1  -8  470.15   11.40
  -1   1  -8  466.95   12.20
  -1   1  -8  460.75   11.20
  -1   1  -8  483.35   12.10
   1  -1   8  463.25   12.60
   1  -1   8  471.65   11.40
   1  -1   8  468.05   14.50
   1  -1   8  485.85   12.70
   1  -1   8  481.25   11.40
  -2   1  -8  105.09    5.00
   2  -1   8   91.79    5.60
   2  -1   8  101.29    6.80
  -3   1  -8   20.90    3.10
   3  -1   8   19.30    4.30
   3  -1   8   26.70    5.00
   3  -1   8   25.00    4.00
  -4   1  -8   80.79    4.20
  -4   1  -8   73.39    6.30
   4  -1   8   93.29    7.50
   4  -1   8   64.99    5.70
  -5   1  -8   12.00    4.10
   5  -1   8   12.00    4.10
   5  -1   8    9.90    5.10
   6  -1   8    5.60    5.30
   6  -1   8   13.50    4.30
  -7   1  -8    0.80    4.50
   7  -1   8   -2.40    4.40
   7  -1   8    1.00    6.10
  -8   1  -8   13.90    6.00
   8  -1   8   11.40    7.00
   8  -1   8   13.50    5.90
  -9   1  -8   13.70    7.00
   9  -1   8    4.50    7.80
  10  -1   8   29.00   10.00
   8   0  -8   34.40   13.40
   7   0  -8   -8.00   14.30
   7   0  -8   -0.30   13.40
   7   0  -8   35.40   14.60
  -7   0   8   15.60   13.00
  -7   0   8   28.00   12.70
   6   0  -8    4.20    7.70
   6   0  -8    2.20   10.30
   6   0  -8   19.60    9.40
   6   0  -8   10.70    9.90
  -6   0   8   17.80   10.60
  -6   0   8    0.40    8.70
  -6   0   8   -6.70    6.50
  -6   0   8   10.40    9.60
   5   0  -8   12.70    6.70
   5   0  -8    0.20    7.30
   5   0  -8   23.80    7.10
   5   0  -8   12.90    6.50
   5   0  -8   18.80    8.30
   5   0  -8    7.70    7.30
  -5   0   8   15.10    7.50
  -5   0   8    8.20    5.20
  -5   0   8    9.10    8.10
  -5   0   8   12.80    7.40
  -5   0   8   19.00    8.10
  -5   0   8    8.00    7.00
   4   0  -8   -3.50    6.40
   4   0  -8   -0.50    6.20
   4   0  -8    2.30    5.60
   4   0  -8   -0.80    4.60
   4   0  -8    7.60    5.50
  -4   0   8   10.20    6.60
  -4   0   8   -5.20    6.00
  -4   0   8  -12.40    5.70
  -4   0   8    1.30    5.40
  -4   0   8   -1.00    3.80
  -4   0   8   -9.90    5.30
   3   0  -8   -0.80    5.30
   3   0  -8   -4.90    4.60
   3   0  -8   -1.40    3.50
   3   0  -8   -3.40    4.10
  -3   0   8   -1.80    4.80
  -3   0   8    1.70    3.40
  -3   0   8   -2.20    4.80
  -3   0   8   -2.60    4.10
   2   0  -8    0.40    3.40
   2   0  -8    4.70    3.40
   2   0  -8    6.00    4.60
   2   0  -8    8.90    4.60
   2   0  -8    8.40    3.50
  -2   0   8    8.60    4.20
  -2   0   8    8.30    4.60
  -2   0   8    9.60    3.80
  -2   0   8    6.70    3.40
  -2   0   8    9.70    4.30
   1   0  -8   22.20    3.90
   1   0  -8   17.60    3.60
   1   0  -8   19.40    4.30
   1   0  -8   20.80    4.50
   1   0  -8   14.70    4.40
  -1   0   8   22.00    4.20
  -1   0   8   22.30    4.20
  -1   0   8   19.70    3.90
  -1   0   8   24.00    4.60
  -1   0   8   20.60    4.20
  -1   0   8   14.90    4.30
   0   0  -8  144.19    7.10
   0   0  -8  144.89    7.60
   0   0  -8  152.18    6.60
   0   0  -8  146.29    6.40
   0   0  -8  163.48    7.50
   0   0   8  149.88    7.20
   0   0   8  150.58    8.10
   0   0   8  164.18    7.40
   0   0   8  156.08    6.90
   0   0   8  162.88    6.90
  -1   0  -8 1535.85   31.10
  -1   0  -8 1559.54   32.00
  -1   0  -8 1547.85   32.10
  -1   0  -8 1528.05   31.80
  -1   0  -8 1591.64   31.40
   1   0   8 1558.64   31.50
   1   0   8 1556.34   31.90
   1   0   8 1552.04   33.90
   1   0   8 1562.74   31.70
   1   0   8 1553.74   32.10
  -2   0  -8  937.21   20.20
  -2   0  -8  938.11   19.70
  -2   0  -8  938.51   19.60
  -2   0  -8  933.21   20.20
  -2   0  -8  945.41   20.00
   2   0   8  945.31   19.80
   2   0   8  924.51   21.20
   2   0   8  908.91   23.00
   2   0   8  948.41   20.10
   3   0   8   41.10    4.80
   3   0   8   43.40    5.30
  -4   0  -8   32.00    4.60
   4   0   8   42.20    5.70
   4   0   8   33.30    4.40
  -5   0  -8  223.08    9.90
   5   0   8  201.58    9.00
   5   0   8  220.68   10.50
   6   0   8  529.25   17.50
   6   0   8  497.95   15.60
  -7   0  -8    9.90    4.80
   7   0   8    7.10    6.40
   7   0   8    9.40    4.50
  -8   0  -8   -3.40    5.80
   8   0   8   -3.20    4.50
  -9   0  -8   -4.40    6.10
   9   0   8    5.70    7.60
  10   0   8   -2.90    8.30
  11   0   8   20.80   10.30
   8  -1  -8   -6.40   15.10
   7  -1  -8   19.60   16.00
  -7   1   8   -9.20   14.20
   6  -1  -8    1.00    8.90
   6  -1  -8  -12.80   11.70
   6  -1  -8   18.60   11.40
   6  -1  -8   15.80   10.70
  -6   1   8   20.40   10.00
  -6   1   8    2.00   10.20
  -6   1   8    6.50   10.90
   5  -1  -8   70.59   10.10
   5  -1  -8   60.79    8.60
   5  -1  -8   72.09    9.70
   5  -1  -8   69.79   11.20
   5  -1  -8   66.79   10.80
  -5   1   8   55.09    9.60
  -5   1   8   54.19   10.40
  -5   1   8   65.29    9.90
  -5   1   8   48.10   10.10
   4  -1  -8   44.60    6.70
   4  -1  -8   27.00    8.30
   4  -1  -8   33.00    6.60
   4  -1  -8   23.10    7.10
   4  -1  -8   32.40    6.30
   4  -1  -8   33.90    8.30
  -4   1   8   25.70    7.00
  -4   1   8   37.10    5.30
  -4   1   8   19.10    6.90
  -4   1   8   33.30    7.30
  -4   1   8   33.70    7.50
  -4   1   8   37.90    8.10
   3  -1  -8   10.70    6.10
   3  -1  -8    8.70    4.50
   3  -1  -8    6.80    4.90
   3  -1  -8    8.00    6.00
   3  -1  -8    6.50    5.20
  -3   1   8   11.50    5.80
  -3   1   8    3.90    5.10
  -3   1   8    6.10    5.00
  -3   1   8    3.80    4.80
  -3   1   8   10.30    3.50
   2  -1  -8  321.07   12.90
   2  -1  -8  333.67   12.00
   2  -1  -8  318.97   13.50
   2  -1  -8  353.86   12.50
  -2   1   8  353.96   10.50
  -2   1   8  328.17   12.90
  -2   1   8  328.17   12.90
  -2   1   8  334.47   12.50
  -2   1   8  345.07   12.40
   1  -1  -8  613.14   16.40
   1  -1  -8  623.24   17.80
   1  -1  -8  614.74   16.30
   1  -1  -8  608.44   17.20
  -1   1   8  604.24   17.40
  -1   1   8  606.04   16.70
  -1   1   8  616.44   17.20
  -1   1   8  625.14   15.70
  -1   1   8  633.84   16.60
   0  -1  -8  603.54   16.30
   0  -1  -8  607.64   15.60
   0  -1  -8  604.74   15.50
   0  -1  -8  599.14   16.60
   0   1   8  594.14   15.70
   0   1   8  614.04   15.40
   0   1   8  593.84   16.30
   0   1   8  601.34   16.20
  -1  -1  -8   49.30    5.30
  -1  -1  -8   50.69    4.80
  -1  -1  -8   56.59    4.90
  -1  -1  -8   42.90    5.60
   1   1   8   52.59    5.70
   1   1   8   52.59    5.40
   1   1   8   55.19    5.40
   1   1   8   61.29    5.00
   1   1   8   54.69    4.50
  -2  -1  -8 1730.43   34.50
  -2  -1  -8 1731.63   34.40
  -2  -1  -8 1711.53   34.90
  -2  -1  -8 1699.63   34.90
   2   1   8 1652.63   35.20
   2   1   8 1722.53   34.60
   2   1   8 1728.43   34.80
   2   1   8 1728.63   33.30
   2   1   8 1694.93   34.40
  -3  -1  -8    7.80    2.30
  -3  -1  -8    1.30    2.20
  -3  -1  -8    1.90    2.50
  -3  -1  -8    2.70    2.40
   3   1   8    3.50    2.90
   3   1   8    2.40    2.30
   3   1   8    1.80    2.20
   3   1   8    4.40    3.10
   3   1   8   -0.90    3.40
  -4  -1  -8    9.60    2.50
  -4  -1  -8   13.10    2.80
  -4  -1  -8   13.40    2.60
  -4  -1  -8   10.00    2.70
   4   1   8   10.80    3.10
   4   1   8   10.60    4.00
   4   1   8   11.40    3.60
  -5  -1  -8 1182.98   23.80
  -5  -1  -8 1191.08   24.50
  -5  -1  -8 1172.28   28.00
  -5  -1  -8 1209.48   24.40
   5   1   8 1158.78   27.40
   5   1   8 1131.99   26.80
   6   1   8   34.70    6.60
   6   1   8   31.50    5.10
  -7  -1  -8    9.70    4.50
   7   1   8   11.30    4.20
   7   1   8    9.80    5.90
  -8  -1  -8   -4.20    4.70
   8   1   8   -0.10    6.20
  -9  -1  -8   -4.60    4.90
  -9  -1  -8    1.50    6.70
   9   1   8   -4.10    5.00
   9   1   8   -4.90    7.10
  10   1   8   17.90    8.90
  11   1   8   15.10   10.10
   7  -2  -8   29.40   15.30
  -7   2   8    9.40   16.70
   6  -2  -8    3.30   12.60
   6  -2  -8   13.00   13.30
   6  -2  -8   -2.20   11.10
  -6   2   8   -0.70   11.90
  -6   2   8   -4.30   12.80
  -6   2   8  -13.70   11.00
   5  -2  -8   35.80    9.30
   5  -2  -8   25.30    9.30
   5  -2  -8   29.80   10.00
   5  -2  -8   23.00   10.70
  -5   2   8   11.00    8.90
  -5   2   8   24.20    8.90
  -5   2   8   12.90    8.90
   4  -2  -8   68.19    8.80
   4  -2  -8   68.29    9.20
   4  -2  -8   57.79    7.70
   4  -2  -8   72.09    9.50
   4  -2  -8   70.89    9.80
   4  -2  -8   78.19   11.10
  -4   2   8   61.39    8.70
  -4   2   8   77.79    9.10
  -4   2   8   58.69    9.00
  -4   2   8   65.09   10.10
  -4   2   8   71.19    9.70
   3  -2  -8    1.90    5.30
   3  -2  -8    2.00    6.20
   3  -2  -8    3.80    5.20
   3  -2  -8   -2.70    5.90
   3  -2  -8    5.40    5.80
  -3   2   8  -10.10    5.40
  -3   2   8    5.00    6.10
  -3   2   8    6.80    6.00
  -3   2   8  -13.80    9.90
   2  -2  -8   77.39    9.40
   2  -2  -8   86.69    7.90
   2  -2  -8   79.89    7.70
   2  -2  -8   92.19    9.00
  -2   2   8   87.79    8.70
  -2   2   8  103.69    8.50
  -2   2   8   86.69    8.30
  -2   2   8   82.19    8.90
   1  -2  -8   35.10    5.40
   1  -2  -8   32.20    5.00
   1  -2  -8   25.60    5.80
   1  -2  -8   17.90    5.00
  -1   2   8   35.60    6.20
  -1   2   8   35.40    4.10
  -1   2   8   24.40    5.60
  -1   2   8   32.00    6.00
   0  -2  -8   63.79    5.90
   0  -2  -8   65.69    6.80
   0  -2  -8   71.29    6.10
   0  -2  -8   51.89    6.90
   0   2   8   68.69    6.80
   0   2   8   71.19    6.80
   0   2   8   56.79    6.30
   0   2   8   60.79    5.70
   0   2   8   72.09    6.60
  -1  -2  -8  201.68    9.10
  -1  -2  -8  217.28    8.40
  -1  -2  -8  208.98    8.40
  -1  -2  -8  205.28    8.90
   1   2   8  199.58    8.60
   1   2   8  196.98    9.10
   1   2   8  209.28    9.10
   1   2   8  206.08    7.50
   1   2   8  216.48    8.80
  -2  -2  -8 1922.01   39.80
  -2  -2  -8 1936.11   39.20
  -2  -2  -8 1930.61   39.60
  -2  -2  -8 1913.21   39.10
   2   2   8 1952.80   39.10
   2   2   8 1953.10   37.20
   2   2   8 1897.41   39.40
  -3  -2  -8  205.58    7.90
  -3  -2  -8  215.38    8.40
  -3  -2  -8  213.98    8.20
  -3  -2  -8  202.88    8.00
   3   2   8  211.28    7.90
   3   2   8  217.78    8.20
   3   2   8  206.38    8.70
   3   2   8  215.98    8.20
  -4  -2  -8  905.61   20.50
  -4  -2  -8  904.01   20.50
  -4  -2  -8  931.51   20.80
   4   2   8  916.11   20.30
   4   2   8  927.81   20.10
   4   2   8  914.71   20.40
   4   2   8  880.01   21.60
   4   2   8  932.71   21.10
   4   2   8  904.41   20.60
  -5  -2  -8   20.70    3.80
  -5  -2  -8   20.30    3.60
  -5  -2  -8   22.10    4.80
  -5  -2  -8   22.10    3.70
  -5  -2  -8   20.10    3.40
   5   2   8   17.80    3.20
   5   2   8   24.30    5.30
   5   2   8   24.30    4.00
   5   2   8   19.10    3.30
   5   2   8   17.70    4.90
  -6  -2  -8   87.69   10.30
  -6  -2  -8  122.39    6.90
  -6  -2  -8   97.29    8.60
  -6  -2  -8  115.39    6.60
  -6  -2  -8  108.79    6.40
   6   2   8  115.89    7.20
   6   2   8  129.49    7.60
   6   2   8  121.79    6.00
   6   2   8  132.79    8.60
   6   2   8  119.99    6.10
  -7  -2  -8    3.30    3.80
  -7  -2  -8   -3.00    3.60
  -7  -2  -8    2.10    3.80
  -7  -2  -8    2.00    3.70
  -7  -2  -8    2.90    4.90
   7   2   8   -3.30    4.90
   7   2   8    6.60    4.10
   7   2   8    1.50    4.60
   7   2   8   -1.40    3.60
  -8  -2  -8   92.49    7.30
  -8  -2  -8   96.89    7.70
  -8  -2  -8   95.69    6.90
  -8  -2  -8   90.09    7.80
  -8  -2  -8  104.19    9.80
   8   2   8  105.39    8.30
   8   2   8   92.49   10.00
  -9  -2  -8    6.40    6.40
  -9  -2  -8   16.30    5.30
  -9  -2  -8    9.10    5.50
  -9  -2  -8   -1.60    5.60
  -9  -2  -8   13.50    5.60
   9   2   8   -0.50    6.10
   9   2   8    9.60    5.80
 -10  -2  -8    4.20    7.00
 -10  -2  -8   -1.80    8.10
 -10  -2  -8    1.10    6.60
  10   2   8   -1.90    7.80
  10   2   8   -5.40    6.30
 -11  -2  -8   12.50   10.50
  11   2   8   -0.70    8.90
   7  -3  -8   24.30   16.50
   6  -3  -8   -0.80   16.20
   6  -3  -8  -18.30   11.80
  -6   3   8   16.50   12.90
   5  -3  -8   41.10   12.10
   5  -3  -8   -2.20   11.10
   5  -3  -8    4.00   10.80
   5  -3  -8    5.60    9.40
  -5   3   8   -6.10   10.40
  -5   3   8   34.20   11.10
  -5   3   8   -6.30   10.00
   4  -3  -8   26.60    8.40
   4  -3  -8   32.80   10.30
   4  -3  -8   16.30    8.00
   4  -3  -8   48.70    9.60
  -4   3   8   24.90    8.40
  -4   3   8   29.00    9.50
  -4   3   8   18.60   12.90
  -4   3   8   32.90    9.70
  -4   3   8   26.00    8.50
   3  -3  -8   38.10    7.60
   3  -3  -8   42.70   10.90
   3  -3  -8   46.20    7.50
   3  -3  -8   39.20    7.90
   3  -3  -8   35.70    6.90
  -3   3   8   25.70    8.20
  -3   3   8   35.30    7.50
  -3   3   8   44.80    8.00
  -3   3   8   28.90    7.70
  -3   3   8   36.40    8.80
   2  -3  -8  353.46   13.90
   2  -3  -8  330.67   13.20
   2  -3  -8  301.17   14.20
   2  -3  -8  309.77   15.10
   2  -3  -8  339.47   12.60
  -2   3   8  330.17   14.70
  -2   3   8  335.47   14.50
   1  -3  -8    1.50    4.40
   1  -3  -8   -2.20    4.60
   1  -3  -8    1.80    5.00
  -1   3   8    4.70    4.50
  -1   3   8    0.30    5.00
  -1   3   8    0.40    4.60
  -1   3   8    2.90    4.90
  -1   3   8   -3.30    4.30
   0  -3  -8 1317.07   31.60
   0  -3  -8 1361.76   30.60
   0  -3  -8 1291.47   31.00
   0  -3  -8 1382.46   30.50
   0   3   8 1333.77   31.40
   0   3   8 1339.67   30.50
   0   3   8 1350.06   29.90
   0   3   8 1330.47   31.10
  -1  -3  -8  595.84   17.10
  -1  -3  -8  612.44   16.70
  -1  -3  -8  604.24   16.60
  -1  -3  -8  582.64   17.40
   1   3   8  598.34   15.20
   1   3   8  632.34   19.60
   1   3   8  588.74   17.20
   1   3   8  590.14   16.60
   1   3   8  589.64   16.80
  -2  -3  -8  753.62   19.50
  -2  -3  -8  792.82   19.30
  -2  -3  -8  772.12   19.10
  -2  -3  -8  749.73   19.70
   2   3   8  735.73   19.20
   2   3   8  744.73   16.80
   2   3   8  753.32   19.10
   2   3   8  756.82   19.50
   2   3   8  768.02   19.70
  -3  -3  -8    0.30    3.30
  -3  -3  -8    4.10    3.50
  -3  -3  -8    7.60    3.30
  -3  -3  -8    1.40    3.10
   3   3   8    5.10    3.60
   3   3   8    4.40    3.30
   3   3   8    6.90    4.10
   3   3   8    7.30    3.40
   3   3   8    4.60    3.60
  -4  -3  -8 2223.58   45.80
  -4  -3  -8 2258.27   45.70
  -4  -3  -8 2357.86   46.10
  -4  -3  -8 2295.37   45.90
   4   3   8 2157.88   46.00
   4   3   8 2340.37   46.30
   4   3   8 2292.27   45.60
  -5  -3  -8  448.06   13.20
  -5  -3  -8  442.76   13.00
  -5  -3  -8  447.26   15.20
  -5  -3  -8  472.95   13.50
  -5  -3  -8  452.05   13.30
   5   3   8  443.66   13.10
   5   3   8  460.95   12.60
   5   3   8  455.65   12.80
   5   3   8  440.56   13.60
   5   3   8  460.65   13.80
  -6  -3  -8    1.60    3.70
  -6  -3  -8    1.70    3.80
  -6  -3  -8    3.30    3.80
  -6  -3  -8    6.40    4.10
  -6  -3  -8    4.30    4.70
   6   3   8    6.50    4.50
   6   3   8    9.80    3.60
   6   3   8    1.70    2.90
   6   3   8    6.00    3.40
   6   3   8   -1.20    5.10
  -7  -3  -8  315.97   12.40
  -7  -3  -8  333.07   13.90
  -7  -3  -8  338.57   11.80
  -7  -3  -8  327.97   11.20
  -7  -3  -8  309.07   11.20
   7   3   8  322.17   12.10
   7   3   8  321.47   10.70
   7   3   8  318.17   12.10
   7   3   8  342.27   13.70
   7   3   8  346.47   11.00
  -8  -3  -8   16.10    5.40
  -8  -3  -8   14.20    5.60
  -8  -3  -8    9.90    4.80
  -8  -3  -8   18.10    4.90
  -8  -3  -8   17.10    6.00
   8   3   8   24.40    6.60
   8   3   8   13.30    6.80
   8   3   8   27.30    7.10
   8   3   8   11.70    5.20
   8   3   8   10.90    4.70
   8   3   8   19.80    5.20
  -9  -3  -8   -0.80    6.00
  -9  -3  -8   -0.80    5.10
  -9  -3  -8   -3.50    6.30
  -9  -3  -8    2.70    5.10
  -9  -3  -8    4.50    6.20
   9   3   8   -2.70    5.80
   9   3   8    5.60    8.10
   9   3   8   -0.20    4.90
   9   3   8    5.20    6.00
   9   3   8   -1.10    7.90
 -10  -3  -8    8.60    8.30
 -10  -3  -8   15.80    7.00
 -10  -3  -8   -2.60    6.70
  10   3   8    8.80    8.30
  10   3   8   10.60    7.10
  11   3   8   -3.50    9.60
   6  -4  -8  -14.30   14.70
   5  -4  -8   14.50   11.30
   5  -4  -8   27.00   14.30
   5  -4  -8    9.00   13.60
  -5   4   8   29.60   19.90
  -5   4   8   33.80   13.20
  -5   4   8  -30.80   12.50
   4  -4  -8   45.40   10.30
   4  -4  -8   68.99   12.00
   4  -4  -8   70.39   12.10
  -4   4   8   68.09   10.90
  -4   4   8   73.09   11.00
  -4   4   8   70.49   11.90
   3  -4  -8   20.40    7.40
   3  -4  -8   15.10    9.30
   3  -4  -8    9.20    7.50
   3  -4  -8   24.60    8.20
   3  -4  -8   13.50    8.40
  -3   4   8   14.70    9.90
  -3   4   8    8.50    7.60
  -3   4   8   18.00    8.10
  -3   4   8    1.40    8.30
  -3   4   8   22.40    9.00
   2  -4  -8   45.40    7.90
   2  -4  -8   44.40    6.30
   2  -4  -8   35.20    8.30
   2  -4  -8   41.60    7.10
   2  -4  -8   44.00    7.30
  -2   4   8   29.10    7.30
  -2   4   8   42.60    7.80
  -2   4   8   33.80    8.30
  -2   4   8   36.80    7.50
  -2   4   8   43.70    8.10
   1  -4  -8   76.79    8.80
   1  -4  -8   95.89    9.30
   1  -4  -8   80.39    9.20
   1  -4  -8   73.19   10.20
  -1   4   8   80.79    8.80
  -1   4   8   78.79    9.30
  -1   4   8   78.79    9.70
  -1   4   8   76.09    9.50
  -1   4   8   79.69    8.90
   0  -4  -8  575.14   17.30
   0  -4  -8  560.14   18.10
   0  -4  -8  594.04   17.70
   0   4   8  562.14   17.00
   0   4   8  577.34   17.60
   0   4   8  570.24   18.10
   0   4   8  551.04   17.80
  -1  -4  -8   65.09    7.60
  -1  -4  -8   69.39    8.20
  -1  -4  -8   65.59    7.70
  -1  -4  -8   74.29    7.00
   1   4   8   75.39    7.90
   1   4   8   69.09    7.70
   1   4   8   66.19    7.60
   1   4   8   72.89    6.80
  -2  -4  -8  106.79    7.40
  -2  -4  -8  108.09    8.40
  -2  -4  -8  115.79    7.80
  -2  -4  -8  118.89    8.10
   2   4   8  123.29    8.50
   2   4   8  107.29    6.10
   2   4   8  109.39    7.80
   2   4   8   97.09    7.90
  -3  -4  -8  287.77   10.90
  -3  -4  -8  271.77   11.40
  -3  -4  -8  290.17   11.30
  -3  -4  -8  286.67   11.00
   3   4   8  270.97   11.50
   3   4   8  279.87   10.90
   3   4   8  288.87   11.20
   3   4   8  283.57   11.00
  -4  -4  -8 1155.48   26.80
  -4  -4  -8 1147.99   26.70
  -4  -4  -8 1130.49   26.70
  -4  -4  -8 1125.99   26.60
   4   4   8 1154.48   26.30
   4   4   8 1134.49   26.20
   4   4   8 1152.48   26.50
   4   4   8 1155.38   27.20
  -5  -4  -8  131.79    8.60
  -5  -4  -8  132.69    8.10
  -5  -4  -8  137.69    9.80
  -5  -4  -8  137.99    8.30
  -5  -4  -8  123.79    9.10
   5   4   8  143.09    9.20
   5   4   8  124.89    8.00
   5   4   8  137.39    8.30
   5   4   8  135.79    7.30
   5   4   8  145.19    7.50
  -6  -4  -8  124.49    8.40
  -6  -4  -8  136.39    8.40
  -6  -4  -8  118.49    9.30
  -6  -4  -8  103.79   10.80
  -6  -4  -8  130.59    8.50
   6   4   8  119.09    7.20
   6   4   8  130.39    8.20
   6   4   8  124.29    8.30
  -7  -4  -8   15.40    5.20
  -7  -4  -8   14.20    5.00
  -7  -4  -8   10.20    4.90
  -7  -4  -8   11.00    4.80
  -7  -4  -8    9.50    5.10
   7   4   8   10.90    5.70
   7   4   8   14.50    5.60
   7   4   8   16.30    5.10
   7   4   8    4.60    5.80
   7   4   8    7.40    4.10
   7   4   8   13.20    4.80
  -8  -4  -8   55.89    7.60
  -8  -4  -8   63.19    8.90
  -8  -4  -8   56.69    7.50
  -8  -4  -8   61.49    8.80
  -8  -4  -8   58.39    6.50
   8   4   8   58.69    8.50
   8   4   8   62.79    7.00
   8   4   8   57.99    7.20
   8   4   8   51.49    6.80
   8   4   8   49.10    7.70
   8   4   8   58.79    8.70
  -9  -4  -8   19.20    6.20
  -9  -4  -8   11.80    7.10
  -9  -4  -8   25.20    7.50
  -9  -4  -8   13.50    7.10
  -9  -4  -8   38.20    6.40
   9   4   8   19.70    9.40
   9   4   8   28.80    6.80
   9   4   8   23.10    6.20
   9   4   8   21.10    7.40
   9   4   8   23.70    8.70
 -10  -4  -8   16.50    8.50
 -10  -4  -8   15.60    7.30
 -10  -4  -8  -11.00    6.90
  10   4   8   -4.50    5.70
  10   4   8   -4.80    7.80
  11   4   8   -7.40    6.80
  11   4   8    0.50    9.20
  -5   5   8   24.10   15.50
   4  -5  -8   14.40   13.20
   4  -5  -8   39.20   12.80
  -4   5   8   22.10   11.60
  -4   5   8   21.00   12.70
  -4   5   8   25.60   11.50
   3  -5  -8    8.20   10.30
   3  -5  -8    2.50    8.30
   3  -5  -8    3.80   10.80
  -3   5   8   10.30    8.20
  -3   5   8   15.50    9.20
   2  -5  -8   64.29    8.00
   2  -5  -8   78.69   10.50
   2  -5  -8   70.79    9.80
   2  -5  -8   57.99    8.80
   2  -5  -8   50.59   18.20
  -2   5   8   67.29   10.40
  -2   5   8   60.99    9.60
  -2   5   8   68.79   10.60
  -2   5   8   64.99    9.20
  -2   5   8   67.09   10.70
   1  -5  -8   25.20    7.40
   1  -5  -8   30.20    6.80
   1  -5  -8   16.40    6.20
   1  -5  -8   12.40    5.10
   1  -5  -8   13.80    7.20
  -1   5   8   23.80    6.90
  -1   5   8   11.80    6.60
  -1   5   8   39.20    7.90
  -1   5   8   20.00    7.30
  -1   5   8   26.10    7.90
   0  -5  -8  173.58   11.10
   0  -5  -8  121.59   10.70
   0  -5  -8  151.58   10.20
   0  -5  -8  139.89   11.60
   0   5   8  141.79   10.90
   0   5   8  146.29   11.30
   0   5   8  149.79   10.50
   0   5   8  137.59   10.30
   0   5   8  149.19   11.30
  -1  -5  -8   79.19    9.60
  -1  -5  -8   83.39    9.00
  -1  -5  -8   77.99    8.40
  -1  -5  -8   93.89    8.70
   1   5   8   67.79    8.10
   1   5   8   93.19    8.90
   1   5   8   81.69    8.80
   1   5   8   71.19    9.30
   1   5   8   87.39    8.70
  -2  -5  -8  801.62   22.40
  -2  -5  -8  823.92   22.10
   2   5   8  809.52   22.40
   2   5   8  846.42   22.80
   2   5   8  820.62   20.00
   2   5   8  829.92   22.40
  -3  -5  -8  152.88    9.70
  -3  -5  -8  160.58    9.20
  -3  -5  -8  169.28    9.90
   3   5   8  165.18    7.20
   3   5   8  149.99    9.50
   3   5   8  173.78    9.60
   3   5   8  160.18    9.80
  -4  -5  -8   90.89    8.00
  -4  -5  -8   88.69    7.90
  -4  -5  -8   78.69    8.10
   4   5   8   78.29    8.00
   4   5   8   88.69    7.90
   4   5   8   76.09    7.30
  -5  -5  -8   78.39    8.20
  -5  -5  -8   73.89    8.40
  -5  -5  -8   71.09    9.00
  -5  -5  -8   68.99    8.10
  -5  -5  -8   77.49    7.90
   5   5   8   87.59    8.00
   5   5   8   79.39    8.80
   5   5   8   80.49    6.00
   5   5   8   82.79    8.10
  -6  -5  -8  387.06   14.60
  -6  -5  -8  397.36   15.20
  -6  -5  -8  368.16   13.90
  -6  -5  -8  387.76   13.80
  -6  -5  -8  403.26   14.30
   6   5   8  400.06   13.00
   6   5   8  399.46   13.90
   6   5   8  382.36   12.90
   6   5   8  368.46   14.90
   6   5   8  405.26   13.70
  -7  -5  -8  121.69    9.70
  -7  -5  -8  124.79    9.00
  -7  -5  -8  115.09   10.00
  -7  -5  -8  105.19    9.40
  -7  -5  -8  109.49   10.00
   7   5   8  114.29    9.30
   7   5   8  110.19    7.60
   7   5   8  123.79   10.40
   7   5   8  121.19   11.40
   7   5   8  117.79    9.70
  -8  -5  -8   10.00    6.80
  -8  -5  -8    4.30    5.60
  -8  -5  -8   -6.20    5.10
  -8  -5  -8   11.70    5.80
  -8  -5  -8   -4.50    5.70
   8   5   8    3.70    7.50
   8   5   8    2.90    6.40
   8   5   8   -2.90    4.50
   8   5   8    2.80    8.10
   8   5   8  -12.40    6.00
   8   5   8    3.90    5.90
  -9  -5  -8   52.29    9.30
  -9  -5  -8   42.60    7.60
  -9  -5  -8   48.10    7.50
  -9  -5  -8   49.40    9.90
  -9  -5  -8   52.59    8.50
   9   5   8   37.90   11.10
   9   5   8   59.09    8.60
   9   5   8   39.10    8.70
   9   5   8   50.79   10.40
 -10  -5  -8   13.30    9.20
 -10  -5  -8   -3.00    7.50
 -10  -5  -8   12.40    8.70
  10   5   8   11.70    8.10
  10   5   8    6.70    6.60
  11   5   8    3.80    9.20
  11   5   8   -0.20    7.10
   4  -6  -8   36.50   26.40
  -4   6   8  -17.80   14.60
   3  -6  -8   25.90   12.00
   3  -6  -8   -1.20   12.30
  -3   6   8  -16.90   11.00
  -3   6   8  -18.60   10.20
   2  -6  -8   45.10   11.40
   2  -6  -8   28.10   10.30
   2  -6  -8   44.90    9.70
   2  -6  -8   14.20    7.90
  -2   6   8   45.40    9.60
  -2   6   8   34.30    9.80
  -2   6   8   27.30    9.90
   1  -6  -8   23.70    8.50
   1  -6  -8   10.80    7.60
   1  -6  -8   18.20    6.00
   1  -6  -8   23.10    8.30
   1  -6  -8   12.30   10.00
  -1   6   8    8.90   10.10
  -1   6   8    0.20    8.70
  -1   6   8   14.90    8.80
  -1   6   8   11.20    8.20
  -1   6   8   34.30    8.10
   0  -6  -8    0.80    6.80
   0  -6  -8    0.80    7.50
   0  -6  -8   -4.60    8.20
   0  -6  -8    6.20    6.70
   0   6   8    4.30    7.00
   0   6   8   26.50    8.20
   0   6   8    5.80    6.30
  -1  -6  -8    1.80    6.50
  -1  -6  -8    4.60    6.70
  -1  -6  -8   -1.90    5.90
   1   6   8   13.70    6.10
   1   6   8   -5.90    5.60
   1   6   8    6.50    7.10
   1   6   8   -3.40    5.80
   1   6   8   -9.80    8.00
  -2  -6  -8  109.19   10.70
  -2  -6  -8  101.29   10.40
  -2  -6  -8  119.99   10.40
  -2  -6  -8  104.49    9.30
   2   6   8   98.89   10.10
   2   6   8  113.59    9.00
   2   6   8   91.49   11.00
   2   6   8  106.79   10.20
   2   6   8  126.79   10.50
  -3  -6  -8   33.40    6.90
  -3  -6  -8   32.50    7.60
  -3  -6  -8   22.00    8.20
  -3  -6  -8   29.60    6.90
   3   6   8   24.30    4.80
   3   6   8   28.30    6.50
   3   6   8   33.90    7.10
   3   6   8   31.20    6.30
  -4  -6  -8   81.19    8.90
  -4  -6  -8   81.29    9.20
  -4  -6  -8   70.09    8.60
  -4  -6  -8   93.49    9.30
   4   6   8  107.09    9.70
   4   6   8   80.29    8.90
   4   6   8   91.99    8.90
  -5  -6  -8    0.20    5.40
  -5  -6  -8   -3.00    4.70
  -5  -6  -8   -5.20    4.90
  -5  -6  -8    1.90    9.40
  -5  -6  -8    0.90    5.50
   5   6   8    0.80    4.80
   5   6   8    1.20    3.70
   5   6   8   -4.50    5.70
   5   6   8    2.20    5.10
  -6  -6  -8  105.99    9.80
  -6  -6  -8  121.39    9.80
  -6  -6  -8  123.19   10.10
  -6  -6  -8  117.89    9.60
   6   6   8  123.19    8.20
   6   6   8  110.29    9.50
   6   6   8  114.79    9.80
   6   6   8   98.89    7.30
   6   6   8  124.19   11.70
   6   6   8  121.49   10.80
  -7  -6  -8  102.99   10.80
  -7  -6  -8  148.49   11.10
  -7  -6  -8  127.69   10.70
  -7  -6  -8  132.79   10.50
   7   6   8  111.59   11.90
   7   6   8   96.69   13.10
   7   6   8  134.59    9.50
   7   6   8  116.19    8.00
   7   6   8  139.79   11.30
   7   6   8  116.49   10.30
  -8  -6  -8   -2.20    6.10
  -8  -6  -8    3.40    6.60
  -8  -6  -8   17.60    8.40
  -8  -6  -8   -7.50    6.20
  -8  -6  -8    5.20    7.20
   8   6   8    6.30    6.70
   8   6   8    1.20    4.80
   8   6   8   -4.40    9.80
   8   6   8   -4.50    7.10
   8   6   8    6.20    6.30
  -9  -6  -8   10.50    7.20
  -9  -6  -8    3.00    9.20
  -9  -6  -8    7.00    7.80
  -9  -6  -8   13.20    9.10
  -9  -6  -8    6.80    7.40
   9   6   8   11.70   12.50
   9   6   8   -0.60    8.60
   9   6   8   10.50    7.80
   9   6   8   15.20    7.80
 -10  -6  -8   12.30    8.80
  10   6   8    5.80    6.60
  10   6   8   10.80    8.80
  11   6   8    4.50    7.70
  11   6   8   -5.80    8.80
   3  -7  -8   28.30   17.00
  -3   7   8   -1.10   14.50
   2  -7  -8   50.39   14.00
   2  -7  -8   68.99   13.20
  -2   7   8   46.00   13.10
  -2   7   8   48.10   12.80
  -2   7   8   53.89   11.90
   1  -7  -8   15.80    9.60
   1  -7  -8   17.60   10.60
   1  -7  -8    0.80    7.60
   1  -7  -8    6.30   10.70
  -1   7   8   10.80    8.90
  -1   7   8    5.50    8.70
  -1   7   8   10.10   10.70
  -1   7   8   25.40   14.70
   0  -7  -8   14.80    6.30
   0  -7  -8   10.90    7.90
   0  -7  -8   32.20   10.40
   0  -7  -8   33.80    9.00
   0  -7  -8   10.00    8.40
   0   7   8   32.60    8.30
   0   7   8   39.20   10.00
   0   7   8   23.30    9.50
   0   7   8   19.30    8.60
   0   7   8    6.70    9.30
  -1  -7  -8    9.60    7.90
  -1  -7  -8   18.90    7.90
  -1  -7  -8   10.90    7.20
  -1  -7  -8    3.20    8.00
   1   7   8   16.50    7.40
   1   7   8    8.60    7.70
   1   7   8   19.00    8.40
   1   7   8   19.20    9.10
  -2  -7  -8   23.80    7.50
  -2  -7  -8   25.00    8.10
  -2  -7  -8   20.70    7.70
  -2  -7  -8   20.20    7.40
   2   7   8   32.00    8.00
   2   7   8   14.50    8.80
   2   7   8   24.70    7.60
   2   7   8   29.60    7.60
  -3  -7  -8    4.30    6.40
  -3  -7  -8   15.40    6.90
  -3  -7  -8    4.30    6.70
  -3  -7  -8    5.70    6.60
   3   7   8   16.20    7.30
   3   7   8   -2.80    6.30
   3   7   8    8.10    7.80
   3   7   8    9.20    7.90
  -4  -7  -8   12.20    6.50
  -4  -7  -8    5.60    6.20
  -4  -7  -8   10.80    6.20
  -4  -7  -8   22.60    6.60
   4   7   8   14.90    7.60
   4   7   8    6.00    6.30
   4   7   8   17.80    7.40
   4   7   8    9.80    6.50
  -5  -7  -8    8.10    6.60
  -5  -7  -8   13.60    6.40
  -5  -7  -8   13.70    6.20
  -5  -7  -8   16.50    6.80
  -5  -7  -8   11.00    6.50
   5   7   8    8.20    4.10
   5   7   8   12.50    6.90
   5   7   8   12.70    7.50
   5   7   8   17.50    8.00
   5   7   8    3.90    6.20
  -6  -7  -8   14.80    6.30
  -6  -7  -8   23.10    7.20
  -6  -7  -8   21.10    6.20
  -6  -7  -8   21.60    7.40
  -6  -7  -8   16.40    7.10
   6   7   8   18.90    7.00
   6   7   8   17.70    7.70
   6   7   8   18.00    4.90
   6   7   8   13.60    6.90
   6   7   8   18.20    8.80
  -7  -7  -8    3.10    7.50
  -7  -7  -8    0.00    6.10
  -7  -7  -8    5.30    6.80
  -7  -7  -8    5.80    7.00
  -7  -7  -8  -13.60    6.80
   7   7   8   -0.30   10.20
   7   7   8  -11.50    6.60
   7   7   8   -3.50    4.50
   7   7   8   -5.40    8.30
   7   7   8    9.20    7.10
  -8  -7  -8    0.40    7.40
  -8  -7  -8    9.70    7.50
  -8  -7  -8   -5.30    8.60
  -8  -7  -8   11.60    8.20
  -8  -7  -8   17.80    7.50
   8   7   8   11.60    8.50
   8   7   8    4.40    7.80
   8   7   8    3.50    5.20
  -9  -7  -8   15.00    8.20
  -9  -7  -8   14.30    8.50
  -9  -7  -8   12.80   10.20
  -9  -7  -8    3.70    8.40
   9   7   8    2.30    5.70
   9   7   8   -2.30    8.10
   9   7   8    5.40   10.40
  10   7   8  -14.40    9.10
  10   7   8  -10.40    6.70
  11   7   8   -0.10    9.70
  11   7   8    1.10    8.10
  -2   8   8   19.10   15.70
   1  -8  -8  -15.40   13.30
   1  -8  -8   11.30   13.10
  -1   8   8   21.00   11.60
  -1   8   8   -4.70   11.70
  -1   8   8    9.50   13.30
   0  -8  -8    1.90   10.80
   0  -8  -8    0.40   10.50
   0  -8  -8    4.60    8.00
   0  -8  -8    3.10   10.40
   0   8   8  -19.30   11.00
   0   8   8   11.50    9.70
   0   8   8    2.70   10.50
  -1  -8  -8   51.59   11.00
  -1  -8  -8   51.39   10.70
  -1  -8  -8   50.59   10.60
   1   8   8   64.19   11.40
   1   8   8   47.40   11.00
   1   8   8   60.19   10.60
  -2  -8  -8    8.00    8.80
  -2  -8  -8   12.80    8.80
  -2  -8  -8   -2.40    8.70
  -2  -8  -8    8.90    8.70
   2   8   8    8.00    7.50
   2   8   8    3.00   10.30
   2   8   8   -5.90    8.50
   2   8   8    9.30    8.50
  -3  -8  -8   28.00    8.30
  -3  -8  -8   29.30    9.20
  -3  -8  -8   46.00    9.00
  -3  -8  -8   42.60    9.80
   3   8   8   40.70    8.70
   3   8   8   16.10    9.70
   3   8   8   24.00    9.20
   3   8   8   29.20    8.20
  -4  -8  -8    6.10    7.70
  -4  -8  -8   20.20    8.00
  -4  -8  -8   19.90    8.10
  -4  -8  -8   11.70    7.90
   4   8   8    3.40    9.60
   4   8   8    9.20    7.50
   4   8   8    4.70    5.70
   4   8   8    2.70    8.70
   4   8   8   10.50    7.40
  -5  -8  -8   89.89   11.70
  -5  -8  -8   74.59   10.00
  -5  -8  -8   62.79   10.30
  -5  -8  -8   59.99    9.20
  -5  -8  -8   66.19    9.50
   5   8   8   67.19   12.60
   5   8   8   65.29   10.20
   5   8   8   61.79   10.80
   5   8   8   53.19    9.50
  -6  -8  -8   24.80    9.10
  -6  -8  -8   42.60    8.20
  -6  -8  -8   36.80    8.30
  -6  -8  -8   40.30    8.50
  -6  -8  -8   23.20    9.30
   6   8   8   41.90    9.70
   6   8   8   32.20    6.60
   6   8   8   29.90    8.80
   6   8   8   29.10    9.50
  -7  -8  -8   52.19    9.50
  -7  -8  -8   71.09   11.90
  -7  -8  -8   73.89   10.90
  -7  -8  -8   50.79    8.90
  -7  -8  -8   82.19   10.00
   7   8   8   53.29   10.30
   7   8   8   50.69   10.30
   7   8   8   55.09    7.40
  -8  -8  -8   22.90   12.40
  -8  -8  -8   20.20    8.80
  -8  -8  -8   26.30    9.50
  -8  -8  -8  -10.50   10.10
  -8  -8  -8    4.60    9.20
   8   8   8   21.60   10.20
   8   8   8   21.70   10.00
  -9  -8  -8   -3.90    9.60
  -9  -8  -8   -7.40    9.30
   9   8   8    1.60    6.00
   9   8   8   36.30   10.60
  10   8   8   -3.50    7.40
  10   8   8  -10.50    8.70
  11   8   8  -17.90    8.60
  11   8   8   12.30   11.20
   0  -9  -8   62.39   16.00
   0  -9  -8   48.20   15.10
   0   9   8   66.59   14.40
  -1  -9  -8   24.40   11.80
  -1  -9  -8   40.60    9.30
  -1  -9  -8   53.99   12.60
   1   9   8   37.80   12.40
   1   9   8   32.30   13.90
   1   9   8   12.60   11.80
  -2  -9  -8   58.39   11.80
  -2  -9  -8   71.39   12.50
  -2  -9  -8   58.29   13.40
   2   9   8   42.40   12.70
   2   9   8   73.79   12.40
   2   9   8   88.89   12.90
  -3  -9  -8   75.79   12.60
  -3  -9  -8   71.39   12.10
  -3  -9  -8   64.39   11.30
   3   9   8   85.39   11.30
   3   9   8  102.49   13.20
   3   9   8   80.69   12.30
  -4  -9  -8  -14.80   11.60
  -4  -9  -8   -8.50    9.50
  -4  -9  -8    8.50    9.10
  -4  -9  -8   -2.80   10.50
   4   9   8   -0.40    9.30
   4   9   8    1.90    7.10
   4   9   8    9.90   11.00
   4   9   8    6.60   10.70
  -5  -9  -8    5.30   10.00
  -5  -9  -8    6.40    9.80
  -5  -9  -8   23.20    9.50
  -5  -9  -8    5.90    8.90
  -5  -9  -8    8.80    7.70
   5   9   8   -0.90    8.30
   5   9   8    4.60    6.00
   5   9   8   14.70   11.70
   5   9   8    7.90    9.40
  -6  -9  -8   40.60   11.00
  -6  -9  -8   28.40    8.30
  -6  -9  -8   -2.30   10.70
  -6  -9  -8   16.30    9.40
  -6  -9  -8   21.50    9.80
   6   9   8   16.80    9.50
   6   9   8   38.50   10.00
   6   9   8   14.60    6.10
  -7  -9  -8   25.90   11.70
  -7  -9  -8   46.00    9.80
  -7  -9  -8   32.30   10.50
  -7  -9  -8   39.50   12.60
  -7  -9  -8   37.80   10.00
   7   9   8   23.90    9.90
   7   9   8   44.00   11.90
   7   9   8   17.80    6.30
  -8  -9  -8    6.60   13.40
  -8  -9  -8   -6.90    8.90
  -8  -9  -8   21.20   10.30
   8   9   8    1.30    6.40
   8   9   8   15.80   10.50
  -9  -9  -8    3.90   12.70
   9   9   8  -12.90   12.00
   9   9   8    0.00    7.40
  10   9   8   14.80    8.70
   1  10   8  -31.10   14.30
  -2 -10  -8   -8.60   14.20
   2  10   8   -1.40   12.80
  -3 -10  -8   54.19   14.80
  -3 -10  -8   57.29   14.70
   3  10   8   55.29   13.00
   3  10   8   68.69   14.30
  -4 -10  -8   80.29   13.80
  -4 -10  -8   38.30   10.50
  -4 -10  -8   32.40   12.90
  -4 -10  -8   22.60   13.80
   4  10   8   34.80    9.60
   4  10   8   22.70   11.80
   4  10   8    6.80   11.50
  -5 -10  -8    5.50   12.10
  -5 -10  -8   -5.10   11.60
  -5 -10  -8   13.00    9.60
  -5 -10  -8   32.90   11.10
   5  10   8  -16.40   14.00
   5  10   8    8.00   11.30
   5  10   8   -4.00   11.50
  -6 -10  -8   -4.20   13.70
  -6 -10  -8   14.90   12.10
  -6 -10  -8   31.10   10.40
   6  10   8   11.40   11.20
   6  10   8   -1.20    6.10
   6  10   8   -1.10   12.50
  -7 -10  -8   63.09   13.50
  -7 -10  -8   43.80   10.80
   7  10   8   24.50    7.40
   7  10   8   -3.80   11.20
  -8 -10  -8   11.20   12.00
   8  10   8   13.10    8.10
   8  10   8    9.20   14.00
   9  10   8   -6.40   16.20
   9  10   8    6.10    8.70
  10  10   8   10.90   10.50
   3  11   8   20.20   18.70
   3  11   8   28.50   16.00
  -4 -11  -8   88.69   17.10
   4  11   8   61.79   15.50
  -5 -11  -8   94.19   16.60
  -5 -11  -8   99.39   15.30
  -6 -11  -8   41.80   12.50
  -6 -11  -8   23.90   16.80
   6  11   8   22.40    8.40
  -7 -11  -8  -20.00   12.50
   7  11   8    1.90    7.60
   8  11   8    7.80    9.30
  -5 -10   9   -1.80    7.50
  -4 -10   9    0.90    7.70
  -3 -10   9    8.50    8.00
  -2 -10   9    6.30    7.70
  -1 -10   9   20.20    9.50
   0 -10   9   17.00    8.80
   1 -10   9   -6.30   12.70
  -6  -9   9    5.40    7.90
  -5  -9   9   -0.40    6.80
  -4  -9   9    6.20    8.20
   3   9  -9    3.90    9.00
  -3  -9   9    1.40    7.00
  -2  -9   9    1.80    7.00
  -1  -9   9   21.60    9.20
   0  -9   9   15.60    7.60
   1  -9   9   21.50   10.50
   2  -9   9    9.10   11.10
   3  -9   9   19.00   12.90
  -7  -8   9    2.90    7.40
  -6  -8   9   12.30    7.70
  -5  -8   9   32.90    7.70
   4   8  -9  121.19   13.60
   4   8  -9  124.19   13.80
   4   8  -9  114.39   15.70
  -4  -8   9  110.69   11.30
   3   8  -9   40.80   10.00
   3   8  -9   28.00    8.10
   3   8  -9   21.90    7.80
  -3  -8   9   33.00    8.30
   2   8  -9    9.60    7.70
   2   8  -9   -2.80    7.10
   2   8  -9    5.80    6.20
   2   8  -9   11.00    6.30
  -2  -8   9   12.20    7.20
   1   8  -9  -13.70    6.90
  -1  -8   9   -6.10    5.60
   0   8  -9   -8.20    7.50
   0  -8   9    2.80    6.20
  -1   8  -9   63.79    9.40
   1  -8   9   73.29   10.40
  -2   8  -9   26.50    8.60
  -3   8  -9  -16.50    9.70
   3  -8   9   -6.40    9.20
  -7  -7   9    4.60    7.10
   6   7  -9    7.00   13.60
  -6  -7   9   -1.70    6.80
   5   7  -9   -0.30    8.30
   5   7  -9    5.90    8.90
   5   7  -9   -5.50    9.90
  -5  -7   9    6.10    6.90
  -5  -7   9   13.30    9.10
   4   7  -9   29.10    6.80
   4   7  -9    9.20    8.60
   4   7  -9   35.40    9.70
   4   7  -9   24.70    7.80
  -4  -7   9   24.50    6.50
  -4  -7   9   34.10    8.70
   3   7  -9   66.09    8.80
   3   7  -9   36.00    8.00
   3   7  -9   51.79    7.60
   3   7  -9   47.80    7.60
   3   7  -9   31.70    8.90
  -3  -7   9   43.90    7.60
  -3  -7   9   49.10    7.90
  -3  -7   9   39.10    7.40
  -3  -7   9   50.09    8.90
   2   7  -9   25.20    5.70
   2   7  -9   21.70    6.00
   2   7  -9   22.70    7.10
   2   7  -9   22.70    6.20
  -2  -7   9   27.10    6.00
  -2  -7   9   27.10    6.70
  -2  -7   9   25.30    6.00
  -2  -7   9   22.60    6.80
   1   7  -9    1.90    4.60
   1   7  -9    6.90    5.00
   1   7  -9   -0.30    6.50
  -1  -7   9   -4.80    5.80
   0   7  -9   -4.70    5.60
   0  -7   9   -6.40    4.50
  -1   7  -9    3.00    6.10
   1  -7   9   32.60    8.00
  -2   7  -9   38.00    8.10
   2  -7   9   43.10    9.40
  -3   7  -9   -3.90    7.20
   3  -7   9    1.00    7.60
  -4   7  -9    7.90    8.50
  -5   7  -9   22.20   10.90
   5  -7   9   39.30   10.20
   6  -7   9   -1.60    8.60
  -8  -6   9   11.40    8.90
  -7  -6   9   -5.60   14.00
  -7  -6   9    3.70    7.70
   6   6  -9  -22.90   10.90
   6   6  -9   -6.80   10.10
  -6  -6   9   -3.90   10.90
  -6  -6   9    9.20    7.00
   5   6  -9   -8.00    8.90
   5   6  -9  -14.10   14.10
   5   6  -9   18.60    7.90
   5   6  -9    2.70    8.70
   5   6  -9    7.40    8.50
  -5  -6   9    2.30    8.40
  -5  -6   9   14.90    6.90
   4   6  -9   25.30    6.80
   4   6  -9   18.50    8.40
   4   6  -9   26.60    8.40
   4   6  -9   15.90    6.70
  -4  -6   9   28.00    7.20
  -4  -6   9   23.90    7.80
  -4  -6   9   14.20    7.10
   3   6  -9  113.29   11.10
   3   6  -9  140.59    9.10
   3   6  -9  145.79   10.60
   3   6  -9  133.19   10.40
  -3  -6   9  113.39   10.00
  -3  -6   9  137.09   13.00
  -3  -6   9  131.69   10.50
  -3  -6   9  117.79   10.10
  -3  -6   9  111.09   10.40
  -3  -6   9  137.69   10.60
   2   6  -9  139.29   10.70
   2   6  -9  142.49    9.00
   2   6  -9  153.78    9.40
   2   6  -9  149.19    9.80
  -2  -6   9  140.79    9.40
  -2  -6   9  133.79    8.90
  -2  -6   9  112.49   12.20
  -2  -6   9  135.79    9.10
  -2  -6   9  139.59   10.40
  -2  -6   9  137.29    9.10
   1   6  -9  216.28    9.70
   1   6  -9  212.98    8.60
   1   6  -9  212.18    9.00
   1   6  -9  212.08    9.00
   1   6  -9  215.68   11.70
  -1  -6   9  196.08   12.20
   0   6  -9   -5.60    3.00
   0   6  -9    0.40    5.30
   0  -6   9    3.00    5.10
  -1   6  -9   -4.50    5.00
   1  -6   9   -1.80    4.20
  -2   6  -9   35.60    6.50
   2  -6   9   27.00    6.60
  -3   6  -9   62.99    8.20
   3  -6   9   66.69    9.80
  -4   6  -9    4.80    6.60
   4  -6   9   11.30    7.80
   4  -6   9   26.40    8.20
  -5   6  -9    9.70    7.90
   5  -6   9    2.10    6.70
  -6   6  -9   40.10   10.70
   6  -6   9   37.70    9.40
   7  -6   9    8.10    9.00
  -8  -5   9   -0.10    8.90
  -7  -5   9   18.40    8.10
  -7  -5   9   15.70   12.90
   6   5  -9   22.90   11.70
   6   5  -9    6.10   10.60
   6   5  -9   -5.30   10.50
   6   5  -9   18.90   11.10
  -6  -5   9    4.90    6.20
  -6  -5   9   24.40   10.20
   5   5  -9   -4.00    7.20
   5   5  -9   11.80    8.40
   5   5  -9   11.70    7.60
   5   5  -9    5.80    8.20
   5   5  -9   -1.80    8.20
   5   5  -9   -1.40    7.70
  -5  -5   9    5.90    8.00
  -5  -5   9   -1.30    8.40
  -5  -5   9   -1.60    5.00
   4   5  -9    6.30    6.70
   4   5  -9    1.10    5.90
   4   5  -9   19.80    7.80
   4   5  -9   -3.10    5.80
   4   5  -9    7.70    6.50
   4   5  -9   15.30    7.90
  -4  -5   9   -3.40    7.10
  -4  -5   9    7.60    7.30
  -4  -5   9   -6.50    6.10
  -4  -5   9   -2.50    6.20
  -4  -5   9   -3.00    4.60
  -4  -5   9    2.20    6.90
   3   5  -9   24.60    6.50
   3   5  -9   30.60    6.30
   3   5  -9   25.20    5.60
   3   5  -9   37.60    5.50
   3   5  -9   21.10    5.90
  -3  -5   9   37.60    6.60
  -3  -5   9   36.00    8.20
  -3  -5   9   26.70    6.60
  -3  -5   9   25.10    6.30
  -3  -5   9   35.60    6.30
  -3  -5   9   36.90    6.80
   2   5  -9   44.70    6.50
   2   5  -9   22.20    6.00
   2   5  -9   38.40    5.40
   2   5  -9   25.00    5.70
  -2  -5   9   41.50    5.00
  -2  -5   9   41.40    6.00
  -2  -5   9   26.00    6.90
  -2  -5   9   31.80    5.40
  -2  -5   9   43.40    5.70
  -2  -5   9   32.00    6.70
  -2  -5   9   37.80    5.60
   1   5  -9  304.17   10.60
   1   5  -9  304.57   10.30
   1   5  -9  321.07   11.10
   1   5  -9  318.67   10.40
   1   5  -9  312.47   10.30
   1   5  -9  306.67   13.10
  -1  -5   9  296.97   14.80
  -1  -5   9  289.97    9.70
  -1  -5   9  331.77   10.30
  -1  -5   9  301.07   14.00
   0   5  -9   17.90    5.00
   0  -5   9    8.20    4.80
   0  -5   9   12.50    4.70
   1  -5   9   -0.40    4.90
   1  -5   9   -5.70    4.10
  -2   5  -9    4.50    3.30
   2  -5   9    1.60    4.40
   2  -5   9    1.00    4.40
  -3   5  -9    0.10    4.90
  -3   5  -9    2.50    3.30
   3  -5   9    3.40    4.50
  -4   5  -9    5.40    5.60
  -4   5  -9    3.60    3.70
   4  -5   9    8.20    5.70
   4  -5   9    4.20    5.90
  -5   5  -9   34.50    5.60
  -5   5  -9   43.20    7.30
   5  -5   9   36.70    8.70
  -6   5  -9   92.29   11.70
  -6   5  -9   70.59    9.60
   6  -5   9   65.19   11.00
  -7   5  -9    2.90   15.70
   7  -5   9   -1.10    7.80
  -8  -4   9   18.20   10.00
   7   4  -9  -14.60   13.60
  -7  -4   9    9.00    7.30
  -7  -4   9   19.50   13.00
   6   4  -9  -17.40   12.10
   6   4  -9   -8.20    9.60
   6   4  -9   -4.50   13.50
   6   4  -9   -7.50   10.00
   6   4  -9   -3.80   10.90
  -6  -4   9   -0.90   10.80
  -6  -4   9   -3.50    5.70
   5   4  -9   31.40    9.30
   5   4  -9   16.70    8.00
   5   4  -9   26.70    8.70
   5   4  -9   11.00    7.70
   5   4  -9   21.30    8.10
   5   4  -9   22.30    8.00
  -5  -4   9   24.60    8.20
  -5  -4   9   17.30    6.20
  -5  -4   9   20.40    9.10
   4   4  -9   11.10    5.50
   4   4  -9   17.10    7.00
   4   4  -9    4.90    6.30
   4   4  -9   19.60    6.30
   4   4  -9   -1.80    6.70
   4   4  -9   11.30    6.60
  -4  -4   9    8.80    5.00
  -4  -4   9    8.20    6.20
  -4  -4   9   16.80    7.60
  -4  -4   9    0.00    6.20
  -4  -4   9    2.60    6.50
  -4  -4   9    4.60    6.30
   3   4  -9    4.50    5.00
   3   4  -9    3.10    4.60
   3   4  -9    9.80    5.90
   3   4  -9    6.60    5.10
   3   4  -9   11.70    4.70
   3   4  -9    6.20    5.60
  -3  -4   9   19.20    6.00
  -3  -4   9   11.60    5.00
  -3  -4   9    5.30    5.60
  -3  -4   9    4.80    5.10
  -3  -4   9   12.30    4.30
  -3  -4   9    9.10    5.80
  -3  -4   9   13.00    6.20
   2   4  -9    5.20    5.00
   2   4  -9    4.00    4.30
   2   4  -9    3.70    3.80
   2   4  -9    8.90    5.00
   2   4  -9   10.20    3.90
   2   4  -9    3.90    4.40
  -2  -4   9    7.20    5.00
  -2  -4   9    1.30    3.90
  -2  -4   9    3.80    4.30
  -2  -4   9    7.30    4.40
  -2  -4   9    6.10    4.20
  -2  -4   9    4.60    5.00
   1   4  -9   87.29    6.20
   1   4  -9   85.99    6.70
   1   4  -9   68.59    6.60
   1   4  -9   70.69    5.80
   1   4  -9   61.99    7.90
   1   4  -9   75.19    7.10
  -1  -4   9   75.89    8.10
  -1  -4   9   71.29    5.60
  -1  -4   9   68.89    5.80
  -1  -4   9   73.39    6.70
  -1  -4   9   85.29    6.40
  -1  -4   9   72.29    6.40
   0   4  -9   68.89    7.00
   0   4  -9   68.59    5.00
   0   4  -9   66.59    5.70
   0  -4   9   72.39    7.80
   0  -4   9   60.99    7.60
   0  -4   9   75.79    8.80
  -1   4  -9   83.29    6.90
   1  -4   9   86.69    6.30
   1  -4   9   83.39    8.30
  -2   4  -9   39.00    5.20
  -2   4  -9   45.50    5.30
   2  -4   9   25.40    5.90
   2  -4   9   37.00    5.60
  -3   4  -9    4.10    3.80
  -3   4  -9    2.60    3.30
   3  -4   9    0.70    4.90
   3  -4   9    0.10    4.60
   3  -4   9    2.90    4.50
  -4   4  -9   16.30    4.80
  -4   4  -9   18.40    4.60
   4  -4   9   15.10    5.20
   4  -4   9   16.30    6.60
   4  -4   9   10.60    4.90
  -5   4  -9   29.40    6.00
  -5   4  -9   32.60    5.20
   5  -4   9   28.20    8.50
  -6   4  -9   68.79    8.90
  -6   4  -9   57.59    8.20
   6  -4   9   58.19   10.10
  -7   4  -9    9.80    6.50
  -7   4  -9    5.70    7.80
   7  -4   9   13.40    7.80
   8  -4   9   13.70    9.00
  -8  -3   9    0.90   10.10
   7   3  -9  -11.40   13.70
  -7  -3   9   14.10   12.40
  -7  -3   9   -2.10    7.90
   6   3  -9   16.30   11.50
   6   3  -9   20.40   11.00
   6   3  -9    7.70   10.10
   6   3  -9    0.90    9.30
  -6  -3   9    4.40   10.40
  -6  -3   9   15.20    8.90
  -6  -3   9   -0.60    6.60
   5   3  -9   15.40    7.20
   5   3  -9    8.00    8.80
   5   3  -9   12.40    8.50
   5   3  -9   14.40    7.80
   5   3  -9   19.00    8.10
   5   3  -9    2.40    7.80
  -5  -3   9   17.40    6.10
  -5  -3   9   20.90   10.50
  -5  -3   9   16.30    8.40
  -5  -3   9   18.80    8.70
   4   3  -9   11.00    6.10
   4   3  -9  -10.50    5.30
   4   3  -9    6.20    6.70
   4   3  -9   10.60    7.20
   4   3  -9    3.30    5.50
   4   3  -9   -2.20    6.70
  -4  -3   9    8.50    6.70
  -4  -3   9    5.20    6.60
  -4  -3   9    6.10    6.30
  -4  -3   9    5.10    4.70
  -4  -3   9    0.20    4.60
  -4  -3   9   -3.00    6.00
   3   3  -9  184.18   11.30
   3   3  -9  196.78   12.10
   3   3  -9  181.78   10.20
   3   3  -9  198.78    9.70
   3   3  -9  183.08    9.60
   3   3  -9  176.88   10.50
  -3  -3   9  184.58   10.20
  -3  -3   9  191.38   11.10
  -3  -3   9  180.38   10.80
  -3  -3   9  188.18    8.00
  -3  -3   9  185.98   11.20
  -3  -3   9  183.18    9.70
  -3  -3   9  189.08   10.40
   2   3  -9  270.97   11.20
   2   3  -9  284.57   10.60
   2   3  -9  275.67   10.20
   2   3  -9  275.27   10.10
   2   3  -9  273.97   11.70
  -2  -3   9  271.27   12.00
  -2  -3   9  283.07   11.30
  -2  -3   9  277.27    9.10
   1   3  -9   -3.50    3.80
   1   3  -9    5.60    3.40
   1   3  -9    9.20    4.50
   1   3  -9    2.30    3.80
   1   3  -9    4.30    3.90
  -1  -3   9    8.40    3.70
  -1  -3   9   -0.60    3.80
  -1  -3   9   -2.10    3.40
  -1  -3   9    3.30    4.50
  -1  -3   9    1.70    3.50
  -1  -3   9    7.70    3.60
   0   3  -9   90.99    6.20
   0   3  -9   85.79    6.00
   0   3  -9   83.99    6.70
   0   3  -9   87.19    5.30
   0   3  -9   82.39    5.10
   0  -3   9   85.09    5.90
   0  -3   9   78.49    7.10
   0  -3   9   88.09    5.90
   0  -3   9   90.49    7.70
   0  -3   9   84.49    5.90
  -1   3  -9  368.76   11.90
   1  -3   9  391.16   11.90
  -2   3  -9  212.98    8.40
   2  -3   9  201.38    8.70
   2  -3   9  192.08   10.70
  -3   3  -9   30.00    4.60
  -3   3  -9   28.20    4.00
   3  -3   9   22.20    5.30
   3  -3   9   25.70    4.50
   3  -3   9   35.70    6.10
  -4   3  -9    9.40    3.40
  -4   3  -9   11.30    4.00
   4  -3   9   10.50    4.80
   4  -3   9   14.90    5.90
  -5   3  -9   16.60    4.90
  -5   3  -9    6.50    4.00
   5  -3   9   24.30    7.90
   5  -3   9   13.30    5.30
  -6   3  -9    5.60    4.70
  -6   3  -9    7.00    5.10
   6  -3   9   22.20    5.80
   6  -3   9   18.30    7.20
  -7   3  -9   85.69    9.50
  -7   3  -9   84.79    9.40
   7  -3   9   71.59   11.30
  -8   3  -9   25.60    7.50
   8  -3   9   32.50    9.90
   9  -3   9    7.50    9.80
   8   2  -9    5.00   11.50
  -8  -2   9   15.80   12.20
   7   2  -9   37.30   14.50
  -7  -2   9   -9.70    8.60
  -7  -2   9  -12.80   14.30
   6   2  -9   45.30   11.60
   6   2  -9   25.00   10.20
   6   2  -9   18.10   10.90
   6   2  -9   26.30   11.70
  -6  -2   9   42.70    8.40
  -6  -2   9   20.90   10.10
  -6  -2   9   44.00   11.80
   5   2  -9   52.09    9.20
   5   2  -9   37.20    8.70
   5   2  -9   49.99    9.80
   5   2  -9   47.10    9.80
   5   2  -9   34.60    8.50
  -5  -2   9   50.39    8.60
  -5  -2   9   59.29    8.80
  -5  -2   9   62.49   10.70
  -5  -2   9   34.40    9.30
   4   2  -9   73.59    9.00
   4   2  -9   74.19    8.20
   4   2  -9   95.09    9.80
   4   2  -9   80.49    9.20
   4   2  -9   76.09    9.30
   4   2  -9   60.49    9.40
  -4  -2   9   68.49    9.00
  -4  -2   9   60.29    8.00
  -4  -2   9   67.99    7.90
  -4  -2   9   68.09    8.80
  -4  -2   9   78.19   10.70
  -4  -2   9   72.49    9.30
   3   2  -9   25.00    6.90
   3   2  -9   35.20    5.80
   3   2  -9   24.30    5.40
   3   2  -9   29.70    7.00
   3   2  -9   30.70    6.30
   3   2  -9   32.10    6.50
  -3  -2   9   37.30    7.00
  -3  -2   9   30.00    6.30
  -3  -2   9   26.10    6.50
  -3  -2   9   31.00    6.20
  -3  -2   9   27.30    6.10
   2   2  -9  305.67   11.10
   2   2  -9  289.17   12.20
   2   2  -9  325.07   11.10
   2   2  -9  301.37   12.80
   2   2  -9  345.67   11.70
   2   2  -9  310.57   13.30
  -2  -2   9  338.27   10.60
  -2  -2   9  321.77   12.70
  -2  -2   9  324.17   13.90
  -2  -2   9  337.17   12.60
   1   2  -9   88.29    7.00
   1   2  -9   72.49    5.70
   1   2  -9   90.39    7.40
   1   2  -9   87.19    6.10
  -1  -2   9   91.99    7.50
  -1  -2   9   83.89    6.70
  -1  -2   9   88.09    6.60
  -1  -2   9   83.79    5.70
  -1  -2   9   85.19    7.30
  -1  -2   9   83.19    6.70
   0   2  -9  149.88    7.40
   0   2  -9  149.79    6.20
   0   2  -9  141.99    7.30
   0   2  -9  149.79    6.30
   0   2  -9  141.69    7.60
   0  -2   9  155.18    6.20
   0  -2   9  155.08    9.60
   0  -2   9  154.38    7.10
   0  -2   9  150.08    6.80
   0  -2   9  141.49    6.80
   0  -2   9  143.79    7.30
   0  -2   9  141.39    8.80
  -1   2  -9  339.27    9.60
  -1   2  -9  322.07    8.60
  -1   2  -9  323.77    9.80
  -1   2  -9  331.77   10.70
  -1   2  -9  318.77    8.80
   1  -2   9  316.67   14.40
   1  -2   9  344.87   10.60
   1  -2   9  324.87   11.40
  -2   2  -9   96.19    5.60
   2  -2   9   72.89    7.10
   2  -2   9   81.69    6.10
  -3   2  -9  107.89    5.80
   3  -2   9  102.19    8.10
   3  -2   9  111.29    8.10
   3  -2   9  104.99    6.90
  -4   2  -9   18.30    4.40
  -4   2  -9   25.30    3.60
   4  -2   9   23.60    5.00
   4  -2   9   18.40    6.20
  -5   2  -9    2.50    3.00
  -5   2  -9    2.40    4.20
   5  -2   9    0.40    5.30
   5  -2   9    7.70    4.80
  -6   2  -9   -1.10    3.50
  -6   2  -9    3.80    4.70
   6  -2   9    1.10    5.90
   6  -2   9    1.20    5.40
  -7   2  -9   -3.40    5.20
  -7   2  -9   -0.70    4.20
   7  -2   9   -3.90    5.70
   7  -2   9   -0.80    4.90
  -8   2  -9   74.89   10.70
  -8   2  -9   82.89    9.80
   8  -2   9   87.69   12.10
  -9   2  -9    3.00    8.30
   9  -2   9   13.80    8.80
   8   1  -9  -12.80   13.00
   7   1  -9    7.30   14.80
   7   1  -9    6.00   10.90
  -7  -1   9    3.10   10.80
  -7  -1   9  -10.50   15.00
   6   1  -9  -16.50   10.30
   6   1  -9   31.40   11.30
   6   1  -9    3.20   11.20
  -6  -1   9   12.70   12.40
  -6  -1   9   31.10    8.50
  -6  -1   9   18.00   10.90
   5   1  -9   -0.10    9.00
   5   1  -9    8.60    8.40
   5   1  -9   20.10    8.90
   5   1  -9   -4.00    7.70
  -5  -1   9    5.80    8.40
  -5  -1   9    6.10    8.30
  -5  -1   9  -11.50    8.30
   4   1  -9   -2.10    6.50
   4   1  -9    6.10    6.60
   4   1  -9   16.30    6.00
   4   1  -9    8.20    6.40
   4   1  -9   18.60    6.40
  -4  -1   9    3.80    5.30
  -4  -1   9    8.90    6.80
  -4  -1   9   -5.50    6.70
  -4  -1   9    8.20    6.60
  -4  -1   9   18.60    7.70
  -4  -1   9    0.10    6.60
   3   1  -9   -3.10    5.30
   3   1  -9    9.10    6.20
   3   1  -9    2.70    6.50
   3   1  -9    9.10    4.90
   3   1  -9   -3.80    5.20
   3   1  -9    1.80    4.30
  -3  -1   9    1.00    4.00
  -3  -1   9   -6.00    5.30
  -3  -1   9  -10.80    5.00
  -3  -1   9   -0.40    5.90
  -3  -1   9   -4.60    5.00
  -3  -1   9   -2.50    4.60
   2   1  -9  194.48    9.20
   2   1  -9  196.98   11.10
   2   1  -9  208.38    9.20
   2   1  -9  187.48   11.10
   2   1  -9  213.08    9.60
   2   1  -9  191.98   10.50
  -2  -1   9  203.08   10.50
  -2  -1   9  190.98    9.30
  -2  -1   9  198.28    9.50
  -2  -1   9  185.98   10.30
  -2  -1   9  197.08   10.30
   1   1  -9  339.27   10.90
   1   1  -9  340.67   12.60
   1   1  -9  340.67   12.40
   1   1  -9  317.37   12.20
   1   1  -9  331.57   10.80
  -1  -1   9  329.17   10.40
  -1  -1   9  333.47   11.30
  -1  -1   9  335.67   12.00
  -1  -1   9  338.97   12.10
  -1  -1   9  349.17   12.40
   0   1  -9  729.43   17.30
   0   1  -9  725.83   18.20
   0   1  -9  729.63   18.50
   0   1  -9  737.73   17.30
   0   1  -9  730.83   18.80
   0  -1   9  741.73   17.70
   0  -1   9  746.43   18.20
   0  -1   9  697.93   19.80
   0  -1   9  758.22   17.60
   0  -1   9  748.53   18.10
   0  -1   9  722.73   17.80
   0  -1   9  723.33   18.70
  -1   1  -9   14.40    3.50
  -1   1  -9   14.20    3.40
  -1   1  -9   19.40    2.90
  -1   1  -9   16.10    2.90
  -1   1  -9   18.40    3.60
   1  -1   9   17.30    3.90
   1  -1   9   19.10    3.40
   1  -1   9   14.00    3.30
   1  -1   9   11.10    4.20
   1  -1   9   16.70    3.40
   1  -1   9    9.00    3.80
   1  -1   9   18.50    3.10
  -2   1  -9    3.50    2.60
   2  -1   9    1.10    3.30
   2  -1   9    1.40    3.00
   2  -1   9    5.20    3.80
  -3   1  -9  190.98    6.60
   3  -1   9  180.38    8.90
   3  -1   9  166.38    7.90
   3  -1   9  155.78   10.00
  -4   1  -9  709.53   15.70
  -4   1  -9  695.83   19.30
   4  -1   9  689.13   18.60
   4  -1   9  708.13   19.70
  -5   1  -9   -3.70    4.10
   5  -1   9   -1.80    3.10
   5  -1   9    4.50    5.60
  -6   1  -9    2.90    4.50
   6  -1   9   10.40    4.30
   6  -1   9    8.10    5.40
  -7   1  -9   -3.00    5.10
   7  -1   9   -1.00    6.50
   7  -1   9   -1.30    4.70
  -8   1  -9   16.10    6.50
   8  -1   9    5.50    5.90
   8  -1   9    5.10    7.70
  -9   1  -9   42.30    9.10
   9  -1   9   67.39   11.40
  10  -1   9    6.80   11.10
   7   0  -9  -14.50   16.50
   7   0  -9   25.10   14.70
   6   0  -9   60.79   13.50
   6   0  -9    6.40   12.20
   6   0  -9   40.20   11.40
   6   0  -9   38.90   10.60
  -6   0   9   40.00    9.80
  -6   0   9   53.09   12.70
  -6   0   9   35.00   11.90
   5   0  -9  -11.60    7.10
   5   0  -9    4.50    9.10
   5   0  -9   -1.70    9.30
   5   0  -9   28.10    9.20
   5   0  -9    6.20    8.40
  -5   0   9    6.70    6.80
  -5   0   9   12.60    9.10
  -5   0   9   10.60    8.90
  -5   0   9   18.50    9.30
   4   0  -9  208.78   12.50
   4   0  -9  237.28   13.00
   4   0  -9  243.58   14.00
   4   0  -9  245.68   14.30
   4   0  -9  259.67   14.40
  -4   0   9  228.98   14.60
  -4   0   9  228.58   15.10
  -4   0   9  220.98   13.80
  -4   0   9  205.08   13.90
  -4   0   9  215.38   13.10
  -4   0   9  252.57   11.10
   3   0  -9  250.97   13.20
   3   0  -9  251.97   11.70
   3   0  -9  252.37   11.60
   3   0  -9  239.18   11.50
   3   0  -9  239.08   13.20
  -3   0   9  248.68   12.20
  -3   0   9  271.97   10.60
  -3   0   9  217.38   11.90
  -3   0   9  261.37   13.20
  -3   0   9  248.08   13.00
  -3   0   9  235.58   12.60
   2   0  -9  307.67   11.90
   2   0  -9  288.67   13.50
   2   0  -9  295.27   11.30
   2   0  -9  316.87   11.90
   2   0  -9  287.47   12.90
  -2   0   9  319.67   12.80
  -2   0   9  322.97   13.00
  -2   0   9  315.67   12.60
  -2   0   9  300.57   11.00
  -2   0   9  322.57   12.20
   1   0  -9   -1.80    4.20
   1   0  -9    2.00    3.70
   1   0  -9    0.10    4.50
   1   0  -9   -1.20    3.50
   1   0  -9    3.00    4.20
  -1   0   9   -1.30    4.00
  -1   0   9    5.90    4.70
  -1   0   9   -1.30    3.50
  -1   0   9    6.50    3.60
  -1   0   9   -2.40    4.30
  -1   0   9    3.50    4.10
   0   0  -9 1637.24   35.80
   0   0  -9 1671.53   35.80
   0   0  -9 1673.93   36.10
   0   0  -9 1669.73   34.50
   0   0  -9 1672.43   34.60
   0   0   9 1660.23   35.20
   0   0   9 1733.23   36.10
   0   0   9 1718.53   35.10
   0   0   9 1665.93   36.60
  -1   0  -9  192.68    8.60
  -1   0  -9  211.38    7.80
  -1   0  -9  202.38    8.60
  -1   0  -9  217.38    7.80
  -1   0  -9  219.38    8.40
   1   0   9  191.58    8.10
   1   0   9  218.48    8.10
   1   0   9  205.48    9.50
   1   0   9  212.28    8.10
   1   0   9  210.68    7.90
   1   0   9  212.18    8.30
   1   0   9  198.88    8.30
  -2   0  -9   19.80    3.60
  -2   0  -9   18.60    2.90
  -2   0  -9   29.20    4.20
  -2   0  -9   21.50    3.30
  -2   0  -9   20.60    3.30
   2   0   9   22.60    5.20
   2   0   9   24.10    3.50
   2   0   9   21.70    4.50
   2   0   9   21.30    3.50
   2   0   9   21.90    3.70
   2   0   9   16.40    3.40
  -3   0  -9 1137.69   23.20
  -3   0  -9 1142.79   23.10
   3   0   9 1137.99   24.90
   3   0   9 1045.90   25.30
  -4   0  -9   15.80    4.50
   4   0   9   27.70    5.70
   4   0   9   23.90    4.80
  -5   0  -9   29.50    5.90
   5   0   9   49.70    7.30
   5   0   9   33.80    5.30
  -6   0  -9    9.50    4.70
   6   0   9   14.90    5.90
   6   0   9   16.30    5.00
  -7   0  -9    3.40    5.10
   7   0   9   -3.70    6.10
  -8   0  -9   -4.30    6.10
   8   0   9    4.70    7.30
   8   0   9   -1.80    5.20
  -9   0  -9   -2.60    7.50
   9   0   9    8.70    6.10
   9   0   9   -0.80    8.00
  10   0   9   15.10    9.70
   7  -1  -9  -35.40   15.40
   6  -1  -9    5.90   11.40
   6  -1  -9  -13.30   13.80
   6  -1  -9    7.60   12.80
  -6   1   9    2.40   12.30
  -6   1   9    8.20   13.30
   5  -1  -9    3.10    9.40
   5  -1  -9   -0.60    8.80
   5  -1  -9   -2.80   10.80
   5  -1  -9   -1.30   10.30
  -5   1   9  -14.50   10.20
  -5   1   9    7.80   10.00
   4  -1  -9  147.99   10.60
   4  -1  -9  163.18   14.10
   4  -1  -9  175.88   20.00
   4  -1  -9  120.59   11.70
   4  -1  -9  156.88   12.80
   4  -1  -9  137.59   13.80
  -4   1   9  117.49   14.00
  -4   1   9  146.39   14.10
  -4   1   9  158.68   12.90
  -4   1   9  148.99   13.60
  -4   1   9  143.19   13.90
   3  -1  -9   -2.60    5.60
   3  -1  -9    0.30    6.40
   3  -1  -9    3.10    5.30
   3  -1  -9    3.70    5.10
   3  -1  -9    9.20    7.10
  -3   1   9    6.40    6.20
  -3   1   9    6.40    6.10
  -3   1   9    9.00    6.70
  -3   1   9    2.80    4.20
  -3   1   9    7.10    6.40
  -3   1   9   -3.30    6.50
   2  -1  -9    6.40    5.50
   2  -1  -9   -3.40    4.60
   2  -1  -9   -1.50    4.30
   2  -1  -9    3.00    5.40
  -2   1   9   -6.70    4.80
  -2   1   9    2.60    5.30
  -2   1   9    4.70    3.60
  -2   1   9    9.70    5.60
   1  -1  -9   78.09    6.80
   1  -1  -9   86.19   11.80
   1  -1  -9   85.59    7.10
   1  -1  -9   59.69    8.00
  -1   1   9   69.79    7.20
  -1   1   9   69.99    8.10
  -1   1   9   64.89    7.30
  -1   1   9   72.49    6.00
  -1   1   9   81.39    7.90
   0  -1  -9  904.01   23.20
   0  -1  -9  967.50   22.40
   0  -1  -9  944.61   22.20
   0  -1  -9  968.60   24.00
   0   1   9  935.21   22.70
   0   1   9  934.61   23.10
   0   1   9  929.61   22.20
   0   1   9  964.40   23.60
  -1  -1  -9   -6.80    3.70
  -1  -1  -9   -4.00    2.90
  -1  -1  -9   -1.30    2.90
  -1  -1  -9   -4.80    3.70
   1   1   9   -6.80    3.70
   1   1   9   -5.00    3.60
   1   1   9   -1.80    3.20
   1   1   9    1.90    3.00
  -2  -1  -9  690.23   17.30
  -2  -1  -9  689.53   17.20
  -2  -1  -9  681.93   16.40
  -2  -1  -9  659.33   16.40
   2   1   9  671.83   16.30
   2   1   9  698.13   15.70
   2   1   9  675.23   16.90
   2   1   9  664.23   17.30
   2   1   9  677.93   16.60
   2   1   9  676.03   16.80
  -3  -1  -9    1.80    2.50
  -3  -1  -9    5.20    2.70
  -3  -1  -9   11.00    3.10
  -3  -1  -9    3.00    3.30
   3   1   9    2.30    3.70
   3   1   9   -1.10    3.70
   3   1   9   -0.60    3.00
   3   1   9    1.90    2.90
   3   1   9    5.30    2.80
   3   1   9    4.80    2.90
  -4  -1  -9  137.69    6.30
  -4  -1  -9  141.29    6.60
  -4  -1  -9  144.79    6.00
  -4  -1  -9  133.29    6.30
   4   1   9  148.29    7.70
   4   1   9  132.29    7.10
   5   1   9   21.00    5.80
   5   1   9   16.80    4.30
  -6  -1  -9   25.90    5.70
   6   1   9   16.40    4.80
   6   1   9   24.80    6.70
  -7  -1  -9   35.30    6.10
   7   1   9   47.30    8.20
   7   1   9   34.30    5.80
  -8  -1  -9   -3.10    5.60
   8   1   9    1.60    4.20
   8   1   9   -1.10    7.30
  -9  -1  -9   -1.90    7.40
   9   1   9   -4.20    5.70
   9   1   9   13.10    7.90
  10   1   9   15.60    9.10
  10   1   9    3.70    6.10
  11   1   9   23.20   11.20
   6  -2  -9    7.80   11.90
   6  -2  -9   20.30   15.90
  -6   2   9    9.40   14.60
   5  -2  -9   29.80   12.30
   5  -2  -9   -5.30   10.40
   5  -2  -9   -4.80   12.10
   5  -2  -9  -13.60   10.00
  -5   2   9  -10.00   10.20
  -5   2   9   14.70   10.60
   4  -2  -9  122.09   14.80
   4  -2  -9  124.49   13.60
   4  -2  -9  153.98   14.80
   4  -2  -9   96.69   12.90
  -4   2   9  109.39   14.20
  -4   2   9  125.49   14.00
  -4   2   9  109.39   14.30
   3  -2  -9   12.40    6.90
   3  -2  -9    3.40    6.20
   3  -2  -9   25.00    8.10
   3  -2  -9    8.30    6.10
   3  -2  -9   22.60    7.90
  -3   2   9   10.10    7.70
  -3   2   9   17.90    7.80
  -3   2   9    5.90    7.40
  -3   2   9    6.00    7.50
  -3   2   9   13.40    6.60
   2  -2  -9  640.24   18.70
   2  -2  -9  617.54   20.50
   2  -2  -9  619.34   18.60
   2  -2  -9  607.74   20.20
   2  -2  -9  602.34   18.10
  -2   2   9  609.14   19.10
  -2   2   9  635.24   20.40
  -2   2   9  592.64   20.10
  -2   2   9  629.94   19.00
   1  -2  -9  206.28   10.30
   1  -2  -9  218.18   12.20
  -1   2   9  211.88   11.40
  -1   2   9  221.38   11.50
  -1   2   9  206.68   10.50
  -1   2   9  197.58   10.20
   0  -2  -9  362.26   12.40
   0  -2  -9  373.06   12.50
   0  -2  -9  353.36   13.60
   0  -2  -9  343.47   16.00
   0   2   9  356.06   13.00
   0   2   9  357.06   12.10
   0   2   9  362.66   12.50
   0   2   9  356.46   13.20
  -1  -2  -9   54.69    7.00
  -1  -2  -9   85.09    6.30
  -1  -2  -9   78.09    7.70
  -1  -2  -9   73.89    6.40
   1   2   9   89.69    5.90
   1   2   9   67.29    7.00
   1   2   9   74.69    7.20
   1   2   9   84.19    7.20
  -2  -2  -9 1226.68   27.90
  -2  -2  -9 1208.48   28.10
  -2  -2  -9 1234.78   27.40
  -2  -2  -9 1236.28   27.20
   2   2   9 1272.57   27.90
   2   2   9 1221.08   25.30
   2   2   9 1273.17   28.00
   2   2   9 1193.38   27.50
  -3  -2  -9  564.74   14.90
  -3  -2  -9  550.84   15.20
  -3  -2  -9  584.04   15.20
  -3  -2  -9  561.24   15.40
   3   2   9  561.44   14.80
   3   2   9  581.14   15.50
   3   2   9  542.85   15.50
   3   2   9  561.54   15.00
  -4  -2  -9    7.40    3.60
  -4  -2  -9    2.50    3.00
  -4  -2  -9    3.00    3.20
  -4  -2  -9   -2.90    2.90
   4   2   9    0.10    3.30
   4   2   9    5.60    3.30
   4   2   9    4.40    3.90
   4   2   9    7.00    3.10
   4   2   9    2.90    4.10
   4   2   9    2.90    3.20
  -5  -2  -9  306.87   13.20
  -5  -2  -9  326.27   10.20
  -5  -2  -9  299.27   10.70
  -5  -2  -9  314.57   10.60
  -5  -2  -9  320.77   10.20
   5   2   9  316.77    9.80
   5   2   9  334.27   11.80
   5   2   9  318.17   10.90
   5   2   9  304.37   11.30
   5   2   9  313.07    9.70
  -6  -2  -9   81.89    8.50
  -6  -2  -9   77.49    6.00
  -6  -2  -9   71.29    6.00
  -6  -2  -9   76.19    6.30
  -6  -2  -9   74.49    6.40
   6   2   9   88.19    7.50
   6   2   9   63.59    6.40
   6   2   9   68.19    8.40
  -7  -2  -9    5.90    3.80
  -7  -2  -9    7.20    4.30
  -7  -2  -9    2.70    4.10
  -7  -2  -9   -0.20    5.10
   7   2   9    2.80    6.00
   7   2   9    1.30    4.60
  -8  -2  -9   60.99    6.70
  -8  -2  -9   81.09    7.70
  -8  -2  -9   69.89    6.90
  -8  -2  -9   61.29    8.30
   8   2   9   58.79    7.20
   8   2   9   72.29   10.20
  -9  -2  -9  -10.10    7.70
  -9  -2  -9    8.00    5.40
  -9  -2  -9   20.90    6.30
  -9  -2  -9   10.50    5.20
   9   2   9    8.50    5.80
   9   2   9    8.40    7.80
  10   2   9    8.20    6.20
  10   2   9   15.40    9.50
  11   2   9    9.60   10.10
  -6   3   9    2.00   21.50
   5  -3  -9    1.20   15.80
  -5   3   9   -8.60   12.50
  -5   3   9  -19.80   12.30
   4  -3  -9    3.10   10.00
   4  -3  -9   -5.90   11.40
   4  -3  -9   10.70    9.40
  -4   3   9   -8.30    8.80
  -4   3   9   -7.50   10.50
  -4   3   9   11.70   10.20
   3  -3  -9   -0.50    6.90
   3  -3  -9   -0.60    9.10
   3  -3  -9    4.50    9.10
   3  -3  -9    7.20    7.80
   3  -3  -9   17.90    9.00
  -3   3   9    6.90    8.10
  -3   3   9    5.60    8.30
  -3   3   9   18.30    8.60
  -3   3   9   -1.80    8.50
  -3   3   9    3.40    9.00
   2  -3  -9  218.88   13.90
   2  -3  -9  211.18   13.70
   2  -3  -9  221.38   12.20
   2  -3  -9  196.28   11.20
   2  -3  -9  192.08   20.40
  -2   3   9  220.48   13.60
  -2   3   9  220.28   13.00
  -2   3   9  221.78   13.90
  -2   3   9  227.38   13.70
  -2   3   9  197.98   12.20
   1  -3  -9   34.50    6.40
   1  -3  -9   29.20    6.20
   1  -3  -9   23.40    7.20
   1  -3  -9   20.00    6.90
  -1   3   9   30.40    6.20
  -1   3   9   13.50    5.80
  -1   3   9   34.20    7.20
  -1   3   9   28.00    6.70
   0  -3  -9   27.00    7.60
   0  -3  -9   36.80    5.70
   0  -3  -9   33.90    6.60
   0   3   9   25.90    5.30
   0   3   9   30.80    6.10
   0   3   9   27.10    5.40
   0   3   9   32.60    6.30
  -1  -3  -9   93.59    8.50
  -1  -3  -9  105.99    7.60
  -1  -3  -9   98.89    7.70
   1   3   9  105.49    7.90
   1   3   9  100.39    6.70
   1   3   9  111.99    8.40
   1   3   9  112.59    8.20
  -2  -3  -9  431.56   13.50
  -2  -3  -9  411.86   14.20
  -2  -3  -9  415.86   14.50
  -2  -3  -9  445.26   13.70
   2   3   9  434.86   14.10
   2   3   9  428.96   11.40
   2   3   9  410.36   13.80
   2   3   9  435.36   14.30
  -3  -3  -9  359.56   11.90
  -3  -3  -9  360.06   12.60
  -3  -3  -9  338.07   12.30
  -3  -3  -9  340.37   11.80
   3   3   9  348.77   12.20
   3   3   9  346.57   12.30
   3   3   9  350.06   11.60
  -4  -3  -9   18.70    4.50
  -4  -3  -9   14.50    4.20
  -4  -3  -9   15.50    4.70
   4   3   9   15.80    5.00
   4   3   9   26.10    5.00
   4   3   9   20.70    4.60
   4   3   9   25.00    4.50
  -5  -3  -9   22.40    4.70
  -5  -3  -9   25.20    4.80
  -5  -3  -9   22.60    5.20
  -5  -3  -9   20.50    4.60
  -5  -3  -9   23.10    5.00
   5   3   9   32.90    5.40
   5   3   9   34.10    4.60
   5   3   9   26.80    4.70
   5   3   9   23.90    5.30
   5   3   9   22.90    4.90
  -6  -3  -9   20.90    4.70
  -6  -3  -9   16.60    4.70
  -6  -3  -9   17.60    5.60
  -6  -3  -9   19.30    4.70
   6   3   9   22.30    5.30
   6   3   9   18.80    5.70
   6   3   9   27.90    4.70
   6   3   9   24.30    4.70
   6   3   9   25.60    4.70
  -7  -3  -9   47.00    6.90
  -7  -3  -9   49.60    6.70
  -7  -3  -9   54.69    6.30
  -7  -3  -9   44.70    6.10
  -7  -3  -9   55.69    6.60
   7   3   9   53.59    7.00
   7   3   9   50.59    8.00
   7   3   9   56.89    7.40
   7   3   9   57.49    6.80
   7   3   9   59.39    8.30
   7   3   9   47.30    6.50
  -8  -3  -9   23.80    6.40
  -8  -3  -9   21.50    6.20
  -8  -3  -9    9.20    5.50
  -8  -3  -9   18.90    5.30
  -8  -3  -9   13.50    5.00
   8   3   9   21.90    5.70
   8   3   9    9.80    6.90
   8   3   9   32.30    7.40
   8   3   9   10.30    5.20
   8   3   9   26.10    7.30
  -9  -3  -9    6.80    5.70
  -9  -3  -9    4.00    6.60
  -9  -3  -9    8.40    5.70
  -9  -3  -9  -11.20    7.40
   9   3   9   15.90    9.30
   9   3   9    0.90    5.40
 -10  -3  -9    6.50    7.50
  10   3   9   17.50    9.30
  10   3   9   15.80    6.90
  11   3   9    5.80    6.80
  11   3   9    1.80    9.50
   5  -4  -9  -35.30   19.10
  -5   4   9    1.90   14.80
   4  -4  -9    0.20   12.30
   4  -4  -9   22.40   12.50
   4  -4  -9   -8.80   11.70
  -4   4   9   25.10   21.80
  -4   4   9    1.80   11.40
  -4   4   9   28.60   11.80
   3  -4  -9    7.10    9.20
   3  -4  -9    2.20   10.10
   3  -4  -9    6.00    9.40
  -3   4   9   22.50    9.20
  -3   4   9   12.00   10.00
  -3   4   9   10.10    9.50
   2  -4  -9   32.50    8.60
   2  -4  -9   19.80    7.10
   2  -4  -9   39.60    8.70
   2  -4  -9   22.50    7.20
   2  -4  -9   29.70    7.80
  -2   4   9   20.30    7.70
  -2   4   9   28.70    8.80
  -2   4   9   15.60    8.30
   1  -4  -9    9.80    7.00
   1  -4  -9   27.20    7.50
   1  -4  -9   24.30    5.90
   1  -4  -9   18.40    7.10
   1  -4  -9   20.20    6.50
  -1   4   9    5.70    6.70
  -1   4   9    0.50    6.40
  -1   4   9   22.70    7.20
  -1   4   9   33.10    7.60
  -1   4   9   16.00    7.70
   0  -4  -9  124.29    9.70
   0  -4  -9  124.09   10.90
   0  -4  -9  111.29   10.80
   0  -4  -9  138.99   10.20
   0   4   9  123.59   10.40
   0   4   9  131.99   10.40
   0   4   9  108.59   10.40
   0   4   9  119.79    9.60
  -1  -4  -9   94.39    8.60
  -1  -4  -9   81.59    9.10
  -1  -4  -9   89.89    9.30
   1   4   9   94.49    8.60
   1   4   9   82.69    9.00
   1   4   9   93.29    7.70
   1   4   9  108.39    9.30
  -2  -4  -9   48.30    6.40
  -2  -4  -9   52.09    7.20
  -2  -4  -9   56.99    7.20
   2   4   9   47.80    5.20
   2   4   9   40.30    6.30
   2   4   9   52.69    6.80
   2   4   9   51.79    7.20
  -3  -4  -9   39.20    5.90
  -3  -4  -9   50.49    6.70
  -3  -4  -9   19.00    9.20
  -3  -4  -9   42.70    7.70
   3   4   9   38.90    6.30
   3   4   9   46.60    6.50
   3   4   9   48.90    6.40
  -4  -4  -9   87.89    7.50
  -4  -4  -9  111.69    8.40
  -4  -4  -9  106.89    8.00
  -4  -4  -9   90.39    8.80
   4   4   9  112.49    8.10
   4   4   9   99.49    6.70
   4   4   9  106.69    7.90
  -5  -4  -9   69.09    7.40
  -5  -4  -9   78.49    7.20
  -5  -4  -9   60.69    7.50
  -5  -4  -9   76.29    7.50
  -5  -4  -9   61.49    8.80
   5   4   9   67.09    6.10
   5   4   9   57.59    7.40
  -6  -4  -9    2.10    4.30
  -6  -4  -9   -0.20    4.40
  -6  -4  -9   -6.50    4.70
  -6  -4  -9    3.40    4.70
  -6  -4  -9    5.10    5.30
   6   4   9   -2.30    4.50
   6   4   9    6.10    5.60
   6   4   9    1.50    5.90
   6   4   9   -6.10    4.40
   6   4   9   10.30    5.60
   6   4   9    0.60    3.60
  -7  -4  -9   75.79    9.40
  -7  -4  -9   75.49    8.70
  -7  -4  -9   66.59    8.70
  -7  -4  -9   72.29    7.90
  -7  -4  -9   59.99    8.00
   7   4   9   76.69    9.70
   7   4   9   82.99   10.30
   7   4   9   66.89    8.80
   7   4   9   79.19    7.90
   7   4   9   64.59    9.60
   7   4   9   59.59    6.80
  -8  -4  -9    4.60    6.00
  -8  -4  -9    3.30    6.00
  -8  -4  -9   24.10    7.20
  -8  -4  -9   13.00    5.40
  -8  -4  -9    2.80    5.60
   8   4   9    4.40    7.90
   8   4   9   13.10   12.70
   8   4   9    9.20    6.90
   8   4   9   11.30    5.90
   8   4   9   14.90    5.90
  -9  -4  -9    0.90    6.20
  -9  -4  -9    2.90    6.40
  -9  -4  -9   -4.60    7.50
  -9  -4  -9   -0.40    7.80
  -9  -4  -9    2.70    7.40
   9   4   9   -8.70    7.40
   9   4   9   -1.40    4.90
   9   4   9    8.30    8.70
 -10  -4  -9   18.20    8.00
  10   4   9   18.80    6.80
  10   4   9   30.80   11.00
  11   4   9    4.50    7.10
  11   4   9    3.30   11.30
   4  -5  -9  -29.30   14.40
  -4   5   9   17.40   15.00
   3  -5  -9   12.30   11.70
   3  -5  -9    7.80   12.00
   3  -5  -9   19.10   10.50
  -3   5   9  -17.20    9.40
  -3   5   9    5.90   11.20
  -3   5   9  -17.80   12.10
   2  -5  -9   -7.40    9.00
   2  -5  -9   14.80    9.20
   2  -5  -9   17.80   10.90
   2  -5  -9   -0.30    9.60
  -2   5   9  -17.10    9.80
  -2   5   9   17.80    9.30
  -2   5   9  -14.10   10.00
   1  -5  -9   16.80    7.80
   1  -5  -9   15.50    6.30
   1  -5  -9   15.70    7.70
   1  -5  -9   22.60    8.10
   1  -5  -9   15.00    7.90
  -1   5   9   21.20    8.30
  -1   5   9   19.00    9.30
  -1   5   9   10.30    7.80
  -1   5   9   13.40    7.50
  -1   5   9   19.50    8.00
   0  -5  -9   21.10    6.60
   0  -5  -9   10.50    7.10
   0  -5  -9   16.40    7.10
   0   5   9    6.80    7.00
   0   5   9   10.70    7.30
   0   5   9   13.40    7.70
   0   5   9   16.10    7.20
  -1  -5  -9    4.80    5.50
  -1  -5  -9   -8.00    6.30
  -1  -5  -9   -3.10    5.40
  -1  -5  -9    8.80    6.90
   1   5   9    6.00    6.70
   1   5   9    1.60    6.30
   1   5   9    2.70    5.30
   1   5   9   -1.50    5.90
   1   5   9    4.30    5.70
  -2  -5  -9  135.19   10.00
  -2  -5  -9  113.39   10.10
  -2  -5  -9  119.99    9.30
  -2  -5  -9  118.59   10.20
   2   5   9  122.59   10.10
   2   5   9  116.49    9.80
   2   5   9  132.19    8.20
   2   5   9  115.89   10.10
  -3  -5  -9   80.09   10.70
  -3  -5  -9   87.89    9.30
  -3  -5  -9   91.19    8.70
  -3  -5  -9   91.19    9.40
   3   5   9   91.49    8.90
   3   5   9   92.69    9.20
   3   5   9   89.29    8.90
   3   5   9   94.69    6.10
  -4  -5  -9  -13.30    5.20
  -4  -5  -9   -4.80    4.60
  -4  -5  -9    1.70    5.60
  -4  -5  -9   -3.60    5.10
   4   5   9   -1.90    4.70
   4   5   9    5.90    5.50
   4   5   9    3.60    3.20
   4   5   9    1.20    4.70
   4   5   9    0.80    6.10
  -5  -5  -9   85.29    9.10
  -5  -5  -9   82.79    8.40
  -5  -5  -9   90.79    9.20
  -5  -5  -9   75.59    8.50
   5   5   9   65.99    8.30
   5   5   9   76.89    6.70
   5   5   9   91.79   10.40
   5   5   9   78.69    8.80
   5   5   9   89.19    9.20
  -6  -5  -9    4.00    5.30
  -6  -5  -9    1.30    5.10
  -6  -5  -9   -0.80    4.80
  -6  -5  -9   -2.70    5.60
  -6  -5  -9    1.50    5.30
   6   5   9   -0.10    8.40
   6   5   9    7.60    5.60
   6   5   9    1.70    6.70
   6   5   9    3.70    5.50
   6   5   9   11.50    6.30
   6   5   9    3.80    3.80
  -7  -5  -9    9.40    6.80
  -7  -5  -9    4.00    6.20
  -7  -5  -9    3.80    5.40
  -7  -5  -9    1.00    5.80
  -7  -5  -9   11.70    5.70
   7   5   9    8.30    7.80
   7   5   9    8.40    6.20
   7   5   9    2.90    6.80
   7   5   9    7.30    7.20
   7   5   9    4.30    5.10
  -8  -5  -9    7.50    6.00
  -8  -5  -9    4.90    5.90
  -8  -5  -9    5.10    7.20
  -8  -5  -9   -3.10    6.50
  -8  -5  -9    6.90    6.70
   8   5   9    6.50    9.30
   8   5   9    2.90    6.90
   8   5   9    4.90    6.20
   8   5   9   -2.90    6.90
  -9  -5  -9  -11.50    6.70
  -9  -5  -9   11.10    8.10
  -9  -5  -9   -5.80    9.70
  -9  -5  -9    0.00    6.70
   9   5   9    9.90    8.90
   9   5   9   10.80    8.50
   9   5   9    1.20    5.40
 -10  -5  -9    6.00    8.40
  10   5   9    7.00   10.30
  10   5   9    4.20    5.80
  11   5   9  -11.40   10.00
  11   5   9    9.10    7.10
   3  -6  -9   29.90   15.60
  -3   6   9   38.00   14.10
   2  -6  -9   52.99   12.60
   2  -6  -9   38.20   11.90
   2  -6  -9   18.60   12.50
  -2   6   9   56.29   10.90
  -2   6   9   57.69   12.00
  -2   6   9   27.60   13.00
   1  -6  -9   18.00   10.00
   1  -6  -9   30.30    9.60
   1  -6  -9   18.80    9.80
  -1   6   9   22.80   10.90
  -1   6   9   15.70   10.20
  -1   6   9   24.50    9.30
  -1   6   9   29.70    9.90
   0  -6  -9   14.50    8.30
   0  -6  -9   12.80    8.00
   0  -6  -9    6.60    7.40
   0  -6  -9   -6.30    7.80
   0   6   9   -2.80    8.70
   0   6   9   -1.20    7.60
   0   6   9    2.00    7.90
   0   6   9   12.40    9.30
   0   6   9   10.30    7.30
  -1  -6  -9   21.00    7.00
  -1  -6  -9   27.80    8.60
  -1  -6  -9   26.70    8.40
  -1  -6  -9   28.30    8.10
   1   6   9   22.50    7.90
   1   6   9   34.50    8.30
   1   6   9   23.10    8.70
   1   6   9   25.90    7.10
   1   6   9   20.30    7.70
  -2  -6  -9   68.39    9.20
  -2  -6  -9  103.29   11.20
  -2  -6  -9   90.09   11.20
  -2  -6  -9   93.99   10.20
   2   6   9   78.19    9.90
   2   6   9   84.19   11.60
   2   6   9   77.49   11.80
   2   6   9   91.59   11.20
   2   6   9   89.69   11.00
  -3  -6  -9   10.80    6.90
  -3  -6  -9   11.00    6.00
  -3  -6  -9   20.10    7.00
  -3  -6  -9   11.80    6.60
   3   6   9   13.80    7.10
   3   6   9   10.70    6.30
   3   6   9   19.30    7.40
   3   6   9   11.40    4.70
   3   6   9   14.20    6.60
  -4  -6  -9    5.90    6.10
  -4  -6  -9   13.90    6.50
  -4  -6  -9   10.50    6.20
  -4  -6  -9   12.80    6.20
   4   6   9   17.90    6.10
   4   6   9   17.80    7.50
   4   6   9   16.60    6.80
   4   6   9   15.90    6.90
  -5  -6  -9   44.10    7.10
  -5  -6  -9   56.89    8.00
  -5  -6  -9   54.39    8.20
  -5  -6  -9   57.19    7.50
  -5  -6  -9   54.59    8.20
   5   6   9   58.99    8.10
   5   6   9   55.09    7.60
   5   6   9   51.59    9.10
   5   6   9   41.50    7.80
   5   6   9   47.70    6.20
  -6  -6  -9   -2.40    6.70
  -6  -6  -9   -2.50    5.80
  -6  -6  -9    6.40    6.40
  -6  -6  -9   -5.80    6.00
  -6  -6  -9    2.80    5.90
   6   6   9    8.10    6.20
   6   6   9   -3.20    5.90
   6   6   9    0.40    4.40
   6   6   9    0.30    8.00
   6   6   9    0.70    7.30
  -7  -6  -9    4.50    7.00
  -7  -6  -9  -12.30    5.90
  -7  -6  -9    8.10    6.70
  -7  -6  -9   -2.60    7.80
  -7  -6  -9   -3.80    6.60
   7   6   9   -7.70    6.80
   7   6   9    9.80    5.10
   7   6   9   18.60   10.30
   7   6   9   23.80    9.50
   7   6   9    7.40    6.90
   7   6   9    7.00    6.80
  -8  -6  -9   -3.90    7.00
  -8  -6  -9   10.40    7.40
  -8  -6  -9    0.90    7.30
  -8  -6  -9   11.90    7.60
  -8  -6  -9    7.60    8.80
   8   6   9   17.80    8.10
   8   6   9    4.20    5.60
   8   6   9    6.80    7.40
   8   6   9    1.80    7.50
  -9  -6  -9    3.10    8.70
  -9  -6  -9  -14.90    7.80
  -9  -6  -9    4.90   13.60
  -9  -6  -9   -3.50    7.70
   9   6   9   -2.80    9.20
   9   6   9   20.20    9.50
   9   6   9    3.70    5.60
  10   6   9    2.70    6.60
  10   6   9  -10.40    9.70
  11   6   9    5.70   11.20
  11   6   9   -0.50    7.50
   2  -7  -9   35.70   15.90
  -2   7   9   11.10   14.10
   1  -7  -9   12.70   12.40
   1  -7  -9   23.60   12.50
   1  -7  -9   27.70   12.30
  -1   7   9   52.79   11.70
  -1   7   9   40.70   11.60
  -1   7   9   32.90   14.00
   0  -7  -9   11.60    9.90
   0  -7  -9   11.60    9.80
   0  -7  -9   25.90   11.00
   0  -7  -9    6.40   14.20
   0   7   9   10.10    9.20
   0   7   9    8.70   11.20
   0   7   9    4.80   10.00
   0   7   9   -2.70   10.20
  -1  -7  -9    1.00    8.90
  -1  -7  -9   -4.60    8.50
  -1  -7  -9    9.50    8.60
  -1  -7  -9    0.90    8.50
   1   7   9   -7.50    9.20
   1   7   9   -0.80    8.30
   1   7   9   15.20    9.30
   1   7   9    4.00    7.80
  -2  -7  -9    9.40    8.10
  -2  -7  -9   -8.10    7.70
  -2  -7  -9   11.20    7.40
  -2  -7  -9   15.10    8.10
   2   7   9   10.60    7.80
   2   7   9   -3.00    8.10
   2   7   9   -8.10    9.80
   2   7   9    3.30    6.90
   2   7   9   -9.30    8.30
  -3  -7  -9   73.89   10.30
  -3  -7  -9   82.29   11.30
  -3  -7  -9   73.19   10.00
   3   7   9   58.29    9.50
   3   7   9   72.39   11.70
   3   7   9   72.89   10.10
   3   7   9   71.59   10.80
   3   7   9   63.19    9.60
  -4  -7  -9    1.00    6.90
  -4  -7  -9    5.50    7.20
  -4  -7  -9    0.50    7.20
  -4  -7  -9    0.10    7.80
   4   7   9    0.20    9.50
   4   7   9    2.40    9.00
   4   7   9   17.10    8.20
   4   7   9    5.70    8.10
   4   7   9    0.90    4.80
  -5  -7  -9   63.79    8.60
  -5  -7  -9   53.29    9.00
  -5  -7  -9   69.89    9.60
  -5  -7  -9   79.29   10.60
  -5  -7  -9   65.09    8.80
   5   7   9   68.29   10.50
   5   7   9   49.30    8.40
   5   7   9   56.09    9.90
   5   7   9   61.69    9.50
   5   7   9   64.69    7.20
  -6  -7  -9   82.99   11.90
  -6  -7  -9   84.89   10.30
  -6  -7  -9   89.69   10.90
  -6  -7  -9   89.29   11.80
  -6  -7  -9   98.79   11.40
   6   7   9   95.09   10.60
   6   7   9   77.89    7.60
   6   7   9   96.09   13.50
   6   7   9   86.59   10.20
  -7  -7  -9   -2.20    7.10
  -7  -7  -9    0.20    7.30
  -7  -7  -9  -11.60    8.70
  -7  -7  -9   -2.80    7.90
  -7  -7  -9    0.90    7.30
   7   7   9    1.00    7.80
   7   7   9    9.30    7.60
   7   7   9   -4.80    8.00
  -8  -7  -9   -1.70    7.80
  -8  -7  -9   -6.20    9.40
  -8  -7  -9   -8.80    7.60
  -8  -7  -9   17.00    8.60
   8   7   9   14.00    9.50
   8   7   9   -0.90    5.00
   8   7   9   11.40    8.50
  -9  -7  -9   -6.60    9.70
  -9  -7  -9    9.20   10.70
  -9  -7  -9   12.20    9.60
   9   7   9    8.00    9.70
   9   7   9    8.20   11.30
   9   7   9    4.60    6.20
  10   7   9  -12.10   11.00
  10   7   9    4.40    7.30
  11   7   9  -11.70    8.00
  11   7   9   26.40   11.90
   1  -8  -9   15.00   16.20
  -1   8   9   11.40   13.90
   0  -8  -9   46.10   14.50
   0   8   9   71.79   13.70
   0   8   9   78.29   14.20
  -1  -8  -9  144.29   18.50
  -1  -8  -9  165.98   18.50
  -1  -8  -9  188.28   17.70
   1   8   9  159.18   16.90
   1   8   9  162.88   17.00
   1   8   9  174.28   17.20
   1   8   9  153.98   19.00
  -2  -8  -9    9.30   10.30
  -2  -8  -9   25.30   10.50
  -2  -8  -9   18.30   10.20
   2   8   9   27.70   10.80
   2   8   9   27.90    9.70
   2   8   9   24.60    9.20
  -3  -8  -9   11.30    9.70
  -3  -8  -9   -7.90    8.70
  -3  -8  -9    5.80    9.90
  -3  -8  -9   -7.30    8.90
   3   8   9   -1.30    7.40
   3   8   9   -1.80   10.20
   3   8   9   10.80    9.10
   3   8   9   11.20    8.50
  -4  -8  -9   16.70    8.20
  -4  -8  -9   14.10    9.70
  -4  -8  -9    2.00    8.70
  -4  -8  -9    4.30    9.40
   4   8   9   21.70    8.80
   4   8   9  -11.60    9.20
   4   8   9   -3.20    7.50
   4   8   9    0.90    8.70
  -5  -8  -9   99.09   13.60
  -5  -8  -9  116.59   12.80
  -5  -8  -9  111.29   13.60
  -5  -8  -9  100.39   12.70
  -5  -8  -9   93.09   11.70
   5   8   9  124.99   14.20
   5   8   9  104.29   13.20
  -6  -8  -9   39.60    9.20
  -6  -8  -9   20.90    9.60
  -6  -8  -9   23.20    8.50
  -6  -8  -9   34.20    8.80
  -6  -8  -9   37.40   11.30
   6   8   9   38.80   10.30
   6   8   9   32.80    7.20
   6   8   9   22.40    9.00
  -7  -8  -9    7.30    9.70
  -7  -8  -9    8.70    9.00
  -7  -8  -9   12.90    9.10
  -7  -8  -9    8.20    9.90
  -7  -8  -9   -5.60   11.40
   7   8   9   17.20   10.20
   7   8   9    2.00    5.50
   7   8   9   16.40    9.90
   7   8   9   10.70    9.00
  -8  -8  -9    4.60   11.20
  -8  -8  -9   17.60   10.30
  -8  -8  -9   -4.20    8.80
  -8  -8  -9   -9.70    9.50
   8   8   9    5.50    5.80
   8   8   9   11.00    9.50
   8   8   9   19.70   10.40
   9   8   9    8.10   12.60
   9   8   9   16.70    7.20
   9   8   9   12.80   11.30
  10   8   9    7.90    8.00
  10   8   9   42.90   12.90
   0   9   9   31.20   15.10
  -1  -9  -9   -1.70   13.80
   1   9   9   36.70   14.30
  -2  -9  -9   51.89   14.10
  -2  -9  -9   25.50   13.40
  -2  -9  -9   24.60   13.70
   2   9   9   28.70   12.10
   2   9   9   -1.20   12.40
   2   9   9   -5.10   11.50
  -3  -9  -9   27.20   12.40
  -3  -9  -9   -0.70   11.90
  -3  -9  -9    4.10   11.50
   3   9   9   23.50   11.20
   3   9   9   20.60   11.40
   3   9   9   19.70   11.60
  -4  -9  -9   16.60   11.60
  -4  -9  -9    6.40   11.10
  -4  -9  -9   18.50   11.30
   4   9   9   12.10   10.30
   4   9   9    4.40    8.10
  -5  -9  -9   16.00   11.40
  -5  -9  -9   26.40    9.70
  -5  -9  -9   -1.00   10.60
  -5  -9  -9   30.80   10.20
   5   9   9   15.40   10.20
   5   9   9   41.10   10.30
  -6  -9  -9   75.19   18.40
  -6  -9  -9  115.29   18.70
  -6  -9  -9  119.09   15.40
  -6  -9  -9  105.39   13.00
  -6  -9  -9   79.79   12.60
   6   9   9   76.89    8.80
   6   9   9   94.29   12.80
   6   9   9  102.39   14.10
  -7  -9  -9    9.30   10.40
  -7  -9  -9   -6.10   11.40
   7   9   9    9.10   11.10
   7   9   9    5.00    6.50
  -8  -9  -9  -11.80   11.20
   8   9   9   -1.00    6.70
   8   9   9    7.30   11.00
   8   9   9    4.90   12.30
   9   9   9   16.60   12.70
   9   9   9    5.40    7.60
  10   9   9   10.10    8.70
  10   9   9   11.20   13.80
  -2 -10  -9   81.09   18.30
   2  10   9   88.99   18.20
  -3 -10  -9   67.69   15.40
   3  10   9   81.19   16.50
  -4 -10  -9   83.79   14.40
  -4 -10  -9   44.50   12.00
   4  10   9   35.30   15.70
   4  10   9   30.40   15.30
  -5 -10  -9  -25.00   10.60
  -5 -10  -9    5.00   13.50
   5  10   9   20.30   13.30
  -6 -10  -9   -1.50   11.50
  -6 -10  -9    5.70   14.70
   6  10   9    6.50   13.40
   6  10   9    7.00    6.90
  -7 -10  -9   51.19   13.40
   7  10   9   61.59    9.60
   7  10   9   63.89   15.30
   8  10   9   44.20    9.70
   8  10   9   28.50   15.60
   9  10   9    0.00    8.30
   6  11   9   14.00    7.50
   7  11   9   49.00    9.60
  -3 -10  10   -1.30    9.90
  -2 -10  10    1.30    8.20
  -1 -10  10   -0.30    7.90
  -5  -9  10   16.60    8.80
  -4  -9  10    5.80    8.50
  -3  -9  10  -11.50    6.70
  -2  -9  10    2.50    7.80
  -1  -9  10   23.90    8.00
   0  -9  10   28.60    9.40
   1  -9  10    2.60   11.10
   2  -9  10    0.90   10.90
  -6  -8  10    5.70    7.50
  -5  -8  10    5.60    7.60
  -4  -8  10    7.40    6.80
  -3  -8  10    3.50    7.10
   2   8 -10   -8.60    9.30
   2   8 -10  -12.20    7.50
  -2  -8  10   12.10    8.60
   1   8 -10    5.50    9.10
  -1  -8  10   -2.20    6.30
   0   8 -10   10.70    9.10
   0  -8  10    1.80    7.40
  -1   8 -10  -15.80    8.20
   1  -8  10    5.50    8.20
  -2   8 -10   12.00   10.20
   2  -8  10   24.80   10.40
   3  -8  10    5.80   10.60
  -7  -7  10    8.50    8.40
  -6  -7  10    0.20    7.80
  -5  -7  10   15.50    7.20
   4   7 -10   37.10   13.80
   4   7 -10   35.90   10.00
   4   7 -10   39.30   11.70
  -4  -7  10   25.00    7.80
   3   7 -10   68.89    7.90
   3   7 -10   69.19    9.30
   3   7 -10   92.39   14.00
  -3  -7  10   71.29   10.60
   2   7 -10  -12.20    7.20
   2   7 -10    0.30    6.00
   2   7 -10   -0.50    6.70
   2   7 -10    5.30    6.60
  -2  -7  10   -3.00    6.70
   1   7 -10   -6.40    6.70
  -1  -7  10   -5.90    5.20
   0   7 -10    9.40    7.30
   0  -7  10    1.40    6.70
  -1   7 -10   31.00    7.50
   1  -7  10   28.10    7.10
  -2   7 -10  -12.40    7.40
   2  -7  10    2.80    7.60
  -3   7 -10   39.60    8.80
   3  -7  10   43.20   10.40
  -4   7 -10    9.20    9.20
  -7  -6  10    6.90    8.20
  -6  -6  10    5.50    7.10
   5   6 -10   18.40   11.00
  -5  -6  10   -1.40    6.80
  -5  -6  10   14.50   14.40
   4   6 -10    5.50    7.60
   4   6 -10   -0.30   10.10
   4   6 -10   10.10    9.00
   4   6 -10   16.40    8.50
  -4  -6  10   24.40    7.20
  -4  -6  10   11.20    9.20
   3   6 -10   84.09    9.30
   3   6 -10   81.49   11.00
   3   6 -10   70.09    9.10
   3   6 -10   88.29    9.80
   3   6 -10   95.69   10.80
   3   6 -10   80.19   10.50
  -3  -6  10   71.19   10.90
  -3  -6  10  108.59   17.90
  -3  -6  10   79.29   10.00
  -3  -6  10   87.19    9.70
   2   6 -10    1.20    6.70
   2   6 -10    5.00    6.00
   2   6 -10    1.20    5.30
   2   6 -10    5.00    6.10
   2   6 -10    4.10    5.70
   2   6 -10    5.20    6.00
  -2  -6  10    8.20    6.10
  -2  -6  10    7.70    6.30
  -2  -6  10   -0.80    6.00
  -2  -6  10   -9.60   10.00
  -2  -6  10   18.10    6.80
   1   6 -10   -5.70    6.20
   1   6 -10    3.40    5.10
   1   6 -10   -2.50    4.70
   1   6 -10    8.90    4.90
   1   6 -10   -1.30    5.40
  -1  -6  10   -9.20    4.80
   0   6 -10    7.70    5.60
   0   6 -10   -5.70    4.20
   0  -6  10    0.30    5.60
  -1   6 -10    1.90    4.20
  -1   6 -10    2.60    5.60
   1  -6  10   -2.00    4.60
  -2   6 -10    0.30    5.90
   2  -6  10    3.10    6.10
  -3   6 -10   23.80    7.00
   3  -6  10   19.70    8.00
  -4   6 -10   99.69   10.90
  -5   6 -10    8.70    8.90
   5  -6  10   30.70    8.80
   6  -6  10   11.40    8.50
  -7  -5  10    8.80    9.20
  -6  -5  10   12.20    7.90
  -6  -5  10   29.60   13.10
   5   5 -10   18.60   10.00
   5   5 -10   22.80   10.80
   5   5 -10    0.70    9.80
   5   5 -10   -1.30   11.30
  -5  -5  10    8.40    6.80
   4   5 -10   37.30    7.70
   4   5 -10   36.10    9.20
   4   5 -10   52.49    8.00
   4   5 -10   42.20    9.20
   4   5 -10   36.80    8.70
   4   5 -10   40.00    9.30
  -4  -5  10   34.40    7.40
  -4  -5  10   36.70    9.10
   3   5 -10    3.30    6.10
   3   5 -10   -5.00    6.80
   3   5 -10   25.60    8.00
   3   5 -10    4.40    6.40
   3   5 -10    3.60    5.60
   3   5 -10    7.20    5.90
  -3  -5  10  -11.90    8.40
  -3  -5  10   14.10    7.50
  -3  -5  10    7.60    7.10
  -3  -5  10   -7.70    6.40
  -3  -5  10   -1.80    4.70
   2   5 -10   51.39    6.80
   2   5 -10   46.20    8.10
   2   5 -10   45.50    7.30
   2   5 -10   53.49    6.30
   2   5 -10   55.99    6.80
   2   5 -10   51.69    6.90
  -2  -5  10   50.89    6.80
  -2  -5  10   55.59    8.40
  -2  -5  10   57.49    7.60
  -2  -5  10   37.20    7.80
  -2  -5  10   48.30    6.90
  -2  -5  10   55.89    6.30
  -2  -5  10   80.09    8.90
   1   5 -10   -1.00    5.30
   1   5 -10   21.50    4.80
   1   5 -10    6.30    4.50
   1   5 -10   13.50    4.80
   1   5 -10    3.40    4.40
   1   5 -10    7.50    5.50
  -1  -5  10    8.20    7.00
  -1  -5  10    0.10    5.10
  -1  -5  10    2.30    5.00
   0   5 -10   38.00    6.20
   0  -5  10   39.40    6.10
   0  -5  10   24.10    6.60
  -1   5 -10   -3.00    4.80
   1  -5  10   -1.90    4.30
   1  -5  10    1.00    4.80
  -2   5 -10    0.50    3.90
  -2   5 -10   -2.00    4.90
   2  -5  10    1.90    4.80
   2  -5  10    9.40    5.20
  -3   5 -10   14.00    4.60
  -3   5 -10    7.20    5.80
   3  -5  10   -0.10    5.30
   3  -5  10   10.30    5.50
  -4   5 -10   80.99    8.30
  -4   5 -10  105.39    9.30
   4  -5  10   90.19   10.70
  -5   5 -10   23.10    7.30
   5  -5  10   31.40    8.40
  -6   5 -10   -2.70    8.30
   6  -5  10    7.60    7.70
   7  -5  10   -4.30    8.40
  -7  -4  10   35.50   16.20
  -7  -4  10   15.70    9.60
   6   4 -10   -6.00   13.70
  -6  -4  10    8.00    7.40
  -6  -4  10    6.40   12.50
   5   4 -10   31.80    9.70
   5   4 -10   39.20   11.70
   5   4 -10   50.59   11.50
   5   4 -10   37.70   10.80
  -5  -4  10   46.10   10.60
  -5  -4  10   30.70    7.80
   4   4 -10  145.99   12.10
   4   4 -10  148.49   11.80
   4   4 -10  161.18   12.90
   4   4 -10  165.38   14.50
   4   4 -10  160.78   14.00
   4   4 -10  162.58   13.20
  -4  -4  10  180.38   13.70
  -4  -4  10  147.69   13.70
  -4  -4  10  141.99   11.00
   3   4 -10    2.40    5.50
   3   4 -10   -1.30    6.30
   3   4 -10    1.90    6.20
   3   4 -10    6.50    6.10
   3   4 -10   -5.80    5.20
   3   4 -10   -0.70    6.60
  -3  -4  10    9.60    7.90
  -3  -4  10    1.30    6.00
  -3  -4  10   14.70    6.30
  -3  -4  10    2.90    7.10
  -3  -4  10    6.30    5.10
  -3  -4  10    7.80    6.60
   2   4 -10   58.09    7.50
   2   4 -10   39.80    6.10
   2   4 -10   54.69    7.40
   2   4 -10   67.29    8.30
   2   4 -10   47.80    6.50
   2   4 -10   40.00    7.10
  -2  -4  10   48.50    8.20
  -2  -4  10   41.10    6.40
  -2  -4  10   57.39    7.80
  -2  -4  10   41.50    7.60
  -2  -4  10   44.10    7.10
  -2  -4  10   53.49    6.30
  -2  -4  10   48.60    6.80
   1   4 -10  133.49    8.00
   1   4 -10  131.29    9.20
   1   4 -10  155.68    8.60
   1   4 -10  138.49   10.10
   1   4 -10  120.99    8.50
   1   4 -10  140.69    7.70
  -1  -4  10  144.69   11.20
  -1  -4  10  119.59    7.60
  -1  -4  10  137.49    8.70
  -1  -4  10  147.79    8.90
  -1  -4  10  130.99   10.10
  -1  -4  10  131.29    7.70
   0   4 -10  156.78   11.00
   0   4 -10  175.48    7.20
   0   4 -10  183.38    7.30
   0  -4  10  172.88    8.30
   0  -4  10  180.98   11.20
  -1   4 -10    9.80    4.80
   1  -4  10    7.20    4.60
   1  -4  10    4.60    4.40
  -2   4 -10    3.90    4.40
   2  -4  10    5.80    4.80
   2  -4  10    4.20    4.30
  -3   4 -10    8.70    4.40
  -3   4 -10    8.00    4.60
   3  -4  10   13.50    5.40
   3  -4  10   12.40    5.20
  -4   4 -10   28.90    5.50
  -4   4 -10   30.20    5.90
   4  -4  10   34.10    6.90
   4  -4  10   33.50    7.60
  -5   4 -10   72.09    9.00
  -5   4 -10   97.99    9.40
   5  -4  10  113.39   11.10
   5  -4  10  108.89    9.50
  -6   4 -10   19.80    7.70
  -6   4 -10   22.60    6.60
   6  -4  10   26.10    8.80
  -7   4 -10    2.30    7.30
   7  -4  10   13.90    8.50
   8  -4  10   24.50   10.00
  -7  -3  10   43.80   11.10
  -7  -3  10   25.60   18.50
   6   3 -10    3.30   13.30
  -6  -3  10   29.40   12.80
  -6  -3  10   25.00    8.90
   5   3 -10  -20.50    9.20
   5   3 -10  -17.30   10.60
   5   3 -10  -20.20    9.40
   5   3 -10   15.30    9.90
   5   3 -10   -0.40   10.10
  -5  -3  10    9.80   10.20
  -5  -3  10    4.70    9.80
  -5  -3  10   12.40    6.40
  -5  -3  10    9.50    7.00
   4   3 -10  221.78   13.50
   4   3 -10  217.18   12.70
   4   3 -10  212.08   13.20
   4   3 -10  198.88   14.30
   4   3 -10  229.28   13.90
   4   3 -10  223.98   16.00
  -4  -3  10  208.68   14.40
  -4  -3  10  233.48   10.20
  -4  -3  10  209.38   14.80
  -4  -3  10  207.38   12.20
   3   3 -10   10.60    6.00
   3   3 -10    7.30    7.10
   3   3 -10   -5.40    6.30
   3   3 -10    0.10    5.30
   3   3 -10    9.10    6.40
   3   3 -10    5.10    5.60
  -3  -3  10   10.30    6.80
  -3  -3  10    4.70    5.60
  -3  -3  10    4.50    5.00
  -3  -3  10    9.00    6.10
  -3  -3  10    1.40    6.20
  -3  -3  10    6.50    6.30
  -3  -3  10   -7.30    6.30
   2   3 -10  114.79    8.40
   2   3 -10  128.09    8.20
   2   3 -10   99.99    8.90
   2   3 -10  112.99    8.40
   2   3 -10  104.79    9.80
   2   3 -10   97.59    9.90
  -2  -3  10   94.89    8.70
  -2  -3  10  111.29    8.10
  -2  -3  10  112.69    9.40
  -2  -3  10  102.79   10.10
  -2  -3  10  107.79    7.20
  -2  -3  10  113.69    9.50
  -2  -3  10  117.79    9.80
   1   3 -10  207.08   13.10
   1   3 -10  233.48    9.20
   1   3 -10  232.58   10.80
   1   3 -10  250.37   10.50
   1   3 -10  243.18   10.40
   1   3 -10  192.18   14.30
  -1  -3  10  224.38   11.80
  -1  -3  10  232.28    9.30
  -1  -3  10  230.88    9.10
  -1  -3  10  235.08   10.30
  -1  -3  10  256.27   10.30
   0   3 -10    9.90    4.40
   0   3 -10    3.90    4.40
   0   3 -10    9.90    3.30
   0   3 -10   11.20    3.50
   0   3 -10   10.40    4.40
   0  -3  10   11.90    7.70
   0  -3  10    9.90    5.40
   0  -3  10   14.70    4.00
   0  -3  10    6.10    4.00
   0  -3  10    5.30    5.10
  -1   3 -10   65.49    6.80
   1  -3  10   70.39    7.90
   1  -3  10   75.19    6.40
  -2   3 -10   23.60    4.60
   2  -3  10   28.90    7.00
   2  -3  10   26.80    5.00
  -3   3 -10    6.30    3.70
  -3   3 -10    2.80    4.30
   3  -3  10    7.10    4.30
   3  -3  10    4.20    4.50
  -4   3 -10    3.40    3.70
  -4   3 -10    1.10    4.60
   4  -3  10   -1.00    5.70
   4  -3  10    6.50    4.60
  -5   3 -10    5.90    4.30
  -5   3 -10    5.70    5.20
   5  -3  10    1.60    6.70
  -6   3 -10   67.69    7.80
  -6   3 -10   62.49    9.00
   6  -3  10   95.79   11.10
   6  -3  10   74.59    9.00
  -7   3 -10   32.70    7.20
  -7   3 -10   12.90    7.00
   7  -3  10   19.10    8.40
  -8   3 -10    0.00    8.30
   8  -3  10   -6.60    8.40
  -7  -2  10    0.90   11.00
   6   2 -10   20.70   13.80
  -6  -2  10    1.50    8.90
  -6  -2  10   18.00   12.20
   5   2 -10   -3.70   10.20
   5   2 -10   16.90   12.40
   5   2 -10   -4.50   10.50
   5   2 -10    0.50    9.60
  -5  -2  10   -8.10    9.90
  -5  -2  10   19.30    9.70
  -5  -2  10    1.10    7.30
   4   2 -10   84.19   11.00
   4   2 -10   80.69   11.40
   4   2 -10   63.29   10.70
   4   2 -10   77.99    9.10
   4   2 -10   62.49    8.60
   4   2 -10   90.39   11.90
  -4  -2  10   73.69   10.20
  -4  -2  10   81.79   12.00
  -4  -2  10   65.29    9.50
  -4  -2  10   92.59   13.40
   3   2 -10   13.80    6.80
   3   2 -10   22.80    5.70
   3   2 -10   18.00    5.90
   3   2 -10   16.70    7.30
   3   2 -10   22.90    6.80
   3   2 -10   18.60    7.30
  -3  -2  10   13.80    6.50
  -3  -2  10   11.40    5.00
  -3  -2  10    7.80    6.20
  -3  -2  10    2.80    6.40
  -3  -2  10   16.60    7.00
  -3  -2  10   17.30    6.50
  -3  -2  10   32.80    7.20
   2   2 -10  297.07   14.20
   2   2 -10  322.27   11.80
   2   2 -10  319.37   13.10
   2   2 -10  359.46   13.00
   2   2 -10  331.17   13.70
   2   2 -10  333.97   12.10
  -2  -2  10  333.07   11.20
  -2  -2  10  309.97   13.30
  -2  -2  10  335.17   13.80
  -2  -2  10  310.57   12.40
  -2  -2  10  320.57   11.90
  -2  -2  10  318.47   13.90
  -2  -2  10  316.67   13.90
   1   2 -10    0.60    3.50
   1   2 -10    6.70    5.10
   1   2 -10    0.00    3.60
   1   2 -10    1.10    5.00
   1   2 -10    2.10    4.80
  -1  -2  10    4.20    3.90
  -1  -2  10   -0.10    4.00
  -1  -2  10    6.80    4.50
  -1  -2  10    1.00    4.40
  -1  -2  10    9.80    4.70
  -1  -2  10    2.70    5.00
   0   2 -10    9.10    4.60
   0   2 -10    8.90    3.50
   0   2 -10    9.40    3.40
   0   2 -10    8.40    4.50
   0   2 -10    7.40    4.30
   0  -2  10    8.50    4.80
   0  -2  10    8.90    4.40
   0  -2  10    7.20    4.40
   0  -2  10    8.20    3.70
   0  -2  10    9.10    3.90
   0  -2  10    8.10    4.30
   0  -2  10    0.60    4.00
  -1   2 -10   61.29    6.10
  -1   2 -10   54.69    5.80
  -1   2 -10   63.79    6.10
  -1   2 -10   58.89    4.70
  -1   2 -10   67.29    4.50
   1  -2  10   68.79    5.90
   1  -2  10   53.59    7.30
  -2   2 -10  231.48    8.80
   2  -2  10  210.58    9.20
   2  -2  10  214.68   11.40
  -3   2 -10   46.80    5.20
   3  -2  10   32.90    6.30
   3  -2  10   43.60    5.60
  -4   2 -10   15.30    5.20
  -4   2 -10   23.30    3.80
   4  -2  10   11.60    5.60
   4  -2  10   17.60    5.60
  -5   2 -10   -2.20    3.20
  -5   2 -10    0.80    4.60
   5  -2  10   -0.80    5.50
   5  -2  10    3.70    5.00
  -6   2 -10    0.40    5.10
   6  -2  10    6.10    4.80
   6  -2  10   19.20    7.60
  -7   2 -10  108.89   10.50
   7  -2  10   95.59   12.80
   7  -2  10   99.59    9.70
  -8   2 -10  -10.40    7.30
   8  -2  10    8.00    8.30
   9  -2  10   -6.40   10.00
   7   1 -10   15.10   13.40
  -7  -1  10   54.19   15.50
   6   1 -10   53.79   15.50
   6   1 -10  104.69   15.30
  -6  -1  10   53.59   14.60
   5   1 -10   50.09   12.20
   5   1 -10   51.99   10.80
   5   1 -10   39.80   11.50
   5   1 -10  109.39   15.00
  -5  -1  10   66.59   10.10
  -5  -1  10   67.09   11.50
  -5  -1  10   59.79   12.50
   4   1 -10   88.19   11.30
   4   1 -10   67.79    9.00
   4   1 -10   67.89    9.90
   4   1 -10   61.89    8.70
  -4  -1  10   66.99    8.80
  -4  -1  10   80.19   16.70
  -4  -1  10   72.89   10.80
  -4  -1  10   86.29   11.80
   3   1 -10   52.99    8.80
   3   1 -10   40.00    7.20
   3   1 -10   47.10    7.10
   3   1 -10   45.70    7.70
   3   1 -10   47.60    7.30
  -3  -1  10   49.90    8.50
  -3  -1  10   54.19    8.30
  -3  -1  10   62.59    7.90
  -3  -1  10   53.29    8.40
  -3  -1  10   46.40    7.80
   2   1 -10  610.04   19.40
   2   1 -10  620.84   17.70
   2   1 -10  595.84   20.10
   2   1 -10  597.84   18.60
   2   1 -10  617.44   17.50
   2   1 -10  654.83   18.40
  -2  -1  10  615.24   18.00
  -2  -1  10  596.54   18.90
  -2  -1  10  606.64   19.10
  -2  -1  10  535.25   20.00
  -2  -1  10  588.24   17.30
  -2  -1  10  675.03   19.70
   1   1 -10  149.19   10.20
   1   1 -10  154.18    8.10
   1   1 -10  150.88    9.40
   1   1 -10  169.08    8.30
   1   1 -10  166.98   10.20
  -1  -1  10  170.78    9.10
  -1  -1  10  160.08    9.80
  -1  -1  10  171.48    8.10
  -1  -1  10  168.68    9.60
  -1  -1  10  156.78   10.20
   0   1 -10   27.80    4.40
   0   1 -10   27.60    5.10
   0   1 -10   22.30    5.00
   0   1 -10   24.70    5.40
   0   1 -10   26.50    4.20
   0  -1  10   27.60    5.30
   0  -1  10   28.30    5.30
   0  -1  10   23.70    5.00
   0  -1  10   23.20    4.60
   0  -1  10   27.80    4.50
   0  -1  10   17.90    4.00
  -1   1 -10  423.06   11.50
  -1   1 -10  425.76   11.80
  -1   1 -10  415.96   12.80
  -1   1 -10  420.86   12.80
  -1   1 -10  460.05   13.30
   1  -1  10  387.66   15.10
   1  -1  10  415.96   12.90
   1  -1  10  433.46   11.90
   1  -1  10  439.36   12.70
   1  -1  10  453.45   13.60
   1  -1  10  433.26   12.30
  -2   1 -10  139.49    6.50
  -2   1 -10  134.69    5.60
  -2   1 -10  139.49    7.00
  -2   1 -10  135.19    5.70
   2  -1  10  137.29    7.60
   2  -1  10  126.89    8.60
   2  -1  10  136.99    7.30
  -3   1 -10   37.10    4.50
   3  -1  10   42.20    5.70
   4  -1  10   63.39    6.50
   4  -1  10   57.79    7.80
  -5   1 -10    8.90    5.10
   5  -1  10    6.80    4.60
   5  -1  10   16.80    6.30
  -6   1 -10   -3.80    4.80
   6  -1  10   -4.30    6.50
  -7   1 -10   -3.50    5.40
   7  -1  10    0.40    5.00
   7  -1  10   30.30   14.70
  -8   1 -10   -2.10    6.80
   8  -1  10    2.60    8.00
   8  -1  10    0.10    5.40
   9  -1  10   10.00    9.50
  10  -1  10   25.40   12.20
   7   0 -10    4.10   16.30
   6   0 -10   82.89   15.60
   6   0 -10   42.90   15.70
  -6   0  10    9.00   15.30
   5   0 -10   -0.90    9.20
   5   0 -10   19.20   12.30
   5   0 -10  -14.40    9.70
   5   0 -10    7.20   12.20
  -5   0  10    1.40   10.70
  -5   0  10   10.70   10.60
  -5   0  10    7.90    8.30
   4   0 -10   12.20    7.30
   4   0 -10    5.70    8.90
   4   0 -10   20.60    8.10
   4   0 -10   -2.00    9.20
   4   0 -10    8.90    9.50
  -4   0  10   14.00    9.00
  -4   0  10   -0.90    6.60
  -4   0  10   -4.90    9.10
   3   0 -10   23.00    7.10
   3   0 -10   18.50    6.30
   3   0 -10   19.00    7.40
   3   0 -10   28.40    6.80
   3   0 -10   23.70    8.00
  -3   0  10   11.40    7.30
  -3   0  10   21.80    6.40
  -3   0  10   13.70    7.60
  -3   0  10   13.00    7.60
  -3   0  10   18.50    7.00
  -3   0  10    9.30    8.10
   2   0 -10  205.08   12.10
   2   0 -10  194.38   10.30
   2   0 -10  183.98   12.60
   2   0 -10  184.58   10.70
   2   0 -10  184.88   11.30
  -2   0  10  226.48   12.00
  -2   0  10  177.68   11.20
  -2   0  10  196.48   10.90
  -2   0  10  171.68   11.40
  -2   0  10  207.08   10.00
  -2   0  10  205.18   12.40
   1   0 -10   50.29    6.60
   1   0 -10   56.89    6.50
   1   0 -10   45.90    6.70
   1   0 -10   44.40    7.50
  -1   0  10   60.39    7.80
  -1   0  10   64.99    8.00
  -1   0  10   60.79    6.90
  -1   0  10   55.79    7.10
  -1   0  10   58.69    7.40
   0   0 -10  179.08    8.30
   0   0 -10  185.38    8.40
   0   0 -10  173.48    9.50
   0   0 -10  185.78    9.50
   0   0 -10  155.78   13.00
   0   0  10  186.48    9.80
   0   0  10  179.88    9.70
   0   0  10  182.88    8.30
   0   0  10  174.48    9.20
  -1   0 -10    8.90    4.30
  -1   0 -10    5.70    4.40
  -1   0 -10    6.30    3.10
  -1   0 -10    5.80    3.40
  -1   0 -10   11.50    4.00
   1   0  10    2.30    4.30
   1   0  10   10.80    3.90
   1   0  10    8.60    3.90
   1   0  10    7.80    3.80
   1   0  10    1.00    3.60
   1   0  10    7.40    3.70
  -2   0 -10   56.49    6.00
  -2   0 -10   38.30    8.60
  -2   0 -10   50.99    5.00
  -2   0 -10   57.09    5.50
  -2   0 -10   54.39    4.70
   2   0  10   46.30    5.80
   2   0  10   54.39    5.90
   2   0  10   58.89    5.60
   2   0  10   62.39    5.60
   2   0  10   61.29    5.60
  -3   0 -10   49.90    4.90
  -3   0 -10   55.29    4.70
  -3   0 -10   49.30    4.40
   3   0  10   44.10    5.20
   4   0  10    9.20    5.40
   4   0  10    1.60    3.80
  -5   0 -10   74.09    8.50
   5   0  10   70.69    6.80
   5   0  10   65.19    8.50
  -6   0 -10   -6.30    4.70
   6   0  10    1.80    5.80
   6   0  10   -4.90    3.70
  -7   0 -10    1.70    5.60
   7   0  10    2.70    4.50
   7   0  10   -7.90    6.60
  -8   0 -10   -6.20    6.10
   8   0  10    1.80    6.10
   8   0  10   10.50    8.40
  -9   0 -10   41.90    9.10
   9   0  10   55.09   10.80
   9   0  10   37.30    7.80
  10   0  10   23.60   11.90
   6  -1 -10    2.60   18.30
   6  -1 -10   22.80   15.40
   5  -1 -10   28.30   14.20
   5  -1 -10   15.10   10.70
   5  -1 -10    1.90   12.30
  -5   1  10   11.90   12.50
  -5   1  10   14.50   11.90
   4  -1 -10  106.79   13.40
   4  -1 -10  142.49   15.60
   4  -1 -10  130.79   13.90
   4  -1 -10  106.89   13.60
  -4   1  10  122.59   15.40
  -4   1  10  136.79   15.90
   3  -1 -10   62.09    9.30
   3  -1 -10   50.39    9.30
   3  -1 -10   31.00    7.90
   3  -1 -10   57.69    9.70
  -3   1  10   61.99   10.50
  -3   1  10   53.69    9.90
  -3   1  10   62.09    9.30
  -3   1  10   66.09   15.60
  -3   1  10   56.79    6.90
  -3   1  10   36.20    8.20
   2  -1 -10   90.69    8.90
   2  -1 -10   83.49    9.30
   2  -1 -10   74.09    9.40
   2  -1 -10   79.29    8.80
   2  -1 -10   76.09   10.40
  -2   1  10   83.99   10.90
  -2   1  10   78.19    9.50
  -2   1  10   88.79   10.80
  -2   1  10   77.39    8.90
  -2   1  10   59.69    7.20
  -2   1  10   80.49   10.00
   1  -1 -10   93.29    9.30
   1  -1 -10   87.49    8.00
   1  -1 -10   86.19   10.00
   1  -1 -10   86.99    8.40
  -1   1  10   82.59    8.20
  -1   1  10   88.09    9.00
  -1   1  10   84.99    8.90
  -1   1  10   85.19    9.70
  -1   1  10   67.29    9.20
  -1   1  10   84.29    7.20
   0  -1 -10  261.17   10.60
   0  -1 -10  274.47   10.40
   0  -1 -10  243.48   11.50
   0  -1 -10  274.57   12.30
   0   1  10  259.27   10.90
   0   1  10  258.37   11.40
   0   1  10  253.97   10.70
   0   1  10  266.37   11.80
  -1  -1 -10  212.38    8.70
  -1  -1 -10  199.08    8.70
  -1  -1 -10  193.08    9.70
  -1  -1 -10  215.38   13.20
   1   1  10  210.78    8.80
   1   1  10  201.08    8.60
   1   1  10  221.08   10.00
  -2  -1 -10   -2.20    3.10
  -2  -1 -10   -2.50    3.10
  -2  -1 -10    4.20    4.20
  -2  -1 -10    3.20    4.10
   2   1  10   -1.00    2.90
   2   1  10    2.00    3.70
   2   1  10   -1.50    3.10
   2   1  10    2.20    3.60
  -3  -1 -10  196.58    7.60
  -3  -1 -10  174.08    8.30
  -3  -1 -10  178.78    7.80
  -3  -1 -10  186.18    8.30
   3   1  10  193.28    8.30
   3   1  10  186.68    8.50
   3   1  10  189.08    8.20
   3   1  10  194.48    8.00
  -4  -1 -10   70.39    5.80
  -4  -1 -10   74.39    5.50
  -4  -1 -10   73.19    5.20
  -4  -1 -10   73.49    6.10
   4   1  10   74.29    6.20
   4   1  10   80.79    7.00
   4   1  10   80.99    6.30
  -5  -1 -10    1.10    4.80
   5   1  10    0.10    5.60
   5   1  10    3.50    3.30
  -6  -1 -10  155.58   10.50
   6   1  10  152.58    9.10
   6   1  10  144.69   10.70
  -7  -1 -10   -0.10    5.30
   7   1  10    1.30    7.40
   7   1  10    3.40    4.30
  -8  -1 -10   60.89    8.70
   8   1  10   76.59   11.30
   8   1  10   68.99    9.60
  -9  -1 -10   -5.70    8.40
   9   1  10   -0.60    5.70
   9   1  10    4.10    9.20
  10   1  10    0.40    9.20
  10   1  10   -2.10    6.60
   5  -2 -10    8.90   14.40
  -5   2  10   11.50   14.90
   4  -2 -10   30.40   12.20
   4  -2 -10   33.80   10.90
   4  -2 -10   12.80   11.40
  -4   2  10   47.60   10.70
  -4   2  10   38.00   12.30
   3  -2 -10   14.10    9.10
   3  -2 -10   11.10    8.00
   3  -2 -10   -2.10    7.30
   3  -2 -10   19.40    9.10
  -3   2  10   12.50    9.60
  -3   2  10   15.00    8.80
  -3   2  10    0.40    9.00
  -3   2  10   16.20    8.30
   2  -2 -10   18.50    7.00
   2  -2 -10   -2.80    6.60
   2  -2 -10    1.10    7.30
   2  -2 -10    0.70    5.80
   2  -2 -10   19.90    7.30
  -2   2  10    0.80    7.60
  -2   2  10  -10.80    7.00
  -2   2  10   -0.60    7.90
  -2   2  10   11.00    6.70
   1  -2 -10    2.40    5.30
   1  -2 -10   13.10    5.10
   1  -2 -10   17.20    6.40
   1  -2 -10    6.10    6.40
  -1   2  10    8.50    6.10
  -1   2  10   10.60    6.00
  -1   2  10    7.00    6.10
  -1   2  10    2.20    6.30
   0  -2 -10   42.90    7.00
   0  -2 -10   52.99    7.50
   0  -2 -10   57.69    7.30
   0  -2 -10   47.30    7.30
   0   2  10   53.59    6.40
   0   2  10   58.49    8.10
   0   2  10   62.39    7.90
  -1  -2 -10  173.28    9.10
  -1  -2 -10  178.98    8.90
  -1  -2 -10  160.78   10.20
  -1  -2 -10  158.68    9.80
   1   2  10  165.08    8.20
   1   2  10  166.88    9.40
   1   2  10  178.38   10.00
  -2  -2 -10    1.50    3.60
  -2  -2 -10   -0.60    3.70
  -2  -2 -10   -0.10    4.20
   2   2  10   -0.30    3.20
   2   2  10    0.40    2.90
   2   2  10    3.30    4.40
  -3  -2 -10   36.80    5.30
  -3  -2 -10   38.30    4.90
  -3  -2 -10   40.70    5.50
  -3  -2 -10   37.40    5.70
   3   2  10   39.20    5.40
   3   2  10   20.20    5.00
   3   2  10   26.50    4.40
   3   2  10   33.50    4.80
   3   2  10   38.20    5.40
  -4  -2 -10    4.60    3.60
  -4  -2 -10    4.00    3.70
  -4  -2 -10   -6.40    4.00
  -4  -2 -10    6.40    4.00
   4   2  10    1.70    3.30
   4   2  10   -1.10    4.20
   4   2  10    4.40    3.60
   4   2  10    3.80    3.80
   4   2  10    2.60    3.80
  -5  -2 -10   12.30    5.30
  -5  -2 -10   19.60    4.40
  -5  -2 -10   19.10    4.40
  -5  -2 -10   19.50    4.20
  -5  -2 -10   19.30    4.60
   5   2  10   19.40    4.70
   5   2  10   21.80    5.10
   5   2  10   20.90    4.10
   5   2  10   26.90    6.00
  -6  -2 -10   11.20    5.70
  -6  -2 -10   18.10    4.30
  -6  -2 -10   23.10    4.50
  -6  -2 -10   21.80    4.50
   6   2  10   21.20    5.00
   6   2  10   29.10    7.00
  -7  -2 -10   13.00    4.20
  -7  -2 -10   11.60    4.70
  -7  -2 -10    1.60    5.30
   7   2  10    1.00    6.50
   7   2  10   12.40    7.00
  -8  -2 -10   19.50    7.00
   8   2  10   12.20    8.70
   8   2  10   20.00    5.40
  -9  -2 -10    4.00    8.60
   9   2  10   14.20    6.60
   9   2  10   19.20    9.40
  10   2  10    0.10    6.00
  10   2  10    2.10    9.80
  11   2  10    5.30   11.90
  11   2  10   36.80    8.90
   5  -3 -10  -14.20   18.10
   4  -3 -10    4.30   11.70
   4  -3 -10    5.50   16.70
   4  -3 -10  -11.00   11.30
  -4   3  10  -13.00   12.20
  -4   3  10    9.30   12.30
   3  -3 -10   11.10   10.20
   3  -3 -10   -2.90   10.50
   3  -3 -10  -12.60    8.40
   3  -3 -10   29.40   10.80
  -3   3  10   -5.90   10.10
  -3   3  10    7.80    9.00
   2  -3 -10    3.80    7.70
   2  -3 -10    6.70    8.40
   2  -3 -10   -3.90    7.30
   2  -3 -10    1.60    7.40
  -2   3  10   12.60    8.80
  -2   3  10   12.20    8.50
  -2   3  10   -3.90    7.40
  -2   3  10   -1.10    6.70
   1  -3 -10    9.40    7.50
   1  -3 -10   18.80    7.10
   1  -3 -10   15.10    6.60
   1  -3 -10   26.00    7.90
  -1   3  10   16.70    6.40
  -1   3  10   14.50    7.60
  -1   3  10   23.50    7.70
   0  -3 -10   12.80    6.40
   0  -3 -10    9.70    5.70
   0  -3 -10   10.30    5.80
   0  -3 -10   12.00    5.40
   0   3  10   13.90    5.20
   0   3  10    7.50    6.20
   0   3  10   18.80    6.40
   0   3  10    1.70    5.60
   0   3  10   15.00    6.50
  -1  -3 -10   19.30    6.10
  -1  -3 -10   25.50    5.30
  -1  -3 -10   20.10    6.10
  -1  -3 -10   18.00    6.10
   1   3  10   21.30    5.60
   1   3  10   25.20    6.10
   1   3  10   19.60    5.60
   1   3  10   23.40    4.90
   1   3  10   13.80    5.90
  -2  -3 -10    1.40    5.10
  -2  -3 -10    9.70    5.60
  -2  -3 -10    0.90    4.40
  -2  -3 -10    5.00    4.10
   2   3  10   -6.60    4.30
   2   3  10    4.50    4.80
   2   3  10    2.70    4.90
   2   3  10    4.60    3.30
   2   3  10    9.30    5.50
  -3  -3 -10    6.00    4.80
  -3  -3 -10    5.80    4.90
  -3  -3 -10   -2.90    4.10
  -3  -3 -10    0.70    3.90
   3   3  10    4.20    4.90
   3   3  10   -4.90    7.80
   3   3  10    2.10    3.70
  -4  -3 -10    1.10    3.90
  -4  -3 -10    1.10    4.00
  -4  -3 -10   -4.30    4.30
  -4  -3 -10   -5.30    4.70
   4   3  10   -3.30    3.90
   4   3  10   -5.30    4.30
   4   3  10   -6.20    6.70
   4   3  10   -0.60    3.60
  -5  -3 -10   41.40    5.80
  -5  -3 -10   34.00    5.50
  -5  -3 -10   37.50    5.70
  -5  -3 -10   31.10    6.00
  -5  -3 -10   29.40    6.10
   5   3  10   45.80    5.80
   5   3  10   46.60    6.00
   5   3  10   44.00    6.60
   5   3  10   46.00    6.00
  -6  -3 -10    3.90    4.50
  -6  -3 -10    9.60    4.60
  -6  -3 -10    3.20    4.70
  -6  -3 -10    5.90    4.90
  -6  -3 -10    5.00    5.80
   6   3  10    4.60    5.10
   6   3  10    8.40    5.90
   6   3  10    3.40    4.60
   6   3  10    9.10    4.80
   6   3  10    7.90    6.40
   6   3  10    3.50    3.80
  -7  -3 -10   15.00    5.20
  -7  -3 -10   14.20    5.20
  -7  -3 -10   20.90    6.60
  -7  -3 -10   15.70    5.50
  -7  -3 -10   12.80    5.50
   7   3  10   12.30    7.00
   7   3  10    9.60    6.30
   7   3  10   10.70    5.30
   7   3  10   14.80    7.30
  -8  -3 -10   19.60    6.20
  -8  -3 -10   14.50    6.80
  -8  -3 -10   24.70    5.60
  -8  -3 -10   29.10    6.40
  -8  -3 -10   26.30    5.70
   8   3  10   24.50    8.20
   8   3  10   17.90    8.20
   8   3  10   20.60    5.90
  -9  -3 -10  -13.50    6.20
  -9  -3 -10   -4.40    6.20
  -9  -3 -10   -7.30    8.30
   9   3  10   -1.50    4.90
   9   3  10   -6.10   15.10
 -10  -3 -10    7.70    8.00
  10   3  10   19.70   10.00
  10   3  10   22.30    6.80
  11   3  10    3.00    7.40
  11   3  10   20.20   12.90
   4  -4 -10  -34.30   14.50
  -4   4  10  -20.60   15.60
   3  -4 -10  -15.50   11.10
   3  -4 -10    2.80   12.80
   3  -4 -10    6.30   12.30
  -3   4  10    3.60   10.60
  -3   4  10   -6.70   10.80
   2  -4 -10    8.10    9.90
   2  -4 -10    4.20    9.10
   2  -4 -10   16.20    8.50
   2  -4 -10   -0.10    9.10
  -2   4  10    7.00    8.60
  -2   4  10   16.80   10.00
  -2   4  10   19.60    9.80
  -2   4  10   13.30    9.80
   1  -4 -10    3.20    7.90
   1  -4 -10   14.20    8.20
   1  -4 -10   11.40    7.10
   1  -4 -10    8.60    7.10
   1  -4 -10    8.80    8.00
  -1   4  10   -3.70   10.80
  -1   4  10   11.20    7.60
  -1   4  10   -3.80    7.20
  -1   4  10   -3.70    8.00
   0  -4 -10   86.59   10.40
   0  -4 -10   70.19    9.10
   0  -4 -10   73.89   10.40
   0  -4 -10   84.89   11.30
   0   4  10   71.79   10.40
   0   4  10   69.09    9.40
   0   4  10   77.19   10.00
   0   4  10   77.39   10.00
  -1  -4 -10   92.39    9.60
  -1  -4 -10   77.29    9.80
  -1  -4 -10   72.99    8.90
  -1  -4 -10   77.99    8.70
   1   4  10   66.39    9.30
   1   4  10   97.09   10.20
   1   4  10   81.49    8.30
   1   4  10   74.59   10.10
   1   4  10   78.69   10.20
  -2  -4 -10   29.80    7.00
  -2  -4 -10   41.70    6.90
  -2  -4 -10   64.09    8.80
  -2  -4 -10   55.89    7.20
   2   4  10   52.09    7.20
   2   4  10   47.10    6.80
   2   4  10   59.59    8.10
   2   4  10   48.30    6.30
   2   4  10   57.19    7.90
  -3  -4 -10    1.50    5.00
  -3  -4 -10    1.60    5.50
  -3  -4 -10    1.40    5.10
  -3  -4 -10    0.30    4.90
   3   4  10   -3.60    5.00
   3   4  10   -3.00    5.00
   3   4  10  -10.70    5.50
   3   4  10   -1.70    5.40
  -4  -4 -10    1.60    5.30
  -4  -4 -10    3.80    4.70
  -4  -4 -10   -0.10    4.70
  -4  -4 -10    0.60    4.90
   4   4  10    1.70    5.00
   4   4  10   -0.50    3.30
   4   4  10   -5.30    5.70
   4   4  10    2.70    5.10
   4   4  10   10.90    5.70
  -5  -4 -10   -3.20    4.90
  -5  -4 -10   -1.50    4.80
  -5  -4 -10   -6.60    4.50
  -5  -4 -10    3.30    5.10
   5   4  10    7.30    6.40
   5   4  10   -0.90    5.40
   5   4  10    0.30    5.20
   5   4  10   -0.30    4.00
   5   4  10   -2.90    4.80
  -6  -4 -10    0.20    5.20
  -6  -4 -10   -1.70    4.90
  -6  -4 -10   -7.90    5.00
  -6  -4 -10    1.30    5.50
  -6  -4 -10    1.80    5.00
   6   4  10   -3.40    5.40
   6   4  10   -6.80    6.30
   6   4  10    3.00    6.20
   6   4  10    4.20    6.20
   6   4  10    5.80    5.20
   6   4  10   -4.30    4.80
  -7  -4 -10   -4.20    5.40
  -7  -4 -10   -8.90    5.70
  -7  -4 -10    0.50    6.60
  -7  -4 -10   -2.80    6.00
  -7  -4 -10   -8.20    5.40
   7   4  10    1.10    7.70
   7   4  10   -3.20    6.90
   7   4  10   -5.10    5.30
   7   4  10    1.50    7.30
   7   4  10   -4.90    5.70
  -8  -4 -10    7.60    7.70
  -8  -4 -10   17.30    6.20
  -8  -4 -10    4.60    6.20
  -8  -4 -10    8.10    6.80
  -8  -4 -10    1.90    7.00
   8   4  10   -2.10    7.70
   8   4  10    7.30    6.30
   8   4  10    5.20    6.50
   8   4  10    6.80    5.50
   8   4  10   -1.00    8.90
  -9  -4 -10    7.30    8.60
  -9  -4 -10   14.20    7.10
  -9  -4 -10   11.50    7.20
   9   4  10    0.10    5.10
   9   4  10   -0.70    9.90
 -10  -4 -10   21.60    8.50
  10   4  10    2.50    6.50
  10   4  10   10.90   10.40
  11   4  10   12.90    7.70
  11   4  10   23.30   12.40
   3  -5 -10   70.49   14.30
  -3   5  10   47.90   15.50
  -3   5  10   55.49   15.00
   2  -5 -10   13.40   11.90
   2  -5 -10  -10.70   11.90
   2  -5 -10    1.30   11.00
  -2   5  10  -11.00   10.60
  -2   5  10   11.90   10.50
   1  -5 -10    2.30    9.10
   1  -5 -10   27.70    9.90
   1  -5 -10  -20.10    8.40
   1  -5 -10   14.70    8.90
  -1   5  10   -4.50    8.60
  -1   5  10    5.90    9.40
  -1   5  10    7.00   10.10
  -1   5  10   -0.40   10.10
   0  -5 -10   38.90    9.30
   0  -5 -10   43.30    8.90
   0  -5 -10   30.20    8.70
   0  -5 -10   39.20    9.60
   0   5  10   34.70    9.00
   0   5  10   31.80    9.20
   0   5  10   32.20    7.70
   0   5  10   36.00    9.30
  -1  -5 -10   82.19   11.50
  -1  -5 -10   79.79    9.40
  -1  -5 -10   93.99   10.80
  -1  -5 -10   81.59   11.50
   1   5  10   82.39   11.30
   1   5  10   74.59    9.30
   1   5  10   83.59   11.90
   1   5  10   75.59   10.70
  -2  -5 -10    1.20    6.40
  -2  -5 -10    4.50    6.10
  -2  -5 -10    7.70    6.40
  -2  -5 -10    9.50    6.80
   2   5  10   -0.10    6.60
   2   5  10    1.80    6.90
   2   5  10    2.30    6.90
   2   5  10   -5.50    4.80
   2   5  10    6.80    7.00
  -3  -5 -10  118.69   11.00
  -3  -5 -10  142.79   11.10
  -3  -5 -10  124.19   10.50
  -3  -5 -10  123.19   10.50
   3   5  10  140.69   11.00
   3   5  10  110.59   11.70
   3   5  10  123.29   10.70
   3   5  10  144.19   11.10
  -4  -5 -10   17.90    6.50
  -4  -5 -10   17.50    6.10
  -4  -5 -10   18.80    6.20
  -4  -5 -10   27.10    6.90
   4   5  10   24.40    7.90
   4   5  10   24.20    5.20
   4   5  10   20.40    6.50
   4   5  10   30.40    7.00
   4   5  10   11.70    6.60
  -5  -5 -10   20.30    6.20
  -5  -5 -10   17.80    6.40
  -5  -5 -10   15.60    6.80
  -5  -5 -10   18.00    5.60
   5   5  10   23.80    6.90
   5   5  10   12.90    5.80
   5   5  10   18.60    5.30
   5   5  10   24.80    7.60
   5   5  10   16.80    6.50
  -6  -5 -10   46.50    7.30
  -6  -5 -10   56.79    7.60
  -6  -5 -10   50.59    7.30
  -6  -5 -10   64.29    8.80
  -6  -5 -10   48.60    8.30
   6   5  10   61.79    7.50
   6   5  10   41.30    8.50
   6   5  10   59.99    8.10
   6   5  10   41.70    9.10
  -7  -5 -10    3.80    6.20
  -7  -5 -10   -4.10    6.30
  -7  -5 -10   -7.50    7.10
  -7  -5 -10    0.60    5.80
  -7  -5 -10   -7.40    6.70
   7   5  10   -2.30    4.90
   7   5  10   21.00    9.10
   7   5  10   -6.60    7.50
   7   5  10    0.00    6.80
   7   5  10    6.20    6.50
  -8  -5 -10   21.70    6.90
  -8  -5 -10   -2.30    7.90
  -8  -5 -10    1.30    7.10
  -8  -5 -10    8.40    8.10
  -8  -5 -10    7.80    7.90
   8   5  10    9.30    7.50
   8   5  10    3.70    8.40
   8   5  10    1.10    5.10
  -9  -5 -10   -2.30    7.80
  -9  -5 -10    6.90    9.20
  -9  -5 -10   21.70   11.20
   9   5  10    2.70    6.10
   9   5  10   -2.60   10.40
  10   5  10    1.40   11.60
  10   5  10    0.30    6.30
  11   5  10    9.30    7.60
  11   5  10   -0.10   12.10
   2  -6 -10  -19.00   14.00
  -2   6  10  -10.00   13.70
  -2   6  10    3.50   14.90
   1  -6 -10   21.10   12.10
   1  -6 -10    0.40   10.60
   1  -6 -10   28.00   12.50
  -1   6  10   -4.00   11.00
  -1   6  10   26.00   11.10
   0  -6 -10   -3.50    9.60
   0  -6 -10   19.10    9.70
   0  -6 -10  -12.70    9.00
   0   6  10   17.50   11.20
   0   6  10    9.30   10.00
   0   6  10   18.10    9.60
   0   6  10   14.50    9.30
  -1  -6 -10   35.50    9.70
  -1  -6 -10   15.60    8.90
  -1  -6 -10   36.70    9.50
  -1  -6 -10   24.10    9.40
   1   6  10   39.10    8.70
   1   6  10   27.50    9.00
   1   6  10   12.60    9.20
  -2  -6 -10   29.00    8.70
  -2  -6 -10   29.40    8.80
  -2  -6 -10   20.40    7.90
  -2  -6 -10   47.70    8.90
   2   6  10   30.40   13.00
   2   6  10   27.10    9.20
   2   6  10   29.10    8.90
   2   6  10   19.20    8.40
   2   6  10   17.70    7.00
  -3  -6 -10    9.90    7.10
  -3  -6 -10    2.20    7.30
  -3  -6 -10    6.60    7.30
  -3  -6 -10   -8.80    6.50
   3   6  10    7.20    7.80
   3   6  10   -1.50    7.00
   3   6  10    0.60    4.90
   3   6  10   -0.30    7.60
   3   6  10    1.40    8.50
  -4  -6 -10   84.79    9.80
  -4  -6 -10  104.29   10.90
  -4  -6 -10   97.79   10.90
  -4  -6 -10   80.49    9.90
   4   6  10   71.79   10.90
   4   6  10   87.89   10.20
   4   6  10   84.19   10.30
   4   6  10   98.89   11.20
  -5  -6 -10    7.50    6.30
  -5  -6 -10   -8.70    6.40
  -5  -6 -10    6.30    7.30
  -5  -6 -10    1.60    6.70
   5   6  10   15.20    7.00
   5   6  10   18.80    9.30
   5   6  10    2.30    8.20
   5   6  10   16.90    6.70
  -6  -6 -10    1.90    7.00
  -6  -6 -10    6.60    7.70
  -6  -6 -10    4.20    6.90
  -6  -6 -10    8.80    6.70
  -6  -6 -10    9.00    6.90
   6   6  10   -1.60    7.20
   6   6  10    3.00    4.60
   6   6  10   15.40    7.40
  -7  -6 -10   13.70    7.30
  -7  -6 -10   36.40    8.10
  -7  -6 -10   16.20    8.70
  -7  -6 -10    4.10    7.20
  -7  -6 -10   20.80    7.70
   7   6  10   24.70    6.00
   7   6  10   14.10    8.00
   7   6  10    6.00    7.70
  -8  -6 -10    2.00    7.80
  -8  -6 -10   -2.60    9.50
  -8  -6 -10    6.30    8.50
  -8  -6 -10    4.90    7.80
   8   6  10    0.00    9.00
   8   6  10   -1.40    9.00
   8   6  10    4.30    5.00
  -9  -6 -10   14.00    9.10
   9   6  10   10.50   10.90
   9   6  10    3.10    5.80
  10   6  10    7.10    6.30
  10   6  10    1.90   11.80
  11   6  10   19.40   13.60
  11   6  10    7.90    7.80
   1  -7 -10   81.49   15.50
  -1   7  10  121.29   25.10
  -1   7  10  124.39   16.40
   0  -7 -10   25.20   13.00
   0  -7 -10   17.00   12.20
   0  -7 -10   40.30   12.40
   0   7  10   55.39   12.80
   0   7  10   40.40   12.20
  -1  -7 -10   24.90   11.60
  -1  -7 -10   15.80   10.90
  -1  -7 -10   13.00    9.70
   1   7  10    6.30   10.80
   1   7  10    3.80   10.00
   1   7  10    2.80   10.00
  -2  -7 -10    1.60    9.70
  -2  -7 -10   11.60    9.00
  -2  -7 -10   16.20    9.90
  -2  -7 -10   19.40   10.20
   2   7  10    2.50    9.10
   2   7  10    3.40    8.60
  -3  -7 -10  158.68   14.90
  -3  -7 -10  175.28   15.70
  -3  -7 -10  166.78   14.50
  -3  -7 -10  202.68   15.10
   3   7  10  169.78   19.50
   3   7  10  148.49   12.20
   3   7  10  161.88   15.60
   3   7  10  171.28   15.60
  -4  -7 -10  140.79   14.00
  -4  -7 -10  176.78   15.10
  -4  -7 -10  143.09   13.90
  -4  -7 -10  165.58   14.30
   4   7  10  136.39   14.00
   4   7  10  164.08   14.80
  -5  -7 -10   -4.60    7.50
  -5  -7 -10   12.30    8.20
  -5  -7 -10   -2.00    8.30
  -5  -7 -10   16.90    9.00
   5   7  10    3.50   10.70
   5   7  10    2.80    8.10
   5   7  10    9.90    5.60
  -6  -7 -10    9.00    7.70
  -6  -7 -10    3.20    7.80
  -6  -7 -10    6.00    8.20
  -6  -7 -10  -16.20    8.00
  -6  -7 -10  -19.20    8.60
   6   7  10    0.50    9.90
   6   7  10   -1.10    4.40
   6   7  10    1.50    8.70
  -7  -7 -10   39.90    9.50
  -7  -7 -10   29.10    9.20
  -7  -7 -10   43.60   10.50
  -7  -7 -10   15.20    8.30
   7   7  10   36.00    6.90
   7   7  10   52.79   10.80
  -8  -7 -10    2.90   19.40
  -8  -7 -10   15.40    9.70
  -8  -7 -10   46.40   10.50
  -8  -7 -10   16.30    9.70
   8   7  10   17.50   10.40
   8   7  10    7.60   10.30
   8   7  10    9.90    6.10
   9   7  10   -5.20    6.20
   9   7  10   14.60   12.60
  10   7  10    2.40   13.20
  10   7  10   22.10    7.10
   0  -8 -10   21.10   15.30
   0   8  10   10.10   15.30
  -1  -8 -10   30.00   14.30
   1   8  10   26.80   13.00
   1   8  10   40.90   13.80
  -2  -8 -10   11.40   11.80
  -2  -8 -10   10.30   12.20
  -2  -8 -10   17.30   11.50
   2   8  10   11.10   10.70
   2   8  10    6.90   11.90
   2   8  10   11.10   10.60
  -3  -8 -10   37.60   11.40
  -3  -8 -10    2.80   10.80
  -3  -8 -10   18.00   11.20
   3   8  10    5.10   10.80
   3   8  10   37.40   11.80
  -4  -8 -10   93.09   12.40
  -4  -8 -10   72.59   12.40
  -4  -8 -10   92.79   12.20
  -4  -8 -10  135.19   15.70
   4   8  10   86.29   13.00
   4   8  10  131.29   15.70
  -5  -8 -10   26.70   11.50
  -5  -8 -10   38.20   10.90
  -5  -8 -10   15.10   10.70
  -5  -8 -10   39.40    9.80
  -5  -8 -10   52.69    9.80
   5   8  10   23.30    6.30
   5   8  10   26.30   10.10
   5   8  10   42.30   11.20
  -6  -8 -10   -7.50    9.70
  -6  -8 -10   11.10    9.80
  -6  -8 -10   -1.00   10.50
  -6  -8 -10   15.00    9.80
   6   8  10    3.20    5.50
   6   8  10   18.80    9.70
  -7  -8 -10    2.50   10.00
  -7  -8 -10  -23.60   11.20
  -7  -8 -10    7.80    9.60
   7   8  10   18.60   10.80
   7   8  10   -1.00    5.60
   8   8  10   26.90   12.10
   8   8  10   18.40   12.00
   9   8  10   30.60    7.70
   9   8  10   30.00   14.10
  10   8  10   31.50   15.40
  10   8  10   13.50    8.20
  -1  -9 -10   10.20   17.40
  -2  -9 -10   17.20   15.40
  -3  -9 -10   -5.80   13.50
   3   9  10    6.80   12.40
  -4  -9 -10   11.90   12.80
   4   9  10   25.20   11.80
  -5  -9 -10  126.39   15.10
  -5  -9 -10  174.18   18.90
   5   9  10  183.18   18.30
  -6  -9 -10   47.00   12.20
  -6  -9 -10   51.09   12.60
   6   9  10   20.50    6.80
   6   9  10   39.30   12.70
   7   9  10    4.00    6.40
   7   9  10   27.60   13.70
   8   9  10   -1.90    6.80
   9   9  10   44.70    8.60
  -4 -10 -10  -43.80   21.60
   6  10  10    3.10    6.60
   6  10  10   20.70   15.70
   7  10  10   48.00   17.20
   7  10  10   57.09    9.20
   8  10  10    9.10    7.80
  -3  -9  11   -2.70    7.50
  -2  -9  11   -4.50    7.80
  -1  -9  11    1.30    8.40
   0  -9  11   17.20    8.30
   1  -9  11   -4.40   11.60
  -5  -8  11   18.40    9.60
  -4  -8  11    5.70    7.60
  -3  -8  11    7.60    8.20
  -2  -8  11    0.70    7.30
  -1  -8  11    1.00    6.80
   0  -8  11   -1.90    7.30
   1  -8  11   21.90    9.70
   2  -8  11   15.80   11.80
   3  -8  11   -5.50   11.10
  -5  -7  11   10.30    8.10
  -4  -7  11   11.70    8.10
   3   7 -11    9.20   10.10
  -3  -7  11   -2.70    7.80
   2   7 -11  -14.50    9.40
   2   7 -11   12.30    8.50
  -2  -7  11   -1.50    6.40
   1   7 -11    9.40    9.10
  -1  -7  11   -2.90    6.00
   0   7 -11    9.50    8.70
   0  -7  11    3.30    7.10
  -1   7 -11   29.40    9.10
   1  -7  11   25.10    7.90
  -2   7 -11   54.49    9.80
   2  -7  11   71.09   12.80
  -3   7 -11   -2.00    9.20
   3  -7  11   21.50   10.90
  -4   7 -11  -25.80   11.80
  -6  -6  11   37.10    9.80
  -5  -6  11    9.00    7.80
   4   6 -11   29.00   10.80
  -4  -6  11    3.50    7.20
   3   6 -11  -19.50    7.70
   3   6 -11   -2.70   10.30
   3   6 -11    6.10    8.80
   3   6 -11  -18.60    9.30
  -3  -6  11   12.50    7.60
   2   6 -11   11.30    9.00
   2   6 -11   29.40    8.00
   2   6 -11   11.40    6.70
   2   6 -11   13.80    8.00
  -2  -6  11   23.50    7.70
  -2  -6  11   26.70    8.80
   1   6 -11    3.80    6.20
   1   6 -11    0.40    6.30
   1   6 -11    5.20    7.60
   1   6 -11   -5.10    5.30
   1   6 -11   12.60    5.80
  -1  -6  11   -1.60    5.60
  -1  -6  11    4.90    6.60
   0   6 -11   -7.30    6.80
   0   6 -11   -1.40    5.10
   0  -6  11   -7.10    6.40
   0  -6  11  -10.30    6.30
  -1   6 -11    6.10    5.30
  -1   6 -11    0.10    6.80
  -1   6 -11   -3.50    5.50
   1  -6  11    0.60    5.40
  -2   6 -11   59.99    8.40
  -2   6 -11   47.70    6.30
   2  -6  11   77.89   11.00
  -3   6 -11   27.90    8.10
   3  -6  11   60.39   11.10
  -4   6 -11   -1.30    8.50
  -6  -5  11   68.19   11.20
  -5  -5  11   -0.20    7.20
   4   5 -11   -5.50   11.10
   4   5 -11   30.10   11.20
   4   5 -11   48.80   14.60
   3   5 -11   27.10    8.60
   3   5 -11    6.50    8.50
   3   5 -11   35.00    7.90
  -3  -5  11   36.70    9.90
  -3  -5  11   36.40    8.00
   2   5 -11   40.80    8.30
   2   5 -11   42.80    7.20
   2   5 -11   53.89    7.90
   2   5 -11   33.10    6.90
   2   5 -11   40.00    7.10
   2   5 -11   20.60    7.00
  -2  -5  11   38.80    8.60
  -2  -5  11   45.50    8.40
  -2  -5  11   39.50    6.80
  -2  -5  11   50.69    8.10
  -2  -5  11   33.00    7.80
   1   5 -11    7.80    6.30
   1   5 -11    7.80    5.90
   1   5 -11   11.40    5.40
   1   5 -11   -3.60    5.40
   1   5 -11    8.10    6.20
   1   5 -11    2.60    5.10
  -1  -5  11   -1.70    6.00
  -1  -5  11   -4.50    4.90
  -1  -5  11   -0.50    9.40
   0   5 -11   -6.70    4.90
   0   5 -11   -5.00    6.00
   0  -5  11    1.70    5.40
   0  -5  11   -4.90    5.00
  -1   5 -11  -14.30    5.80
   1  -5  11    7.80    6.10
   1  -5  11    1.30    5.40
  -2   5 -11   28.70    6.70
  -2   5 -11   23.30    6.10
   2  -5  11   28.80    8.00
   2  -5  11   24.20    7.00
  -3   5 -11   60.69    7.90
  -3   5 -11  103.49    9.20
   3  -5  11   88.69   10.40
  -4   5 -11    3.90    7.00
  -5   5 -11   -5.00    7.80
  -5   5 -11   -2.80   10.10
   6  -5  11   20.50    9.10
  -6  -4  11   67.19   11.80
  -5  -4  11   10.00   14.60
  -5  -4  11    1.40    7.50
   4   4 -11   50.49   10.60
   4   4 -11   12.80   10.20
   4   4 -11   33.10   11.50
   4   4 -11   14.80   10.00
  -4  -4  11   38.50   10.80
  -4  -4  11   36.80    8.40
   3   4 -11   61.89    8.50
   3   4 -11   65.99    9.90
   3   4 -11   29.10    9.70
   3   4 -11   64.69    9.20
   3   4 -11   57.79    8.20
   3   4 -11   66.99    9.60
  -3  -4  11   78.79    8.00
  -3  -4  11   48.70    8.70
  -3  -4  11   53.09   10.00
   2   4 -11    8.30    7.10
   2   4 -11    0.40    6.60
   2   4 -11    3.40    6.80
   2   4 -11    7.60    5.60
   2   4 -11   -2.60    5.60
   2   4 -11    8.90    5.90
  -2  -4  11   13.40    9.30
  -2  -4  11    9.50    6.90
  -2  -4  11    3.20    6.70
  -2  -4  11    0.30    5.10
  -2  -4  11   13.80    6.10
  -2  -4  11    9.30    7.20
   1   4 -11   18.30    5.40
   1   4 -11   19.00    5.60
   1   4 -11   23.50    6.30
   1   4 -11   30.90    5.40
   1   4 -11   22.10    5.90
   1   4 -11   17.80    6.50
  -1  -4  11   12.50    6.40
  -1  -4  11   21.80    5.90
  -1  -4  11   25.40    6.10
  -1  -4  11   24.90    5.80
  -1  -4  11   19.60    6.40
  -1  -4  11   14.50    5.60
  -1  -4  11   18.20    7.60
   0   4 -11    6.70    6.10
   0   4 -11   14.70    4.80
   0   4 -11   11.10    4.10
   0   4 -11    8.40    4.50
   0  -4  11   13.50    5.40
   0  -4  11    9.40    6.00
   0  -4  11   13.50    7.40
  -1   4 -11   -0.10    5.40
   1  -4  11    2.80    5.20
   1  -4  11   -5.20    4.60
  -2   4 -11    5.70    5.60
   2  -4  11    9.00    5.00
   2  -4  11   11.50    5.90
   3  -4  11    9.60    5.90
   3  -4  11    8.30    5.60
  -4   4 -11   25.30    6.50
   4  -4  11    7.80    5.80
  -5   4 -11   16.50    6.50
  -5   4 -11    6.90    7.50
   5  -4  11   14.40    6.80
   5  -4  11   43.80   10.10
  -6   4 -11   11.30    7.00
   6  -4  11    4.10    8.00
   7  -4  11    8.00    9.70
  -6  -3  11   29.90   10.40
   5   3 -11  -11.60   20.70
  -5  -3  11   -0.40    8.90
  -5  -3  11   18.10   11.90
  -5  -3  11    6.40    7.90
   4   3 -11   68.29   12.40
   4   3 -11   73.39   10.80
   4   3 -11  100.29   13.80
   4   3 -11   78.99   12.70
  -4  -3  11   92.69   11.30
  -4  -3  11   73.49   12.30
  -4  -3  11   81.29    8.60
   3   3 -11   10.10    8.40
   3   3 -11   -2.10    7.20
   3   3 -11    2.90    6.50
   3   3 -11    1.30    8.00
   3   3 -11    6.30    8.50
   3   3 -11   17.80    7.70
  -3  -3  11    4.60    6.10
  -3  -3  11    5.50    6.20
  -3  -3  11   -0.50    8.40
   2   3 -11    7.70    6.60
   2   3 -11    3.40    5.20
   2   3 -11    6.70    5.70
   2   3 -11    0.20    5.90
   2   3 -11    6.60    6.40
   2   3 -11    1.00    7.30
  -2  -3  11   25.90    7.00
  -2  -3  11   12.00    5.90
  -2  -3  11    2.20    7.10
  -2  -3  11    3.50    7.30
  -2  -3  11    4.40    5.50
  -2  -3  11    5.90    6.50
   1   3 -11   18.90    6.40
   1   3 -11   11.60    4.80
   1   3 -11   15.90    5.80
   1   3 -11   13.50    6.10
   1   3 -11   14.70    4.80
   1   3 -11   14.00    5.50
  -1  -3  11   25.10    7.70
  -1  -3  11   27.10    5.90
  -1  -3  11   11.70    5.30
  -1  -3  11   15.90    5.50
  -1  -3  11   14.10    5.60
  -1  -3  11    2.70    5.80
  -1  -3  11   24.60    6.10
   0   3 -11   15.10    4.10
   0   3 -11   11.70    6.20
   0   3 -11   15.90    4.10
   0   3 -11   15.90    5.40
   0   3 -11   15.20    5.20
   0  -3  11   19.50    5.30
   0  -3  11   13.20    8.20
  -1   3 -11   52.69    6.70
   1  -3  11   52.19    8.70
   1  -3  11   47.60    6.20
  -2   3 -11    3.90    4.80
   2  -3  11   -0.50    4.30
   2  -3  11   -0.60    4.30
  -3   3 -11    1.50    4.50
  -3   3 -11    7.40    5.30
   3  -3  11    1.10    5.10
   3  -3  11    2.20    5.00
  -4   3 -11   -4.10    5.10
  -4   3 -11   -0.60    4.50
   4  -3  11   -4.00    5.00
  -5   3 -11   90.19    8.10
  -5   3 -11   64.29    9.50
   5  -3  11   66.19    8.60
  -6   3 -11   15.20    6.50
  -6   3 -11    8.70    5.80
   6  -3  11    9.90    6.90
   6  -3  11   15.90    8.80
  -7   3 -11   10.50    8.10
   7  -3  11   -0.70    8.10
  -8   3 -11   24.40   10.40
   8  -3  11   33.80   10.50
  -6  -2  11   25.10   17.10
  -6  -2  11   38.30   11.30
   5   2 -11   15.40   13.40
   5   2 -11   76.59   15.50
  -5  -2  11   57.79   13.20
  -5  -2  11   37.70   10.30
   4   2 -11  116.59   16.80
   4   2 -11  109.69   14.50
   4   2 -11   99.39   12.40
  -4  -2  11  132.39   17.00
  -4  -2  11  139.29   12.30
  -4  -2  11  151.18   10.20
   3   2 -11   49.60    8.20
   3   2 -11   36.80   10.40
   3   2 -11   33.70    8.70
   3   2 -11   31.10    7.20
   3   2 -11   46.20    8.30
   3   2 -11   40.10    9.50
  -3  -2  11   34.40    7.30
  -3  -2  11   23.20    8.90
  -3  -2  11   24.10    9.50
  -3  -2  11   43.90    6.70
  -3  -2  11   46.90    9.10
   2   2 -11   11.30    5.40
   2   2 -11    5.60    5.70
   2   2 -11    4.50    7.60
   2   2 -11    9.10    5.90
   2   2 -11    1.80    6.60
   2   2 -11    9.40    6.30
  -2  -2  11    2.50    6.40
  -2  -2  11    7.70    6.90
  -2  -2  11    7.90    5.30
  -2  -2  11    2.00    7.40
  -2  -2  11    2.80    6.90
  -2  -2  11   14.20    5.90
  -2  -2  11   12.70    7.30
   1   2 -11   96.29    7.60
   1   2 -11   90.69    9.00
   1   2 -11   97.29    9.60
   1   2 -11  104.59   10.40
   1   2 -11  101.39    7.80
  -1  -2  11  101.39   10.10
  -1  -2  11  103.69    8.30
  -1  -2  11   88.59    7.40
  -1  -2  11  101.29    8.80
  -1  -2  11   83.99    9.10
  -1  -2  11   96.39   10.20
  -1  -2  11   88.79    9.40
   0   2 -11  120.99    7.10
   0   2 -11  123.29    7.30
   0   2 -11  123.19    9.30
   0   2 -11  105.69    9.60
   0   2 -11  108.49    8.30
   0  -2  11  133.19    8.90
   0  -2  11  114.19   11.10
   0  -2  11  109.19    7.60
   0  -2  11  102.29    7.40
   0  -2  11  131.79    8.10
   0  -2  11  124.09    8.90
   0  -2  11  114.59    9.40
  -1   2 -11    9.80    3.40
  -1   2 -11   11.40    4.60
  -1   2 -11    9.10    3.50
  -1   2 -11   11.20    4.70
   1  -2  11   13.20    5.30
   1  -2  11   13.70    4.50
   1  -2  11   15.90    5.80
  -2   2 -11   80.39    6.90
   2  -2  11   68.29    6.80
   2  -2  11   64.29    8.00
  -3   2 -11    6.40    4.00
   3  -2  11    8.20    4.90
   3  -2  11   -1.90    4.40
  -4   2 -11    9.70    5.50
  -4   2 -11   11.50    3.80
   4  -2  11   12.40    5.00
   4  -2  11   15.60    6.70
  -5   2 -11   20.60    6.00
   5  -2  11   23.00    8.00
   5  -2  11   20.40    5.90
  -6   2 -11   19.70    6.40
   6  -2  11   13.10    6.70
  -7   2 -11   12.20    7.70
   7  -2  11   24.00   10.20
   7  -2  11    6.60    6.30
  -8   2 -11   48.50    9.80
   8  -2  11   52.09    9.40
   8  -2  11   55.99   11.20
   9  -2  11  -10.60   10.30
   6   1 -11    3.70   14.40
  -6  -1  11  -11.20   23.20
  -6  -1  11    5.90   11.60
   5   1 -11   -5.00   13.60
  -5  -1  11   13.60   12.70
  -5  -1  11   20.90    9.80
   4   1 -11   11.20   11.30
   4   1 -11   11.20   10.70
   4   1 -11   32.70    9.20
  -4  -1  11   13.70    7.90
  -4  -1  11   36.40   10.50
  -4  -1  11   26.50   19.40
   3   1 -11   36.00    7.20
   3   1 -11   25.20    8.70
   3   1 -11   14.80    9.00
   3   1 -11   25.90    7.90
  -3  -1  11   25.20    9.50
  -3  -1  11   19.40    9.10
  -3  -1  11   29.10    7.30
  -3  -1  11   23.80    9.60
   2   1 -11   31.20    6.80
   2   1 -11   38.60    7.70
   2   1 -11   26.80    6.60
   2   1 -11   28.30    7.70
   2   1 -11   43.60   15.00
  -2  -1  11   34.00    7.70
  -2  -1  11   26.40    7.60
  -2  -1  11   41.70    8.70
  -2  -1  11   35.40    6.00
  -2  -1  11   32.30    7.80
  -2  -1  11   27.20    7.00
  -2  -1  11   25.90    7.60
   1   1 -11    4.10    5.50
   1   1 -11   -3.60    4.80
   1   1 -11   -9.20    4.20
   1   1 -11   -9.90    6.10
   1   1 -11   11.40    6.40
  -1  -1  11   -6.20    6.20
  -1  -1  11    3.10    5.00
  -1  -1  11   -8.30    4.80
  -1  -1  11   -8.00    4.20
  -1  -1  11  -12.70    5.70
  -1  -1  11   -3.10    5.20
   0   1 -11   15.60    5.90
   0   1 -11   10.70    5.70
   0   1 -11   16.00    4.30
   0   1 -11   15.90    5.30
   0   1 -11   18.70    4.50
   0  -1  11   19.30    5.50
   0  -1  11   15.50    6.10
   0  -1  11   10.60    4.70
   0  -1  11   21.20    6.00
   0  -1  11   25.00    5.40
   0  -1  11   10.20    4.40
   0  -1  11   17.90    5.50
  -1   1 -11   14.20    3.80
  -1   1 -11    8.80    4.30
  -1   1 -11   13.00    4.90
  -1   1 -11   14.40    3.80
  -1   1 -11   17.60    6.30
   1  -1  11    8.40    4.00
   1  -1  11   17.80    5.20
   1  -1  11   18.20    5.00
   1  -1  11    7.60    4.90
   1  -1  11   20.10    5.70
  -2   1 -11   26.80    4.70
  -2   1 -11   15.60    3.40
   2  -1  11   19.10    5.30
   2  -1  11   14.40    5.30
   2  -1  11   25.70    5.30
  -3   1 -11   24.00    4.20
   3  -1  11   20.70    5.80
  -4   1 -11    9.60    5.20
   4  -1  11    9.80    5.80
   4  -1  11   13.80    5.40
  -5   1 -11    1.60    5.00
   5  -1  11   -3.60    6.00
  -6   1 -11   -0.10    5.60
   6  -1  11   -3.30    5.00
   6  -1  11   -9.40    7.10
  -7   1 -11   45.20    8.10
   7  -1  11   49.10    8.30
   7  -1  11   56.99   10.20
  -8   1 -11   49.70    9.30
   8  -1  11   42.90    7.60
   8  -1  11   49.80   11.00
   9  -1  11    2.60    7.50
   9  -1  11    0.00   10.20
   5   0 -11    8.00   17.90
  -5   0  11    5.00   11.10
  -5   0  11   41.40   14.90
   4   0 -11   26.60   11.50
   4   0 -11   31.30   11.50
   4   0 -11   12.00   10.40
  -4   0  11    0.30   10.90
  -4   0  11    8.50    9.50
  -4   0  11  -12.60   19.50
   3   0 -11   21.20    8.40
   3   0 -11    0.90    8.20
   3   0 -11    7.20    7.90
   3   0 -11   13.50    8.90
  -3   0  11    7.00    9.00
  -3   0  11   12.40    9.90
  -3   0  11   13.70   10.20
   2   0 -11   38.90    7.10
   2   0 -11   29.60    7.30
   2   0 -11   33.20    7.00
   2   0 -11   25.10    7.60
   2   0 -11   23.40    8.00
  -2   0  11   22.40    7.60
  -2   0  11   20.30    8.10
  -2   0  11   37.50    8.90
  -2   0  11   51.69    8.70
  -2   0  11   11.60    7.50
   1   0 -11   18.00    6.90
   1   0 -11   11.00    4.80
   1   0 -11   18.40    6.30
   1   0 -11    8.70    6.10
  -1   0  11    3.60    6.30
  -1   0  11   10.70    6.00
  -1   0  11   18.30    6.20
  -1   0  11   10.30    7.30
  -1   0  11   14.20    6.80
  -1   0  11   22.30    6.60
   0   0 -11    9.10    5.40
   0   0 -11    5.10    4.40
   0   0 -11    5.00    5.80
   0   0 -11    4.80    4.10
   0   0  11    6.90    4.20
   0   0  11   -3.80    4.70
   0   0  11   10.10    5.90
   0   0  11    4.90    4.70
   0   0  11    3.80    5.30
   0   0  11    2.50    5.60
   0   0  11    5.70    5.10
  -1   0 -11   64.59    8.30
  -1   0 -11   67.09    6.30
  -1   0 -11   62.29    7.60
   1   0  11   64.79    7.10
   1   0  11   57.49    7.30
   1   0  11   82.39    8.10
   1   0  11   74.19    7.80
   1   0  11   73.89    6.40
   1   0  11   63.29   12.70
  -2   0 -11   37.80    4.40
  -2   0 -11   35.30    5.60
  -2   0 -11   32.70    4.40
  -2   0 -11   39.10    5.90
  -2   0 -11   39.50    7.00
   2   0  11   42.50    5.60
   2   0  11   43.40    5.60
   2   0  11   35.50    5.70
   2   0  11   39.60    5.60
   2   0  11   41.40    6.00
   2   0  11   40.40    4.90
  -3   0 -11    2.10    3.20
  -3   0 -11    0.00    4.00
  -3   0 -11    7.30    4.10
  -3   0 -11    3.00    3.10
  -3   0 -11    6.20    3.10
   3   0  11    0.90    4.10
   4   0  11  111.59    8.00
  -5   0 -11    4.20    5.50
   5   0  11   12.10    5.50
   5   0  11    6.00    6.20
  -6   0 -11  201.28   12.40
   6   0  11  220.78   12.70
   6   0  11  183.18   10.50
  -7   0 -11   24.70    6.90
   7   0  11   25.50    7.00
   7   0  11   34.70    9.40
  -8   0 -11   -9.50    7.80
   8   0  11   -5.90    5.40
   8   0  11   -4.40    8.90
   9   0  11   56.89   11.50
   9   0  11   36.50    7.70
  -5   1  11   -2.90   16.10
   4  -1 -11   35.80   13.00
  -4   1  11   12.30   12.00
   3  -1 -11   -8.20    9.40
   3  -1 -11  -19.30    7.70
   3  -1 -11   23.90    9.90
  -3   1  11    5.00    6.70
  -3   1  11   -6.90    9.10
  -3   1  11    6.90   10.20
   2  -1 -11   -1.60    6.80
   2  -1 -11    9.60    8.30
   2  -1 -11   -8.40    6.00
   2  -1 -11    0.60    7.30
  -2   1  11   -1.40    8.30
  -2   1  11    3.90    6.00
  -2   1  11   10.70    7.40
  -2   1  11    1.20    8.60
   1  -1 -11   18.10    7.10
   1  -1 -11   -8.90    6.10
   1  -1 -11    3.60    5.50
   1  -1 -11    0.90    5.90
  -1   1  11    9.10    6.40
  -1   1  11   -0.30    6.70
  -1   1  11   10.60    6.60
  -1   1  11   -1.50    5.30
  -1   1  11    7.20    6.40
  -1   1  11    3.50    7.00
   0  -1 -11    4.80    5.10
   0  -1 -11    4.40    5.50
   0  -1 -11    7.20    4.90
   0  -1 -11    6.80    6.50
   0   1  11    4.50    6.30
   0   1  11   -1.60    4.90
   0   1  11   -1.60    5.30
   0   1  11    3.20    5.00
   0   1  11    5.10    5.90
   0   1  11   13.10    5.70
  -1  -1 -11   17.40    5.70
  -1  -1 -11   12.40    4.60
  -1  -1 -11   10.90    4.30
  -1  -1 -11    6.70    5.00
   1   1  11   11.00    5.50
   1   1  11   15.10    5.60
   1   1  11   15.50    5.50
   1   1  11   10.30    5.40
   1   1  11   17.30    6.00
   1   1  11   20.30    5.50
  -2  -1 -11    5.40    4.90
  -2  -1 -11    1.10    3.70
  -2  -1 -11   -4.60    4.80
  -2  -1 -11   -3.20    4.10
   2   1  11    4.90    4.60
   2   1  11    9.10    4.80
   2   1  11   -1.80    4.10
   2   1  11    0.10    4.60
   2   1  11    6.40    4.00
  -3  -1 -11    2.50    4.40
  -3  -1 -11   -8.50    3.30
  -3  -1 -11    5.00    3.70
   3   1  11   -3.60    4.40
   3   1  11    0.50    3.60
   3   1  11    3.50    4.20
   3   1  11    1.20    4.30
  -4  -1 -11   10.70    4.40
  -4  -1 -11    6.30    4.30
  -4  -1 -11    6.70    3.70
  -4  -1 -11   -1.00    3.50
   4   1  11    7.40    4.20
  -5  -1 -11    9.50    5.60
   5   1  11   17.20    5.50
   5   1  11    6.50    6.40
  -6  -1 -11   15.70    5.70
   6   1  11   19.10    7.50
   6   1  11   14.80    5.20
  -7  -1 -11    4.80    6.50
   7   1  11    6.00    8.00
   7   1  11   14.20    5.60
  -8  -1 -11   12.10    8.30
   8   1  11   -4.30    4.90
   9   1  11   18.70    6.90
   9   1  11   21.20   10.70
  10   1  11   55.79    9.70
  10   1  11   84.79   14.60
   4  -2 -11    6.30   13.20
  -4   2  11    3.10   12.80
   3  -2 -11   -5.30   10.50
   3  -2 -11    4.50   10.20
   3  -2 -11  -13.30   12.10
  -3   2  11   14.90   10.60
  -3   2  11   -2.30   11.00
   2  -2 -11   13.40    8.70
   2  -2 -11   -1.70    7.80
   2  -2 -11   -8.90    8.70
   2  -2 -11   -3.60    7.50
  -2   2  11   11.70    7.90
  -2   2  11   -3.70    8.40
  -2   2  11    0.00    9.20
   1  -2 -11   64.59    8.20
   1  -2 -11   86.89   11.20
   1  -2 -11   79.19   10.40
   1  -2 -11   67.69    9.80
  -1   2  11   84.89   10.60
  -1   2  11   72.59    9.90
  -1   2  11   70.89    9.70
  -1   2  11   86.79    9.50
  -1   2  11   67.19   10.60
   0  -2 -11   -4.50    6.30
   0  -2 -11    4.90    5.40
   0  -2 -11    0.20    6.60
   0  -2 -11    4.50    6.00
   0   2  11   18.10    7.00
   0   2  11    7.20    5.40
   0   2  11   -1.70    7.10
   0   2  11   -9.00    5.90
   0   2  11   -0.60    5.80
  -1  -2 -11   15.70    6.00
  -1  -2 -11    7.80    6.10
  -1  -2 -11    7.30    5.00
  -1  -2 -11   18.00    5.60
   1   2  11   16.30    6.00
   1   2  11   21.30    6.80
  -2  -2 -11   15.60    5.00
  -2  -2 -11   18.70    5.90
  -2  -2 -11   20.80    4.80
  -2  -2 -11   22.40    5.60
   2   2  11   21.30    6.10
   2   2  11   19.20    4.20
   2   2  11   42.00    6.70
   2   2  11   22.00    5.90
   2   2  11   15.40    4.40
  -3  -2 -11    3.90    4.20
  -3  -2 -11    3.50    4.80
  -3  -2 -11   -8.30    4.10
  -3  -2 -11   -0.40    4.80
   3   2  11    3.10    4.90
   3   2  11   -5.30    5.10
   3   2  11    3.90    4.20
   3   2  11   -3.90    4.70
   3   2  11    3.30    4.70
  -4  -2 -11    3.00    4.60
  -4  -2 -11    6.90    4.20
  -4  -2 -11    5.90    4.90
  -4  -2 -11    2.50    4.30
   4   2  11    5.70    4.90
   4   2  11    7.80    4.60
   4   2  11    0.60    4.30
   4   2  11    6.50    6.50
   4   2  11   11.00    4.90
  -5  -2 -11   33.60    5.60
  -5  -2 -11   29.00    4.90
  -5  -2 -11   46.00    7.50
  -5  -2 -11   27.10    5.20
  -5  -2 -11   47.50    5.50
   5   2  11   41.70    7.10
   5   2  11   43.10    8.50
  -6  -2 -11   17.80    4.80
  -6  -2 -11   31.40    5.00
  -6  -2 -11   11.00    6.40
  -6  -2 -11   21.20    5.00
   6   2  11   21.40    7.70
   6   2  11   18.10    5.80
  -7  -2 -11    5.50    7.10
   7   2  11   -4.10    4.80
   7   2  11   -2.10    7.60
  -8  -2 -11   31.60    8.70
   8   2  11   34.10    7.40
   8   2  11   47.40   11.20
   9   2  11    2.80    5.30
   9   2  11    6.10   10.50
  10   2  11    6.80    6.40
  10   2  11   19.90   11.30
   4  -3 -11  -30.70   16.90
   3  -3 -11   13.20   12.60
  -3   3  11   20.50   12.10
  -3   3  11   -9.20   15.20
   2  -3 -11   -4.00    9.10
   2  -3 -11   16.20   10.00
   2  -3 -11    0.40    9.00
   2  -3 -11   -8.30   10.10
  -2   3  11   15.10   10.20
  -2   3  11   13.80   11.10
  -2   3  11    1.70   11.90
   1  -3 -11   12.50    8.20
   1  -3 -11   -0.50    7.90
   1  -3 -11    5.20    8.90
   1  -3 -11   -2.60    7.60
  -1   3  11    0.20    7.00
  -1   3  11   13.60    9.40
  -1   3  11    1.00    8.80
   0  -3 -11   33.20    8.10
   0  -3 -11   36.00    7.20
   0  -3 -11   32.00    7.10
   0  -3 -11   37.60    7.90
   0   3  11   46.30    8.70
   0   3  11   34.30    8.40
  -1  -3 -11   14.60    6.60
  -1  -3 -11   13.00    5.70
  -1  -3 -11   19.10    7.40
  -1  -3 -11   14.30    6.40
   1   3  11   32.30    7.80
   1   3  11   20.40    7.30
   1   3  11   21.30    5.70
   1   3  11   17.60    6.60
   1   3  11   17.60    6.60
  -2  -3 -11   18.40    6.70
  -2  -3 -11    3.30    5.90
  -2  -3 -11   41.40    6.30
  -2  -3 -11   17.90    6.10
   2   3  11   20.90    6.60
   2   3  11   20.10    4.90
   2   3  11   20.80    6.00
   2   3  11   20.40    6.60
   2   3  11   22.40    6.00
  -3  -3 -11   16.90    5.30
  -3  -3 -11   20.30    5.20
  -3  -3 -11   17.20    5.90
  -3  -3 -11   20.30    6.00
   3   3  11    6.60    4.00
   3   3  11   14.60    5.60
   3   3  11    7.40    5.90
   3   3  11   12.20    6.30
  -4  -3 -11    6.30    5.30
  -4  -3 -11    4.70    4.90
  -4  -3 -11   -5.60    4.70
  -4  -3 -11   20.60    5.30
   4   3  11   13.40    5.80
   4   3  11    8.10    4.60
   4   3  11    9.40    5.40
   4   3  11    7.80    6.00
   4   3  11   12.70    5.00
  -5  -3 -11    6.60    5.30
  -5  -3 -11    2.30    4.90
  -5  -3 -11    0.40    4.80
  -5  -3 -11    4.10    5.10
   5   3  11   -9.70    5.40
   5   3  11   12.00    5.20
   5   3  11   -1.80    6.20
   5   3  11   -3.20    4.40
   5   3  11    3.50    5.20
  -6  -3 -11    9.60    5.20
  -6  -3 -11   12.40    5.80
  -6  -3 -11    5.70    5.00
  -6  -3 -11    1.50    5.20
  -6  -3 -11   -0.80    5.80
   6   3  11    5.50    5.60
   6   3  11   -2.70    4.40
   6   3  11    8.80    5.30
   6   3  11   12.90    7.40
   6   3  11   22.90    6.90
   6   3  11   13.00    6.30
  -7  -3 -11   -8.80    5.20
  -7  -3 -11   -1.20    5.70
  -7  -3 -11   -7.70    5.30
  -7  -3 -11    8.60    5.50
  -7  -3 -11   -0.90    6.80
   7   3  11   -2.70    4.60
   7   3  11   -3.10    7.40
   7   3  11   -5.40    8.40
   7   3  11    6.90    5.70
  -8  -3 -11    1.20    8.20
  -8  -3 -11   -4.30    5.90
  -8  -3 -11    1.00    8.60
  -8  -3 -11    4.90    6.00
   8   3  11    3.80    5.20
   8   3  11    7.70    9.50
   9   3  11   -0.30    6.00
   9   3  11   10.60   10.10
  10   3  11   -8.10    6.00
  10   3  11   15.80   11.80
   3  -4 -11   -5.30   13.90
  -3   4  11   16.10   14.20
   2  -4 -11    0.40   10.90
   2  -4 -11   21.10   12.20
   2  -4 -11   -4.60   11.20
  -2   4  11   -3.60   11.70
  -2   4  11   -1.10   10.10
   1  -4 -11   76.79   11.70
   1  -4 -11  101.89   12.20
   1  -4 -11   88.59   11.30
   1  -4 -11   76.79   11.80
  -1   4  11   82.29   12.10
  -1   4  11   83.69   13.10
  -1   4  11   85.49   12.90
   0  -4 -11   49.90    9.80
   0  -4 -11   46.30    9.00
   0  -4 -11   59.49   10.30
   0  -4 -11   49.60    9.10
   0   4  11   52.09    9.90
   0   4  11   46.40    8.20
   0   4  11   57.69   10.50
   0   4  11   55.49   12.50
  -1  -4 -11   46.90    8.20
  -1  -4 -11   51.59    8.40
  -1  -4 -11   61.79    9.30
  -1  -4 -11   55.19    8.50
   1   4  11   36.40    8.40
   1   4  11   46.20    9.50
   1   4  11   51.69    9.10
   1   4  11   47.00    8.50
   1   4  11   49.80    7.20
  -2  -4 -11   19.90    6.40
  -2  -4 -11   27.20    6.80
  -2  -4 -11   25.40    7.60
  -2  -4 -11   32.00    7.30
   2   4  11   22.70    7.60
   2   4  11   26.00    7.20
   2   4  11   27.00    7.40
   2   4  11   24.60    5.50
   2   4  11   29.40    8.50
  -3  -4 -11   18.00    6.50
  -3  -4 -11    9.00    6.20
  -3  -4 -11    4.20    6.00
  -3  -4 -11    2.30    6.20
   3   4  11    4.50    6.50
   3   4  11   -5.40    6.30
   3   4  11    5.40    4.80
   3   4  11    6.30    7.20
   3   4  11    7.00    6.30
  -4  -4 -11   44.80    7.40
  -4  -4 -11   56.99    7.20
  -4  -4 -11   48.30    7.50
  -4  -4 -11   68.59    8.90
   4   4  11   51.19    8.20
   4   4  11   40.10    6.90
   4   4  11   63.19    8.20
   4   4  11   44.20    7.30
  -5  -4 -11    6.30    6.00
  -5  -4 -11    5.90    5.80
  -5  -4 -11    3.80    5.60
  -5  -4 -11   15.60    5.60
   5   4  11   -1.50    6.50
   5   4  11    5.00    5.70
   5   4  11    0.20    7.30
   5   4  11    1.80    6.00
  -6  -4 -11    7.40    6.20
  -6  -4 -11   12.60    6.10
  -6  -4 -11   17.40    6.90
  -6  -4 -11   27.10    7.40
  -6  -4 -11   19.90    6.20
   6   4  11   16.10    6.90
   6   4  11   21.50    6.50
   6   4  11   15.50    8.10
   6   4  11   17.10    5.20
  -7  -4 -11   -1.80    7.40
  -7  -4 -11   -2.10    6.50
  -7  -4 -11   12.30    7.30
  -7  -4 -11    2.40    6.50
  -7  -4 -11    6.10    6.00
   7   4  11   15.20    8.70
   7   4  11   -2.30    6.70
   7   4  11    4.80    6.70
   7   4  11   11.30    9.00
   7   4  11   -4.80    4.40
  -8  -4 -11   -5.50    6.80
  -8  -4 -11    4.30    8.50
  -8  -4 -11   -5.50    6.60
   8   4  11    5.60    6.30
   8   4  11    9.00    9.90
  -9  -4 -11    6.30    7.70
   9   4  11   38.80   13.10
   9   4  11   12.60    6.50
  10   4  11   33.70    8.00
  10   4  11   21.40   13.00
   2  -5 -11  -27.60   13.60
  -2   5  11   -4.10   13.40
   1  -5 -11   17.80   12.00
   1  -5 -11   -7.70   11.50
   1  -5 -11   20.60   11.10
  -1   5  11   50.29   12.20
  -1   5  11   10.00   12.50
   0  -5 -11   34.00   10.80
   0  -5 -11   41.50   11.00
   0  -5 -11   58.59   10.80
   0  -5 -11   34.10    9.60
   0   5  11   46.70   11.40
   0   5  11   71.99   11.50
   0   5  11   39.70    9.40
  -1  -5 -11   16.30    9.20
  -1  -5 -11   40.50    9.70
  -1  -5 -11   42.50    9.60
  -1  -5 -11   20.30    8.50
   1   5  11   31.80   10.20
   1   5  11   37.80    9.20
  -2  -5 -11   20.60    8.50
  -2  -5 -11   17.10    7.60
  -2  -5 -11   11.40    8.10
  -2  -5 -11    4.10    7.40
   2   5  11    7.00    8.30
   2   5  11   12.80    8.20
   2   5  11   22.30   10.50
   2   5  11    5.40    6.10
  -3  -5 -11   -9.00    7.10
  -3  -5 -11    4.00    6.60
  -3  -5 -11    3.80    7.20
  -3  -5 -11    4.20    7.50
   3   5  11   17.20   10.30
   3   5  11    4.20    7.40
   3   5  11    1.70    7.00
   3   5  11   -2.90    4.20
   3   5  11    4.30    8.10
  -4  -5 -11    0.20    6.40
  -4  -5 -11    2.40    6.90
  -4  -5 -11   -2.30    6.60
  -4  -5 -11    8.50    7.40
   4   5  11   -6.50    8.30
   4   5  11    1.80    8.50
   4   5  11    1.50    6.70
   4   5  11   -2.70    4.70
   4   5  11    6.40    7.10
  -5  -5 -11   96.79   11.70
  -5  -5 -11  113.49   10.80
  -5  -5 -11  101.99   10.50
  -5  -5 -11  106.59   11.10
   5   5  11   84.09   11.60
   5   5  11   91.09    7.90
   5   5  11   96.09   11.90
  -6  -5 -11    5.40    6.60
  -6  -5 -11   10.10    7.10
  -6  -5 -11   22.40    8.00
  -6  -5 -11   29.80    7.50
  -6  -5 -11    7.10    6.60
   6   5  11   15.30    5.50
  -7  -5 -11   -5.70    8.60
  -7  -5 -11    5.50    7.50
  -7  -5 -11   18.20    8.70
  -7  -5 -11    2.00    8.50
  -7  -5 -11   -0.80    6.80
   7   5  11    6.20    5.70
   7   5  11   20.60    8.30
  -8  -5 -11   -4.10    9.10
  -8  -5 -11   -1.80    7.90
  -8  -5 -11   -0.30    8.10
   8   5  11   10.80   10.10
   8   5  11    0.80    5.30
  -9  -5 -11   12.40    9.10
   9   5  11    9.90    6.30
   9   5  11   21.10   12.30
  10   5  11   12.30   12.70
  10   5  11   20.40    7.00
   2  -6 -11  -16.40   25.80
   1  -6 -11   38.10   15.50
  -1   6  11   11.40   13.70
   0  -6 -11   18.70   12.50
   0  -6 -11   22.60   14.40
   0  -6 -11   27.90   14.50
   0   6  11   17.30   11.30
   0   6  11    9.20   12.30
   0   6  11   21.50   11.20
  -1  -6 -11  155.68   16.20
  -1  -6 -11  157.78   16.70
  -1  -6 -11  140.49   15.80
  -1  -6 -11  162.68   17.80
   1   6  11  138.19   13.80
   1   6  11  143.49   17.60
   1   6  11  132.19   16.00
  -2  -6 -11  154.98   15.50
  -2  -6 -11  170.58   15.10
  -2  -6 -11  123.59   14.60
   2   6  11  146.69   15.50
   2   6  11  142.39   11.60
   2   6  11  136.09   16.10
  -3  -6 -11    6.00    8.70
  -3  -6 -11    3.10    8.50
  -3  -6 -11   12.20    8.40
  -3  -6 -11    6.80    9.10
   3   6  11    2.80    6.10
   3   6  11    7.00    8.90
   3   6  11   14.50    9.90
  -4  -6 -11    9.80    8.10
  -4  -6 -11    4.80    8.40
  -4  -6 -11   27.20    8.30
  -4  -6 -11   16.30    8.50
   4   6  11    3.10    8.50
   4   6  11    4.50    5.40
   4   6  11   16.20    9.00
  -5  -6 -11  117.49   12.90
  -5  -6 -11  123.09   12.30
  -5  -6 -11  114.99   12.50
  -5  -6 -11   97.29   12.90
   5   6  11  117.29   13.30
   5   6  11  111.39    8.90
   5   6  11  144.59   13.00
  -6  -6 -11   11.10    8.00
  -6  -6 -11  -12.20    8.60
  -6  -6 -11   10.10    8.20
  -6  -6 -11    4.20    7.40
  -6  -6 -11   -9.60    8.30
   6   6  11    5.20   10.20
   6   6  11   -1.00    5.30
   6   6  11    3.60    8.30
  -7  -6 -11   -5.70    8.70
  -7  -6 -11    1.40    8.10
  -7  -6 -11   -7.70    8.00
  -7  -6 -11   17.80   10.20
   7   6  11   -1.10    9.30
   7   6  11    5.80    6.20
  -8  -6 -11   26.80    9.70
   8   6  11   40.30   11.60
   8   6  11   18.70    6.20
   9   6  11   19.60    6.90
   9   6  11   21.50   13.30
  10   6  11    4.20   14.30
  10   6  11    5.70    7.20
   0  -7 -11  -15.30   15.70
   0   7  11    8.20   14.60
  -1  -7 -11   23.30   12.80
   1   7  11   51.59   13.10
   1   7  11    5.80   13.70
  -2  -7 -11   22.10   11.30
  -2  -7 -11   39.30   12.90
   2   7  11   23.00   12.20
   2   7  11   40.10   11.70
   2   7  11   16.30   11.60
  -3  -7 -11   98.79   13.80
  -3  -7 -11   96.99   12.90
  -3  -7 -11  119.59   15.40
   3   7  11  101.69   14.20
   3   7  11   84.89   12.70
  -4  -7 -11   33.20   14.00
  -4  -7 -11   -3.90    9.60
  -4  -7 -11   16.60   10.70
  -4  -7 -11   20.50   10.00
   4   7  11   28.30   10.90
   4   7  11   33.40   10.00
  -5  -7 -11   -2.40    8.70
  -5  -7 -11    4.20    9.70
  -5  -7 -11  -13.40    9.70
   5   7  11    2.60    5.50
   5   7  11   -7.80   10.10
  -6  -7 -11   20.80    9.30
  -6  -7 -11   13.20    9.70
  -6  -7 -11   -1.30   10.20
  -6  -7 -11   22.90    9.40
   6   7  11    5.80    5.90
   6   7  11   17.00   10.70
  -7  -7 -11   60.19   13.40
  -7  -7 -11   84.89   12.20
  -7  -7 -11   73.89   12.50
   7   7  11   68.39    9.00
   7   7  11   46.50   20.70
   8   7  11   26.70    7.50
   9   7  11   12.80    6.60
   9   7  11   26.90   14.80
  10   7  11   21.60    7.80
  10   7  11   18.70   16.70
  -1  -8 -11   30.10   18.70
  -2  -8 -11  -26.60   14.50
   2   8  11  -26.00   13.30
  -3  -8 -11  213.08   21.60
   3   8  11  233.38   20.40
  -4  -8 -11  -12.60   11.60
   4   8  11   19.60   12.00
  -5  -8 -11   26.90   12.30
  -5  -8 -11   15.20   11.70
  -5  -8 -11   11.10   13.00
   5   8  11    6.60    6.30
   5   8  11   -4.50   11.50
  -6  -8 -11  -19.80   15.20
  -6  -8 -11   13.10   13.50
   6   8  11   32.40   11.80
   6   8  11   18.70    6.80
   7   8  11   32.30    7.60
   7   8  11   69.29   21.10
   8   8  11    3.10    6.30
   9   8  11    5.20    6.60
   4   9  11  -30.20   15.50
   5   9  11   93.79    9.70
   5   9  11  156.78   20.80
   6   9  11   14.10   14.00
   6   9  11    3.80    5.50
   7   9  11   -2.80    6.30
   8   9  11   -0.40    7.80
   5  10  11  127.09   11.30
   6  10  11   22.60    7.30
  -3  -8  12   -9.30    8.50
  -2  -8  12    3.30    8.00
  -1  -8  12   18.50    8.60
   0  -8  12   18.80    8.20
   1  -8  12    6.40    9.10
  -4  -7  12    8.80    9.70
  -3  -7  12   -3.50    8.10
  -2  -7  12  -13.30    6.60
  -1  -7  12   11.50    8.90
   0  -7  12   12.20    8.50
  -1   7 -12   21.70   11.80
   1  -7  12   37.40   10.60
  -2   7 -12   -9.00   11.80
   2  -7  12    5.80    8.50
   3  -7  12   -6.40    9.50
  -5  -6  12    9.70    8.80
  -4  -6  12   11.40    9.40
  -3  -6  12    9.80    7.50
   2   6 -12   18.70   10.30
   2   6 -12   -1.40    9.50
  -2  -6  12    0.80    6.60
  -1  -6  12   -2.30    8.40
  -1  -6  12   -8.00    6.60
   0   6 -12   -5.20    9.10
   0  -6  12    3.60    5.70
   0  -6  12    7.60    7.90
  -1   6 -12   17.20    8.90
   1  -6  12   32.60   10.00
  -2   6 -12    6.90    9.10
   2  -6  12   11.10    7.60
  -3   6 -12   20.20    9.80
   3  -6  12    0.30    7.60
  -5  -5  12   12.10    9.10
  -4  -5  12   11.20    8.60
   3   5 -12   10.10   10.90
   3   5 -12   27.10   12.40
  -3  -5  12   -1.60    6.90
   2   5 -12  -19.90    9.50
   2   5 -12   -7.60    7.60
   2   5 -12   -2.30    8.80
   2   5 -12   18.90    9.20
  -2  -5  12    0.60    6.00
  -2  -5  12   -2.50    7.40
   1   5 -12   -1.30    6.70
   1   5 -12   -3.30    7.30
   1   5 -12   -3.40    7.50
   1   5 -12    1.70    8.60
  -1  -5  12    4.70    7.00
  -1  -5  12   -0.60    7.10
   0   5 -12   15.50    8.40
   0   5 -12   -1.30    6.50
   0  -5  12   -4.90    6.10
   0  -5  12   -1.30    6.40
  -1   5 -12   -3.00    7.00
   1  -5  12   -0.10    6.50
   1  -5  12   -7.10    6.90
  -2   5 -12   -2.90    7.10
  -2   5 -12    1.80    6.90
   2  -5  12    3.50    6.80
   2  -5  12    4.30    8.10
  -3   5 -12    3.50    7.50
  -3   5 -12    8.80    7.20
   3  -5  12   16.00    7.50
   3  -5  12   -0.40    6.90
  -4   5 -12   21.90    8.60
   4  -5  12   20.90    8.10
  -5  -4  12    9.30   10.10
  -4  -4  12   -0.10    7.80
   3   4 -12   12.70   10.40
   3   4 -12    9.50   10.70
  -3  -4  12    5.50    8.10
  -3  -4  12   23.50    8.40
   2   4 -12    1.90    8.20
   2   4 -12    9.60    7.70
   2   4 -12   -5.20    8.10
  -2  -4  12   -3.10    6.90
  -2  -4  12   -3.40    5.80
   1   4 -12   14.80    7.20
   1   4 -12   22.30    6.70
   1   4 -12   12.00    7.60
   1   4 -12   15.40    6.80
   1   4 -12    6.60    7.30
  -1  -4  12    4.60    7.40
  -1  -4  12   14.60    7.70
  -1  -4  12   15.80    6.30
  -1  -4  12   18.90   10.20
   0   4 -12    5.40    5.10
   0   4 -12    5.80    7.30
   0  -4  12    2.80    5.20
   0  -4  12    6.00    6.00
  -1   4 -12   -6.70    6.40
   1  -4  12    4.40    6.50
   1  -4  12    6.50    6.00
  -2   4 -12  -13.00    6.10
   2  -4  12   -0.40    6.20
   2  -4  12   -3.30    5.60
  -3   4 -12   23.60    7.30
  -3   4 -12   20.20    6.90
   3  -4  12   42.90    8.60
   3  -4  12   31.50    7.10
  -4   4 -12   41.90    7.50
  -4   4 -12   23.30    7.70
   4  -4  12   27.40    7.90
  -5   4 -12   18.10    7.40
   5  -4  12   -2.30    6.70
   6  -4  12   30.20    9.70
   7  -4  12    6.30   10.40
  -5  -3  12    4.70   10.10
  -4  -3  12    2.10    7.80
  -4  -3  12   -2.80    8.40
   3   3 -12   26.90   10.90
   3   3 -12   15.90    9.90
   3   3 -12   22.30   10.60
  -3  -3  12   15.90    7.90
  -3  -3  12   18.40   12.40
  -3  -3  12   35.20    8.00
   2   3 -12   49.70    8.70
   2   3 -12   31.90    9.40
   2   3 -12   43.10    9.10
   2   3 -12   30.50    9.10
  -2  -3  12   33.30    9.80
  -2  -3  12   46.00    7.60
  -2  -3  12   45.00    9.00
   1   3 -12    4.50    7.70
   1   3 -12    9.10    5.60
   1   3 -12   -5.60    7.00
   1   3 -12    6.00    6.70
   1   3 -12    3.80    6.70
   1   3 -12   18.60    6.10
  -1  -3  12    2.30    5.10
  -1  -3  12    8.40    7.60
  -1  -3  12   -6.70    6.80
  -1  -3  12    6.30    5.60
  -1  -3  12   14.00    8.60
  -1  -3  12  -11.20    7.00
   0   3 -12   38.90    7.90
   0   3 -12   34.50    5.50
   0   3 -12   35.80    5.40
   0   3 -12   46.30    7.30
   0   3 -12   26.80    6.70
   0  -3  12   34.00    7.20
   0  -3  12   42.40    6.60
   0  -3  12   38.80    8.70
   0  -3  12   44.10    9.20
  -1   3 -12    3.70    6.50
   1  -3  12   -5.50    5.10
   1  -3  12    4.80    5.90
  -2   3 -12   57.19    9.60
   2  -3  12   62.99    8.00
   2  -3  12   49.99    8.00
  -3   3 -12   25.60    6.40
  -3   3 -12   21.90    6.10
   3  -3  12   18.50    7.70
   3  -3  12   24.70    7.30
  -4   3 -12   14.40    6.10
  -4   3 -12   25.90    6.70
   4  -3  12   22.00    6.10
  -5   3 -12   27.40    6.50
  -5   3 -12   32.80    7.40
   5  -3  12   24.70    7.30
  -6   3 -12   80.69    9.80
   6  -3  12  120.89   10.70
   6  -3  12  129.59   14.50
  -7   3 -12  -11.00    9.50
   7  -3  12    1.40    9.50
   7  -3  12    5.30    7.50
  -5  -2  12  -14.00   10.60
  -5  -2  12   12.70   10.00
  -4  -2  12    2.80    8.60
  -4  -2  12   -9.10   13.60
  -4  -2  12   12.00    8.20
   3   2 -12   -0.60   10.20
   3   2 -12  -11.10    9.40
   3   2 -12   19.70   10.70
  -3  -2  12   -2.60    7.30
  -3  -2  12   -2.40   10.40
  -3  -2  12   -6.60    7.00
   2   2 -12   -6.80    8.30
   2   2 -12   -1.80    7.70
   2   2 -12    6.80    8.50
   2   2 -12    4.10    8.10
   2   2 -12   -1.20    6.90
  -2  -2  12   -5.70    5.60
  -2  -2  12  -12.50    8.90
  -2  -2  12    7.00    6.30
  -2  -2  12  -13.00    9.30
   1   2 -12    1.10    7.00
   1   2 -12   -2.10    5.60
   1   2 -12   -8.30    7.70
   1   2 -12    7.70    5.70
   1   2 -12    1.80    6.40
   1   2 -12   -7.10    6.60
  -1  -2  12   -6.60    7.90
  -1  -2  12   -6.00    6.90
  -1  -2  12    2.80    5.30
  -1  -2  12    6.60    7.10
  -1  -2  12   -6.40    5.30
  -1  -2  12    0.00    7.50
   0   2 -12    5.80    5.90
   0   2 -12   -6.70    4.80
   0   2 -12    0.20    6.50
   0   2 -12   10.90    6.70
   0   2 -12    7.90    4.70
   0  -2  12   -7.40    6.90
   0  -2  12   -0.40    5.70
   0  -2  12    7.60    6.00
   0  -2  12   13.30    6.30
   0  -2  12    4.20    5.00
   0  -2  12    0.80    6.30
   0  -2  12    0.80    5.00
  -1   2 -12   10.60    5.60
  -1   2 -12   -3.30    5.10
  -1   2 -12    5.90    4.00
  -1   2 -12   -4.80    3.90
  -1   2 -12    2.20    6.70
   1  -2  12    5.60    4.80
   1  -2  12    2.70    5.10
  -2   2 -12   24.80    5.80
   2  -2  12   29.50    6.80
   2  -2  12   35.80    6.30
  -3   2 -12    4.80    5.00
   3  -2  12    1.00    5.00
   3  -2  12    1.10    5.20
  -4   2 -12   11.30    4.70
  -4   2 -12    0.10    6.10
   4  -2  12   11.40    5.40
  -5   2 -12   20.60    6.70
   5  -2  12   25.20    8.90
   5  -2  12   20.30    6.20
  -6   2 -12   99.79   12.30
   6  -2  12  122.19   12.90
   6  -2  12  114.09   10.10
  -7   2 -12   32.10    9.10
   7  -2  12   20.00    8.20
   7  -2  12   12.90    9.50
   8  -2  12  -16.10    9.60
   8  -2  12   -6.70    6.50
  -5  -1  12   17.30   10.70
  -4  -1  12  -12.20   13.00
  -4  -1  12   19.10    8.70
   3   1 -12  -15.30   10.00
   3   1 -12   10.80   10.70
   3   1 -12   -0.70    9.10
  -3  -1  12   14.70    7.50
  -3  -1  12    7.30   12.80
  -3  -1  12   -4.50    6.80
   2   1 -12   -6.10    7.90
   2   1 -12    4.30    7.70
   2   1 -12   16.70    7.50
   2   1 -12   15.90    9.40
  -2  -1  12   13.10    9.60
  -2  -1  12  -11.20    8.80
  -2  -1  12    8.00    6.40
  -2  -1  12   11.80   10.90
  -2  -1  12   10.90    6.20
   1   1 -12    5.50    5.70
   1   1 -12    7.50    6.30
   1   1 -12    5.50    7.90
   1   1 -12   -2.90    6.80
   1   1 -12    4.00    7.50
   1   1 -12   -6.90    7.10
  -1  -1  12   10.70    7.20
  -1  -1  12   11.40    6.10
  -1  -1  12    6.70    8.10
  -1  -1  12   -1.60    7.80
  -1  -1  12   12.40    5.70
  -1  -1  12    8.90    7.40
   0   1 -12    7.60    7.10
   0   1 -12    1.80    6.50
   0   1 -12    8.90    6.20
   0   1 -12    9.90    5.30
   0   1 -12   -1.70    5.20
   0  -1  12   14.10    6.90
   0  -1  12   10.50    6.70
   0  -1  12    1.90    5.60
   0  -1  12    3.50    7.60
   0  -1  12    8.70    5.30
   0  -1  12    6.50    6.00
   0  -1  12    8.90    6.60
  -1   1 -12    4.10    5.80
  -1   1 -12   -3.10    5.80
  -1   1 -12    7.30    4.50
  -1   1 -12    1.20    4.60
  -1   1 -12    4.00    5.30
   1  -1  12    1.70    5.20
   1  -1  12    6.10    5.20
   1  -1  12   -1.90    4.60
   1  -1  12    6.60    6.00
   1  -1  12   -4.30    6.10
   1  -1  12    7.40    5.40
   1  -1  12   10.10    6.00
  -2   1 -12   61.59    7.80
  -2   1 -12   56.29    5.90
  -2   1 -12   47.00    5.70
  -2   1 -12   64.99    7.20
   2  -1  12   48.50    7.70
   2  -1  12   64.19    7.20
  -3   1 -12   27.50    4.70
   3  -1  12    5.10    5.30
  -4   1 -12  197.88   12.10
   4  -1  12  187.48   16.50
  -5   1 -12   39.70    7.40
   5  -1  12   45.40    7.30
   5  -1  12   52.39    9.10
  -6   1 -12    6.90    6.70
   6  -1  12    2.30    5.50
   6  -1  12    6.20    8.70
  -7   1 -12  108.49   13.50
   7  -1  12  108.09   14.00
   7  -1  12   97.69    9.60
   8  -1  12   72.29   12.30
   8  -1  12   61.69    9.40
  -4   0  12   32.80   14.90
  -4   0  12   19.90    9.40
   3   0 -12   14.00   10.20
   3   0 -12    9.00   14.80
   3   0 -12   21.60   11.60
  -3   0  12    0.40    7.80
  -3   0  12    6.60   11.70
   2   0 -12    9.50    9.10
   2   0 -12  -12.70    8.50
   2   0 -12   -9.20    7.60
   2   0 -12   -2.00    9.40
  -2   0  12   -2.40    6.90
  -2   0  12   25.30   16.10
  -2   0  12   -9.40    9.60
  -2   0  12    9.30    9.40
   1   0 -12   14.90    7.60
   1   0 -12  -21.70   11.30
   1   0 -12   -4.60    7.80
   1   0 -12    3.90    5.90
  -1   0  12    6.90    6.00
  -1   0  12    8.60    5.40
  -1   0  12   -4.40    6.70
  -1   0  12   -5.50    8.20
  -1   0  12   -9.20    8.20
   0   0 -12   21.30    6.60
   0   0 -12    4.80    6.70
   0   0 -12   10.10    5.80
   0   0 -12    4.10    5.30
   0   0  12   11.80    5.00
   0   0  12    6.90    7.20
   0   0  12   13.10    6.90
   0   0  12    9.90    6.80
   0   0  12   10.80    5.80
  -1   0 -12   -3.40    4.60
  -1   0 -12   -6.20    5.90
  -1   0 -12    0.80    5.70
   1   0  12    3.70    5.90
   1   0  12    8.20    6.30
   1   0  12    6.20    6.30
   1   0  12   -1.40    4.80
   1   0  12    0.80    5.40
   1   0  12   -3.40    4.70
   1   0  12    6.90    5.90
  -2   0 -12    8.20    5.80
  -2   0 -12   -0.80    4.10
  -2   0 -12    3.60    5.20
  -2   0 -12    3.00    4.20
   2   0  12    7.20    4.60
   2   0  12    8.40    5.30
   2   0  12    1.40    5.60
   2   0  12    4.10    6.00
   2   0  12    1.50    4.90
  -3   0 -12    9.80    3.90
  -3   0 -12    6.40    4.60
   3   0  12    6.70    4.60
  -5   0 -12    1.90    6.90
   5   0  12    0.60    7.50
   5   0  12   -0.80    4.40
  -6   0 -12    2.20    6.60
   6   0  12    0.10    5.20
   6   0  12  -10.90    7.70
  -7   0 -12    1.30    8.00
   7   0  12    4.10   10.10
   7   0  12   -5.10    4.60
   8   0  12   93.99   10.00
   8   0  12   95.39   13.80
   9   0  12   71.89   13.40
   9   0  12   52.89    9.90
  -4   1  12  -11.00   15.10
   3  -1 -12    5.70   11.10
   3  -1 -12    8.90   13.00
  -3   1  12    6.60   12.40
   2  -1 -12   -4.10    8.80
   2  -1 -12   -3.60   10.50
   2  -1 -12   12.40    9.20
  -2   1  12   14.60   10.30
   1  -1 -12   10.30    7.70
   1  -1 -12   11.50    8.50
   1  -1 -12    4.20    6.60
   1  -1 -12    2.70    7.90
  -1   1  12   -5.30    7.60
  -1   1  12   15.60    8.50
  -1   1  12   24.20    8.60
   0  -1 -12   16.50    7.70
   0  -1 -12   34.70    7.40
   0  -1 -12   30.80    7.50
   0  -1 -12   23.10    6.30
   0   1  12   26.30    6.40
   0   1  12   42.40    8.30
   0   1  12   13.40    8.10
  -1  -1 -12   -4.10    6.30
  -1  -1 -12    8.00    5.40
  -1  -1 -12    5.50    6.20
  -1  -1 -12   -6.90    4.90
   1   1  12   -0.20    6.60
   1   1  12   -9.70    6.20
   1   1  12    3.90    6.50
   1   1  12    9.40    6.50
   1   1  12    3.30    4.50
   1   1  12    3.10    5.90
  -2  -1 -12    9.40    6.10
  -2  -1 -12    9.50    5.00
  -2  -1 -12   19.00    6.00
   2   1  12   10.60    4.90
   2   1  12    9.50    6.20
   2   1  12    3.00    6.20
   2   1  12   10.10    5.70
   2   1  12    9.30    6.00
   2   1  12   16.20    5.50
  -3  -1 -12    5.60    5.20
  -3  -1 -12    4.50    4.60
  -3  -1 -12   11.00    4.70
  -3  -1 -12   14.10    5.70
   3   1  12   17.50    6.00
   3   1  12   10.20    5.60
   3   1  12   10.00    5.50
   3   1  12   20.20    5.70
   3   1  12    8.40    5.40
  -4  -1 -12   21.60    4.50
  -4  -1 -12   18.50    5.40
  -4  -1 -12   27.20    5.40
  -5  -1 -12   40.00    7.70
   5   1  12   16.00    5.10
  -6  -1 -12    1.80    6.90
   6   1  12   -0.30    4.80
   6   1  12    4.00    8.40
  -7  -1 -12    5.90    7.90
   7   1  12   -4.80    5.30
   7   1  12    5.80    9.30
   8   1  12   19.70    7.60
   8   1  12   28.70   10.80
   9   1  12   47.40   11.90
   9   1  12   23.30    8.10
  -3   2  12   29.30   13.10
   2  -2 -12   -1.80    9.60
   2  -2 -12   -4.20   10.90
   2  -2 -12   -4.60   10.70
  -2   2  12    3.60   10.50
   1  -2 -12   -0.10    9.60
   1  -2 -12   12.70    8.00
   1  -2 -12   -3.30    8.80
   1  -2 -12  -10.90    8.00
  -1   2  12    5.90   18.30
  -1   2  12    5.80    7.70
  -1   2  12    1.30    9.80
   0  -2 -12   -0.30    6.90
   0  -2 -12   -1.90    6.30
   0  -2 -12   14.70    7.60
   0  -2 -12    0.60    8.10
   0   2  12    7.70    7.80
   0   2  12   11.20    7.80
   0   2  12    1.60    7.10
  -1  -2 -12   34.60    7.20
  -1  -2 -12   27.10    7.60
  -1  -2 -12   48.10    6.90
  -1  -2 -12   25.30    7.90
   1   2  12   29.80    8.00
   1   2  12   20.50    8.20
   1   2  12   48.60    7.20
   1   2  12   22.60   13.80
   1   2  12   26.80    8.20
  -2  -2 -12   -5.90    5.10
  -2  -2 -12    4.00    5.50
  -2  -2 -12    8.60    6.40
  -2  -2 -12    0.50    6.10
   2   2  12   15.40    6.70
   2   2  12   -2.70    6.60
   2   2  12    0.40    5.20
   2   2  12    6.50    6.60
   2   2  12    8.10    5.40
  -3  -2 -12    5.90    5.70
  -3  -2 -12    2.20    5.90
  -3  -2 -12   -5.00    5.80
  -3  -2 -12    6.30    5.10
   3   2  12   -4.50    6.10
   3   2  12   11.40    6.20
   3   2  12   -7.40    6.10
  -4  -2 -12    1.30    5.50
  -4  -2 -12    2.70    5.10
  -4  -2 -12    0.10    4.80
  -4  -2 -12    5.60    5.60
   4   2  12    5.30    5.60
   4   2  12    7.60    5.60
   4   2  12   -4.60    5.90
   4   2  12   -2.00    4.50
  -5  -2 -12   -0.20    6.70
  -5  -2 -12    7.40    5.40
  -5  -2 -12   12.70    5.10
  -5  -2 -12    4.20    5.30
  -5  -2 -12    8.60    5.20
   5   2  12   -1.10    4.90
  -6  -2 -12   12.70    5.30
  -6  -2 -12  -10.90    7.10
  -6  -2 -12   13.00    5.40
  -6  -2 -12   -0.50    5.40
   6   2  12   -4.20    5.40
   6   2  12   -5.60    8.10
  -7  -2 -12   17.70    8.50
   7   2  12   15.10    9.50
   7   2  12   15.50    5.90
   8   2  12   -0.10    6.30
   8   2  12    7.20   10.80
   9   2  12   11.70   12.20
   9   2  12   -4.10    6.20
  10   2  12    0.40    7.20
  -3   3  12   46.30   16.10
   2  -3 -12   31.00   13.60
  -2   3  12   40.70   13.30
   1  -3 -12  -12.40    9.20
   1  -3 -12    1.20   11.30
   1  -3 -12   18.90   10.30
  -1   3  12   -1.00    9.50
  -1   3  12   16.30    9.90
   0  -3 -12   -2.90    7.80
   0  -3 -12   22.50    9.50
   0  -3 -12   10.10    8.70
   0  -3 -12   12.00    7.90
   0   3  12    0.30    9.50
   0   3  12   14.00    7.60
  -1  -3 -12   20.60    7.30
  -1  -3 -12   11.10    8.00
  -1  -3 -12   16.40    6.90
  -1  -3 -12   21.20    7.70
   1   3  12   18.40    7.90
   1   3  12   16.20    8.20
   1   3  12    0.20    6.30
  -2  -3 -12   11.40    6.30
  -2  -3 -12   11.70    7.00
  -2  -3 -12   15.60    7.60
  -2  -3 -12   14.40    7.60
   2   3  12   11.10    5.80
   2   3  12   16.00    4.90
   2   3  12   17.60    8.20
   2   3  12   13.40    8.50
  -3  -3 -12   -5.20    6.30
  -3  -3 -12   -2.90    6.10
  -3  -3 -12    5.50    5.60
  -3  -3 -12  -11.50    6.30
   3   3  12   -3.90    6.60
   3   3  12   -4.20    4.30
   3   3  12    3.40    7.00
   3   3  12   -2.80    7.50
  -4  -3 -12   49.60    7.50
  -4  -3 -12   51.89    7.30
  -4  -3 -12   45.20    7.30
  -4  -3 -12   48.60    6.90
   4   3  12   45.20    7.50
   4   3  12   43.50    8.40
   4   3  12   45.70    6.90
   4   3  12   61.79    8.60
  -5  -3 -12    6.90    6.20
  -5  -3 -12    7.30    5.90
  -5  -3 -12    9.70    5.90
  -5  -3 -12   13.80    5.90
   5   3  12   15.80    6.60
   5   3  12   15.70    6.70
   5   3  12    6.20    5.00
   5   3  12   16.80    7.90
  -6  -3 -12    9.60    6.10
  -6  -3 -12    5.70    6.00
  -6  -3 -12    3.20    5.90
  -6  -3 -12   -5.20    6.10
  -6  -3 -12    1.40    7.30
   6   3  12    6.70    7.50
   6   3  12    2.50    6.40
   6   3  12    3.40    5.40
  -7  -3 -12   68.29    8.10
  -7  -3 -12   50.79    9.50
  -7  -3 -12   71.29    9.20
   7   3  12   68.79   11.40
   7   3  12   54.79    9.30
   8   3  12   96.89   13.50
   8   3  12   74.99    9.50
   9   3  12   22.30    7.00
   9   3  12   44.70   12.70
  10   3  12   20.80    7.10
  10   3  12   30.00   14.40
  -2   4  12   45.30   14.30
   1  -4 -12   23.30   12.30
  -1   4  12   15.60   12.30
   0  -4 -12   10.00   10.50
   0  -4 -12    6.10    9.30
   0  -4 -12  -11.10   10.00
   0   4  12   -3.30   11.60
   0   4  12   17.00   10.70
   0   4  12   -5.70    8.10
  -1  -4 -12    9.60    9.50
  -1  -4 -12   19.90    8.30
  -1  -4 -12   22.90    8.90
  -1  -4 -12   23.20    9.20
   1   4  12   20.10   10.10
  -2  -4 -12   -8.30    7.60
  -2  -4 -12   -5.10    7.50
  -2  -4 -12    0.50    8.50
  -2  -4 -12    5.80    7.00
   2   4  12   11.60    8.20
   2   4  12   -7.50    7.50
   2   4  12   -3.70    8.10
  -3  -4 -12  175.48   13.20
  -3  -4 -12  172.38   15.40
  -3  -4 -12  145.79   11.60
  -3  -4 -12  169.98   12.70
   3   4  12  174.28   14.00
   3   4  12  171.38   13.70
   3   4  12  168.28   10.20
  -4  -4 -12   34.20    7.60
  -4  -4 -12   37.80    8.10
  -4  -4 -12   41.00    8.00
  -4  -4 -12   37.90    7.50
   4   4  12   54.19    9.20
   4   4  12   31.00    6.20
   4   4  12   64.09   17.20
  -5  -4 -12    5.70    7.20
  -5  -4 -12   23.30    7.20
  -5  -4 -12   20.00    7.10
  -5  -4 -12    4.20    6.80
   5   4  12   18.70    7.40
   5   4  12    6.70   10.40
   5   4  12   11.20    5.60
   5   4  12   18.20    8.00
  -6  -4 -12    0.40    6.60
  -6  -4 -12  -13.20    7.00
  -6  -4 -12   -7.70    8.20
  -6  -4 -12    1.50    7.10
   6   4  12   -3.60    4.10
   6   4  12    2.10    8.00
  -7  -4 -12   14.20    7.70
  -7  -4 -12    3.30    6.70
  -7  -4 -12   13.40    9.20
   7   4  12   14.10    6.10
  -8  -4 -12   16.00    8.00
   8   4  12   16.10    6.10
   8   4  12   35.60   12.10
  -9  -4 -12   19.60    9.10
   9   4  12   38.50   15.20
   9   4  12   16.80    7.30
  10   4  12   -1.10    6.10
  10   4  12   15.70   15.00
  -1   5  12  110.79   16.70
   0  -5 -12   31.20   12.80
   0   5  12   35.80   11.20
   0   5  12   26.90   12.50
  -1  -5 -12   20.80   11.40
  -1  -5 -12   21.20   10.80
  -1  -5 -12    6.90   10.50
   1   5  12   19.90    8.90
   1   5  12   23.70   10.80
  -2  -5 -12   20.40   10.60
  -2  -5 -12   31.00    9.60
  -2  -5 -12   13.90   10.30
  -2  -5 -12   21.30    9.30
   2   5  12   31.80   11.90
   2   5  12   13.10    6.90
   2   5  12   19.10   10.30
  -3  -5 -12  100.19   12.20
  -3  -5 -12  108.39   13.10
  -3  -5 -12  102.99   13.30
  -3  -5 -12  110.79   13.10
   3   5  12  104.99   12.60
   3   5  12  129.89   14.80
   3   5  12  100.19    8.90
  -4  -5 -12    8.20    8.10
  -4  -5 -12    0.30    8.50
  -4  -5 -12    5.00    8.00
  -4  -5 -12    7.20    8.30
   4   5  12    2.60    4.60
   4   5  12    8.70   10.70
   4   5  12   22.40    9.00
  -5  -5 -12    4.50    8.10
  -5  -5 -12    6.70   10.10
  -5  -5 -12   -3.10    7.90
   5   5  12   -0.40    8.60
   5   5  12    1.00    5.40
  -6  -5 -12   78.49   10.00
  -6  -5 -12   54.89    9.70
  -6  -5 -12   80.19   11.80
   6   5  12  121.79   14.20
   6   5  12   72.89    8.50
  -7  -5 -12   53.59    9.20
  -7  -5 -12   31.20   12.70
  -7  -5 -12   58.09   12.00
  -8  -5 -12   12.50    8.80
   8   5  12   29.20   24.70
   8   5  12   31.80    7.60
   9   5  12   10.00    6.60
   9   5  12    9.80   14.60
  10   5  12   62.79    9.90
  10   5  12   91.19   17.40
   0   6  12  -17.30   14.10
  -1  -6 -12   61.19   14.20
   1   6  12   76.39   14.70
  -2  -6 -12   13.40   11.00
  -2  -6 -12   10.30   11.20
   2   6  12    0.30   11.00
  -3  -6 -12  -10.40    9.60
  -3  -6 -12   -2.70   10.50
  -3  -6 -12   -1.00   10.10
   3   6  12    1.40   10.90
  -4  -6 -12   -7.50    9.80
  -4  -6 -12   -0.60    9.50
  -4  -6 -12   10.40    9.90
   4   6  12    3.40    6.10
   4   6  12   23.00   11.70
  -5  -6 -12   63.69   11.20
  -5  -6 -12   59.59   11.20
  -5  -6 -12   66.09   11.10
   5   6  12   61.69    9.40
   5   6  12   68.49   12.10
  -6  -6 -12   23.90    9.80
  -6  -6 -12   25.10   11.20
  -6  -6 -12   22.90   10.40
   6   6  12   44.50   12.70
   6   6  12   21.80    6.60
   7   6  12   34.50    7.90
   8   6  12    1.10    5.80
   9   6  12    7.10    7.10
   1   7  12  202.98   26.30
   2   7  12   31.70   13.90
  -3  -7 -12   30.20   19.10
   3   7  12   17.40   12.40
  -4  -7 -12   31.20   18.30
  -4  -7 -12   35.90   13.00
   4   7  12    2.20   11.20
   5   7  12   -2.60   11.50
   5   7  12    4.80    5.40
   6   7  12    0.50    5.80
   7   7  12   -0.50    5.80
   8   7  12   10.20    6.60
   9   7  12   30.20    8.40
   3   8  12   60.79   16.20
   4   8  12   -7.70   14.00
   5   8  12    8.10    6.10
   5   8  12   19.10   22.10
   6   8  12    2.90    5.60
   7   8  12  -11.30    6.00
   8   8  12    6.90    6.50
   5   9  12   -6.50    7.10
   6   9  12   -3.00    5.90
   7   9  12   -3.70    7.30
  -2  -7  13    4.40    8.60
  -1  -7  13    2.70    8.30
   0  -7  13   19.00    9.60
   1  -7  13    8.50    9.30
  -3  -6  13  -11.90    7.40
  -2  -6  13    6.00    8.00
  -1  -6  13   14.20    7.70
   0   6 -13    5.70   12.70
   0  -6  13    4.90   10.10
   0  -6  13   12.40    8.60
  -1   6 -13   27.80   11.20
   1  -6  13   12.60    8.70
  -2   6 -13   51.49   11.80
   2  -6  13   33.80    9.50
   3  -6  13   14.80    9.70
  -4  -5  13   13.10    9.50
  -3  -5  13    8.20    8.00
   2   5 -13   12.60   18.60
  -2  -5  13    8.90    8.10
   1   5 -13  -14.90   11.00
  -1  -5  13    1.50    6.20
  -1  -5  13    6.70    8.60
   0   5 -13   16.50   10.80
   0  -5  13    4.30    6.90
   0  -5  13   10.20    8.50
  -1   5 -13  -18.50    9.20
   1  -5  13    0.30    6.60
  -2   5 -13   27.60    9.10
  -2   5 -13   30.20    9.70
   2  -5  13   33.70    9.70
   2  -5  13   57.39    9.90
  -3   5 -13   19.50    9.70
   3  -5  13   18.10    8.50
   3  -5  13    4.60    7.90
   4  -5  13   20.90    8.90
  -4  -4  13    1.40    9.80
  -3  -4  13  -15.30    7.30
  -3  -4  13  -17.70   17.20
   2   4 -13   -5.30   11.40
   2   4 -13  -11.60   10.30
  -2  -4  13   16.50    8.90
  -2  -4  13   15.10    8.80
   1   4 -13    1.30    9.30
   1   4 -13    1.00    9.70
  -1  -4  13    3.80    6.80
  -1  -4  13    0.70    7.90
   0   4 -13   59.79    9.20
   0  -4  13   37.50    8.50
   0  -4  13   52.69    8.40
  -1   4 -13    0.90    8.30
   1  -4  13   22.70    8.70
   1  -4  13   20.30    8.10
  -2   4 -13    5.40    8.10
   2  -4  13    9.50    6.90
   2  -4  13   -0.30    6.20
  -3   4 -13   50.29    9.10
  -3   4 -13   42.20    9.00
   3  -4  13   58.19    9.80
   3  -4  13   47.90    9.90
  -4   4 -13  108.19   13.50
   4  -4  13  134.39   12.50
   5  -4  13    8.80    7.70
   6  -4  13   14.70    8.80
  -4  -3  13    1.60   12.60
  -4  -3  13   -0.10    9.80
  -3  -3  13   -9.00    8.20
  -3  -3  13    7.30    9.30
   2   3 -13    8.90   10.70
   2   3 -13   14.90   12.00
  -2  -3  13   -3.10    7.20
  -2  -3  13   -2.20    8.40
   1   3 -13    8.10    8.90
   1   3 -13    7.30    8.90
   1   3 -13   -7.00    9.40
  -1  -3  13    2.70    6.70
  -1  -3  13   15.70    7.30
   0   3 -13   27.90    8.10
   0   3 -13   17.80    7.70
   0   3 -13   18.80    8.60
   0  -3  13   24.70    7.90
   0  -3  13   23.70    6.80
  -1   3 -13    2.70    7.80
   1  -3  13   -6.10    6.00
   1  -3  13   -6.20    6.80
  -2   3 -13    4.20    7.30
   2  -3  13    4.20    6.90
   2  -3  13   15.60    7.20
  -3   3 -13   10.50    9.00
  -3   3 -13    3.20    7.30
   3  -3  13    5.30    5.80
   3  -3  13   -1.00    6.20
  -4   3 -13  151.68   13.40
  -4   3 -13  136.09   14.00
   4  -3  13  131.59   10.70
  -5   3 -13   87.39   10.30
   5  -3  13  107.39   10.60
  -6   3 -13   -4.10    9.80
   6  -3  13   -4.60    7.80
   7  -3  13    0.00   10.60
   7  -3  13  -11.30    7.10
  -4  -2  13    4.30    9.30
  -3  -2  13   21.30    9.30
  -3  -2  13   24.30    8.70
   2   2 -13    8.10   11.00
   2   2 -13   -4.20   11.20
  -2  -2  13    4.70    7.70
  -2  -2  13    5.40    7.60
   1   2 -13   -9.20    8.80
   1   2 -13   -1.20    9.20
   1   2 -13    2.90    8.90
  -1  -2  13   -4.40    7.00
  -1  -2  13   -6.20    6.00
  -1  -2  13   -0.90   12.30
   0   2 -13   12.60    7.80
   0   2 -13   19.50    8.40
   0   2 -13    6.00    7.90
   0  -2  13   14.80    6.70
   0  -2  13   13.00    6.80
   0  -2  13   36.40    9.80
   0  -2  13   20.90    7.80
  -1   2 -13   -8.70    6.60
  -1   2 -13    0.00    5.20
  -1   2 -13   -1.70    7.50
   1  -2  13    1.00    5.80
   1  -2  13    3.00    5.90
   1  -2  13   -3.90    8.30
  -2   2 -13   50.19    9.90
   2  -2  13   55.59    9.70
   2  -2  13   38.30   12.30
  -3   2 -13   24.50    7.10
   3  -2  13   23.40    6.00
  -4   2 -13   -4.00    7.60
  -4   2 -13    8.60    6.30
   4  -2  13    8.90    6.30
  -5   2 -13   56.19    9.10
   5  -2  13   76.19    9.00
  -6   2 -13   37.10    9.70
   6  -2  13   43.60    7.90
   6  -2  13   32.30   11.50
   7  -2  13   11.70    7.80
   7  -2  13   26.00   11.80
  -4  -1  13   21.30   10.40
  -4  -1  13   -6.90   10.00
  -3  -1  13    7.80    8.70
  -3  -1  13    5.90    8.10
   2   1 -13   -7.60   13.00
  -2  -1  13    9.60    7.20
   1   1 -13   -4.90    9.50
   1   1 -13   21.10    9.40
  -1  -1  13    2.10    6.80
  -1  -1  13    4.70    8.10
  -1  -1  13   15.20   10.10
   0   1 -13   -3.30    7.60
   0   1 -13   -7.20    8.30
   0   1 -13  -10.60   12.20
   0  -1  13    7.10    6.20
   0  -1  13   -4.30    9.70
   0  -1  13  -15.20    7.80
   0  -1  13   -7.30    6.10
  -1   1 -13   -5.30    5.70
  -1   1 -13   -0.40    7.00
  -1   1 -13   -0.20    7.80
  -1   1 -13   -9.50    6.50
  -1   1 -13  -10.90    5.10
   1  -1  13   -8.00    5.00
   1  -1  13    9.20    7.20
   1  -1  13   16.20    6.80
   1  -1  13    5.30    7.90
  -2   1 -13    4.80    4.90
  -2   1 -13    5.50    6.70
  -2   1 -13   -3.60    6.20
   2  -1  13    3.10    5.70
  -3   1 -13   14.20    6.00
   3  -1  13    5.90    5.30
  -4   1 -13   34.50    7.90
   4  -1  13    7.10    6.00
  -5   1 -13   -5.80    7.90
   5  -1  13    6.30    5.80
  -6   1 -13   28.30    9.10
   6  -1  13   39.20    8.10
   6  -1  13   72.69   13.70
   7  -1  13   72.79   10.60
   7  -1  13   90.69   14.10
   8  -1  13   51.59   13.00
   8  -1  13   24.10    9.20
  -4   0  13    1.00   12.60
  -3   0  13  -10.10    9.00
  -2   0  13    7.70    7.70
  -2   0  13   16.00    7.40
   1   0 -13   -1.80    9.50
   1   0 -13    8.00   10.00
  -1   0  13   -3.30   10.00
  -1   0  13    8.20    5.70
  -1   0  13   15.90   10.40
  -1   0  13   -9.50    6.90
   0   0 -13    9.10    8.20
   0   0 -13    0.50    8.40
   0   0 -13    8.00    7.50
   0   0  13   12.10    8.50
   0   0  13    5.30    7.10
   0   0  13   18.20    6.80
   0   0  13    6.50    9.50
  -1   0 -13  -11.90    5.60
  -1   0 -13    2.40    7.30
  -1   0 -13    8.70    7.30
  -1   0 -13    4.10    6.00
   1   0  13    4.10    9.30
   1   0  13    5.30    8.10
   1   0  13   -4.80    7.50
   1   0  13    1.30    5.70
  -2   0 -13    4.40    5.20
  -2   0 -13    5.40    6.60
  -2   0 -13    3.60    5.40
  -2   0 -13   -3.70    6.40
   2   0  13    8.00    5.50
   2   0  13    4.80    6.30
   2   0  13   13.30    7.30
   2   0  13   26.10    7.70
  -3   0 -13   70.69    7.30
  -3   0 -13   55.09    6.90
   3   0  13   56.39    8.20
   4   0  13    6.90    5.20
  -5   0 -13   -4.10    8.20
   5   0  13   -3.70    5.40
  -6   0 -13   20.60    9.10
   6   0  13   33.80   11.10
   6   0  13   23.40    6.60
   7   0  13    4.80    6.50
   8   0  13   25.90    7.50
   8   0  13   36.40   12.70
  -2   1  13    9.80   12.90
   1  -1 -13   26.80   11.30
   1  -1 -13   19.00   14.70
   1  -1 -13   21.80   10.80
  -1   1  13   33.60   11.70
  -1   1  13   18.20   10.90
  -1   1  13   36.90    7.20
   0  -1 -13  -10.00    8.30
   0  -1 -13   -8.90    9.10
   0   1  13    8.80    6.00
   0   1  13   -2.10   10.00
   0   1  13   10.10    8.40
  -1  -1 -13   -2.60    7.80
  -1  -1 -13    7.00    6.60
  -1  -1 -13    6.10    8.00
  -1  -1 -13   -7.80    6.60
   1   1  13   -3.30    5.20
   1   1  13   11.30    9.00
  -2  -1 -13    0.60    5.90
  -2  -1 -13   17.20    7.30
  -2  -1 -13   -2.60    6.00
  -2  -1 -13   -9.80    6.60
   2   1  13   -5.70    8.00
   2   1  13    5.10    7.60
   2   1  13    4.90    8.10
   2   1  13   17.70    7.90
   2   1  13    0.70    4.70
  -3  -1 -13    7.20    5.50
  -3  -1 -13    0.70    6.50
  -3  -1 -13    3.60    5.50
  -3  -1 -13   -1.60    6.50
   3   1  13    2.50    5.10
   3   1  13    8.30    6.50
   3   1  13    6.90    7.00
  -4  -1 -13    0.50    6.00
  -4  -1 -13   12.90    5.30
   4   1  13    1.20    4.80
  -5  -1 -13   27.00    8.00
   5   1  13   30.00    6.70
  -6  -1 -13   35.70    9.60
   6   1  13   26.50    7.00
   6   1  13   51.39   10.90
   7   1  13   -1.80    5.30
   7   1  13   -2.90   11.40
   8   1  13   19.70   12.60
   8   1  13   16.20    7.70
   9   1  13   42.00   14.00
   9   1  13   13.50    8.00
  -2   2  13  -28.80   13.30
  -1   2  13   45.20   12.40
   0  -2 -13  -14.30    9.60
   0  -2 -13   -3.20   10.10
   0  -2 -13    6.60    8.90
   0   2  13    0.10   10.40
   0   2  13   -5.30    8.70
  -1  -2 -13    1.00    8.50
  -1  -2 -13    8.70    8.20
  -1  -2 -13   18.80    8.80
   1   2  13  -11.40    9.50
   1   2  13    5.00    5.50
  -2  -2 -13   59.39    8.40
  -2  -2 -13   68.39    9.70
  -2  -2 -13   52.19    8.20
  -2  -2 -13   65.79    9.40
   2   2  13   66.39   10.40
   2   2  13   72.89   10.50
   2   2  13   62.99    7.90
  -3  -2 -13   28.10    7.50
  -3  -2 -13   19.70    6.60
  -3  -2 -13   39.60    8.20
  -3  -2 -13   25.00    7.60
   3   2  13   21.60    8.40
   3   2  13   46.60   11.30
   3   2  13   36.70    7.10
  -4  -2 -13   28.50    7.30
  -4  -2 -13   21.70    7.00
  -4  -2 -13   29.00    6.80
  -4  -2 -13   12.40    7.00
   4   2  13   20.60    6.10
   4   2  13   13.20    9.30
   4   2  13    7.90    9.20
  -5  -2 -13   49.40    9.90
  -5  -2 -13   69.39    7.70
  -5  -2 -13   81.09   10.00
  -5  -2 -13   61.39    7.40
   5   2  13   45.10    7.00
  -6  -2 -13  176.68   16.00
  -6  -2 -13  148.19   11.10
   6   2  13  130.79   10.20
   7   2  13   61.89   12.10
   7   2  13   38.90    7.50
   8   2  13   78.79    9.90
   8   2  13  124.69   15.90
   9   2  13   -1.30   14.20
   9   2  13   -5.20    6.20
  -2   3  13    6.90   16.80
  -1   3  13    8.80   13.60
   0  -3 -13    3.20   11.00
   0  -3 -13   -5.40   10.90
   0   3  13    1.50    9.40
   0   3  13   -7.90   11.70
  -1  -3 -13   99.89   10.80
  -1  -3 -13  132.69   14.90
  -1  -3 -13   96.49   12.70
   1   3  13   87.59    9.00
   1   3  13  121.69   16.20
   1   3  13   61.09   11.00
  -2  -3 -13   18.30    9.30
  -2  -3 -13   17.60    8.20
  -2  -3 -13   18.50    8.80
   2   3  13   22.70   10.20
   2   3  13   17.60    7.90
   2   3  13   14.10    5.40
  -3  -3 -13   20.00    8.30
  -3  -3 -13   11.10    8.40
  -3  -3 -13   10.00    8.10
   3   3  13   -4.80    9.00
   3   3  13   16.80    6.10
  -4  -3 -13    0.10   10.10
  -4  -3 -13   -7.30    7.40
  -4  -3 -13    8.40    7.80
   4   3  13  -13.60    9.70
   4   3  13    1.00    5.30
  -5  -3 -13   19.00    7.50
  -5  -3 -13    4.80    7.20
   5   3  13    3.00    5.50
  -6  -3 -13   21.70    8.00
  -6  -3 -13   28.00    7.40
  -6  -3 -13   33.30   10.30
   6   3  13   32.80    7.80
   7   3  13    4.80    5.40
   8   3  13  -10.60   12.90
   8   3  13    2.50    6.30
   9   3  13   -8.90   14.00
   9   3  13   12.80    6.70
  -1   4  13   16.10   15.40
   0   4  13   10.40   13.80
  -1  -4 -13    8.10   12.90
  -1  -4 -13    9.60   11.30
   1   4  13   47.20   12.30
  -2  -4 -13    6.10   10.10
  -2  -4 -13   -5.90   10.20
  -2  -4 -13    1.70   10.30
   2   4  13   -5.90   10.80
   2   4  13    6.40    5.00
  -3  -4 -13   -0.10   10.40
  -3  -4 -13  -16.40    8.80
  -3  -4 -13    3.60    9.60
   3   4  13  -15.40   10.10
   3   4  13   -1.70    4.60
  -4  -4 -13   51.29    9.90
  -4  -4 -13   52.99   10.20
   4   4  13   56.99    8.80
   4   4  13   74.09   12.80
  -5  -4 -13  117.99   13.20
  -5  -4 -13  106.89   12.90
   5   4  13   73.09    8.60
  -6  -4 -13   51.89    9.20
   6   4  13   45.80    8.20
  -7  -4 -13   12.70    8.50
   7   4  13   10.20    5.60
  -8  -4 -13  116.89   14.00
   8   4  13  110.19   10.60
   9   4  13   61.29   23.10
   9   4  13   39.40    8.40
   0   5  13    4.90   14.30
   1   5  13    8.70   13.30
   2   5  13    8.00   12.10
   3   5  13    8.40    5.90
  -4  -5 -13   14.70   10.50
  -5  -5 -13   14.90   10.00
   5   5  13   15.10    6.20
  -6  -5 -13    1.60   10.50
   6   5  13   12.10    6.00
   7   5  13   -2.00    5.20
   8   5  13   29.10    7.20
   9   5  13    0.00    6.90
   1   6  13   23.80   17.30
   2   6  13    2.00   15.30
   3   6  13    5.90    5.90
   3   6  13   -5.60   16.60
   4   6  13    5.70    5.60
   5   6  13    7.60    6.00
   6   6  13   -6.00    5.10
   7   6  13   23.60    6.20
   8   6  13   11.90    6.30
   4   7  13    8.00    7.50
   5   7  13    4.70    6.10
   6   7  13   -9.00    5.80
   7   7  13   -2.20    6.30
   8   7  13    0.80    6.50
   4   8  13   -8.70    6.80
   5   8  13   -5.40    5.80
   6   8  13   -0.20    6.20
   0  -6  14   50.89   12.30
   0  -6  14   31.50    9.90
   1  -6  14   23.90    9.80
  -2  -5  14    2.90    9.20
  -1  -5  14    8.70   11.90
  -1  -5  14    1.40    8.10
   0  -5  14  -19.80    9.80
   0  -5  14   10.70    7.40
  -1   5 -14   40.20   13.40
   1  -5  14   59.59   11.00
   1  -5  14   35.40    9.40
   2  -5  14   68.39   10.80
   2  -5  14   65.29   12.10
   3  -5  14   16.10    8.90
   3  -5  14   30.60   10.10
  -3  -4  14    4.80    8.80
  -2  -4  14   -3.50   11.60
  -2  -4  14   14.70    8.70
   1   4 -14   22.70   22.00
  -1  -4  14   -0.80    8.20
  -1  -4  14    0.60   11.50
   0   4 -14   -8.90   12.30
   0  -4  14   11.40    8.40
   0  -4  14   -0.50    7.00
  -1   4 -14    3.60   11.20
   1  -4  14   -5.00    8.50
   1  -4  14    2.90    7.50
  -2   4 -14   50.09   18.20
   2  -4  14   58.49   10.30
   2  -4  14   61.99    9.80
  -3   4 -14   60.19   12.20
   3  -4  14  109.69   11.40
   4  -4  14   12.60    8.40
  -3  -3  14    9.40    9.90
  -3  -3  14   25.30   24.50
  -2  -3  14   22.00   21.10
  -2  -3  14    1.20    8.60
   1   3 -14    0.50   13.10
  -1  -3  14   -1.80    7.50
  -1  -3  14    4.20   10.00
   0   3 -14  -17.40   11.30
   0  -3  14    4.90    7.80
   0  -3  14    6.00    7.90
  -1   3 -14    1.10   10.20
   1  -3  14    7.10    7.10
   1  -3  14   -7.90    7.50
  -2   3 -14   -5.50   10.00
   2  -3  14   22.90    7.80
   2  -3  14    0.90    6.70
  -3   3 -14   18.50    9.70
   3  -3  14   14.70    6.90
  -4   3 -14    7.00   10.20
   4  -3  14   -5.80    6.80
  -5   3 -14    0.00   10.90
   5  -3  14    5.50    7.80
  -3  -2  14  -19.20   11.00
  -3  -2  14   12.20   10.10
  -2  -2  14   14.70    9.50
  -2  -2  14   17.50    9.70
  -1  -2  14   -8.20    7.40
  -1  -2  14    2.20    7.90
   0   2 -14  -18.50    9.60
   0   2 -14   17.00   11.70
   0  -2  14    3.40    7.30
   0  -2  14   -5.30    7.30
  -1   2 -14   -3.50    9.80
   1  -2  14   18.40    7.00
   1  -2  14   14.80    7.50
  -2   2 -14   32.80    9.90
   2  -2  14   40.60    8.40
   2  -2  14   31.40    8.10
   3  -2  14   -0.30    7.00
  -4   2 -14    4.20    9.60
   4  -2  14   13.60    6.70
  -5   2 -14   47.50   11.00
   5  -2  14   38.90    8.00
   6  -2  14   42.70    8.60
  -3  -1  14    4.60   10.30
  -3  -1  14   -0.60   10.60
  -2  -1  14   25.30    9.50
  -2  -1  14   16.40    9.30
  -1  -1  14    5.40    7.80
  -1  -1  14    4.80    7.90
   0   1 -14    8.20   10.60
   0  -1  14   -6.70   13.50
   0  -1  14   -4.70    6.80
   0  -1  14    5.70    6.80
  -1   1 -14   35.80    9.20
   1  -1  14   39.40    8.00
   1  -1  14   37.30    7.90
  -2   1 -14   44.30    8.20
   2  -1  14   42.80    7.70
   3  -1  14    9.70    6.40
  -4   1 -14   42.60   10.00
   4  -1  14   35.60    7.70
  -5   1 -14    4.60   10.00
   5  -1  14   -1.80    6.70
   6  -1  14   76.49   10.10
   7  -1  14    5.80    7.80
  -3   0  14   18.90   10.10
  -2   0  14   10.80    9.10
  -2   0  14    9.10    7.50
  -1   0  14   -1.30    7.30
   0   0 -14   24.20   11.60
   0   0  14    8.00    7.00
  -1   0 -14   -6.40    9.60
   1   0  14    5.60    6.50
  -2   0 -14   -5.30    8.30
  -2   0 -14   17.60    8.40
   2   0  14   16.40    6.20
  -3   0 -14   -8.30    7.80
   3   0  14    0.90    5.90
   4   0  14   31.30    7.10
  -5   0 -14   -6.10   11.70
   5   0  14    6.70    5.90
   6   0  14   23.80    7.80
   7   0  14   -3.70   12.60
   7   0  14   13.80    8.30
  -2   1  14    4.10    7.40
  -1   1  14   12.00    7.40
   0   1  14   39.70    8.00
  -1  -1 -14   36.70   11.30
   1   1  14   36.90    7.80
  -2  -1 -14   14.60    9.40
   2   1  14   25.70    7.20
  -3  -1 -14   36.50    8.70
  -3  -1 -14   19.80    8.70
   3   1  14   27.30    7.50
  -4  -1 -14  114.19   11.70
   4   1  14  135.69   10.10
   5   1  14   58.49    9.60
   6   1  14  159.48   11.60
   7   1  14   20.40    7.30
   8   1  14   80.49   17.00
   8   1  14   62.89   10.40
   0   2  14   10.30    7.00
   1   2  14   25.80    7.10
  -2  -2 -14   -7.60   10.20
   2   2  14   -1.00    5.30
  -3  -2 -14   -9.00    9.20
   3   2  14    0.90    4.90
  -4  -2 -14   23.00    8.70
   4   2  14   13.00    6.10
  -5  -2 -14   -6.30    7.90
   5   2  14    8.90    5.60
   6   2  14    5.70    6.30
   7   2  14   12.10    7.00
   8   2  14    9.50    6.60
   1   3  14    1.80    5.90
   2   3  14   15.10    5.80
  -3  -3 -14   73.69   11.90
   3   3  14   78.19    9.00
  -4  -3 -14   34.30   10.30
   4   3  14   29.10    7.30
  -5  -3 -14   -8.80    9.00
   5   3  14   12.60    5.60
  -6  -3 -14   41.20    9.20
   6   3  14   42.90    7.40
   7   3  14   78.29    9.80
   8   3  14   81.19   11.00
   1   4  14    1.50    5.80
   2   4  14    6.40    6.50
   3   4  14    9.60    5.60
   4   4  14    2.20    5.70
   5   4  14    3.90    5.90
   6   4  14   12.90    5.80
   7   4  14   11.40    7.40
   8   4  14   15.80    7.80
   2   5  14    3.70    5.90
   3   5  14    3.10    5.60
   4   5  14    1.70    5.50
   5   5  14   -3.70    5.60
   6   5  14   12.10    6.60
   7   5  14   -3.00    6.00
   8   5  14   10.60    6.70
   3   6  14   20.20    8.70
   4   6  14   -4.50    5.50
   5   6  14   -3.30    6.70
   6   6  14   -3.80    7.10
   7   6  14   10.70    6.40
   5   7  14    7.50    6.90
   0  -4  15   -6.90   10.60
   0  -4  15   10.90    9.00
   1  -4  15   -1.90    8.30
   1  -4  15   22.50    9.60
   2  -4  15    9.30    9.40
   2  -4  15    5.90    8.30
  -1  -3  15  -11.40    8.50
  -1  -3  15  -20.80   10.40
   0  -3  15   32.80    9.60
   0  -3  15   11.20   10.10
   1  -3  15   11.30    8.40
   1  -3  15   -5.00    8.20
   2  -3  15   19.50    9.00
   3  -3  15   13.00    8.20
   4  -3  15   44.60    9.20
  -1  -2  15   -7.00    9.50
  -1  -2  15    1.80    8.90
   0  -2  15   43.20    9.90
   0  -2  15   30.60    9.40
   1  -2  15   20.10    8.40
   1  -2  15   23.10    8.10
   2  -2  15   36.10    8.60
   3  -2  15    8.30    7.40
   4  -2  15   81.79   11.30
   5  -2  15   -1.90    7.40
  -1  -1  15   19.90    9.80
  -1  -1  15    8.90    9.30
   0  -1  15    6.30    7.90
   1  -1  15    6.10    7.40
   2  -1  15   17.30    8.30
   3  -1  15   22.50    8.40
   4  -1  15   -1.10    7.30
   5  -1  15   -9.00    7.00
  -1   0  15   20.50    9.00
   0   0  15    5.20    7.50
   1   0  15   -5.20    7.00
  -2   0 -15   57.09   11.40
   2   0  15   37.50    7.90
   3   0  15   49.00    8.60
   4   0  15  158.88   12.10
   5   0  15   25.50    8.30
   6   0  15   37.10    9.50
  -1   1  15   10.20    8.70
   0   1  15  -11.60    7.10
   1   1  15   -1.50    7.10
   2   1  15   13.70    6.70
  -3  -1 -15   -6.70   10.50
   3   1  15    5.80    6.60
   4   1  15    3.60    6.30
   5   1  15   12.80    7.50
   6   1  15    6.70    7.50
   0   2  15   -7.90    7.10
   1   2  15   21.60    8.60
   2   2  15    5.60    6.40
   3   2  15    1.60    6.70
   4   2  15    4.70    6.70
   5   2  15   70.79    9.60
   6   2  15   52.39   10.30
   1   3  15   -6.70    6.00
   2   3  15    7.40    8.00
   3   3  15    1.70    6.70
   4   3  15    2.20    6.60
   5   3  15    5.00    6.20
   6   3  15   15.20    8.00
   2   4  15   18.00    7.30
   3   4  15    2.30    6.40
   4   4  15    6.60    7.60
   5   4  15   11.00    7.70
   6   4  15    7.70    7.10
   3   5  15   18.30    7.90
   4   5  15    4.50    7.10
   5   5  15   19.30    8.50
   3   0  16   13.60    8.30
   3   1  16   44.20   10.00

_computing_structure_solution     'SHELXT 2014/4 (Sheldrick, 2014)'
;
_shelx_hkl_checksum              99303
_shelx_shelxl_version_number     2014/7
_olex2_submission_special_instructions 'No special instructions were received'
loop_
_space_group_symop_operation_xyz
'x, y, z'
'-x, -y, -z'
loop_
_atom_site_label
_atom_site_type_symbol
_atom_site_fract_x
_atom_site_fract_y
_atom_site_fract_z
_atom_site_U_iso_or_equiv
_atom_site_adp_type
_atom_site_occupancy
_atom_site_site_symmetry_order
_atom_site_calc_flag
_atom_site_refinement_flags_posn
O001 O 0.39620(13) 0.28629(11) 0.49468(9) 0.0399(2) Uani 1 1 d .
F002 F -0.02344(17) 0.68787(15) 0.06546(11) 0.0740(3) Uani 1 1 d .
O003 O 0.60204(17) 0.23206(15) 0.97236(11) 0.0572(3) Uani 1 1 d .
C004 C 0.39298(16) 0.39472(15) 0.69440(12) 0.0325(2) Uani 1 1 d .
C005 C 0.18345(19) 0.69623(16) 0.66924(14) 0.0425(3) Uani 1 1 d .
C006 C 0.27917(16) 0.52532(14) 0.62277(12) 0.0329(2) Uani 1 1 d .
C007 C 0.46209(17) 0.25093(15) 0.61053(13) 0.0366(3) Uani 1 1 d .
C008 C 0.20077(16) 0.51651(15) 0.39093(12) 0.0336(2) Uani 1 1 d .
C009 C 0.44185(17) 0.38739(16) 0.81708(12) 0.0369(3) Uani 1 1 d .
H009 H 0.3976 0.4825 0.8743 0.044 Uiso 1 1 calc R
N00A N 0.1092(2) 0.83211(18) 0.71013(17) 0.0716(5) Uani 1 1 d .
C00B C 0.55890(18) 0.23298(17) 0.85072(13) 0.0399(3) Uani 1 1 d .
C00C C 0.28462(16) 0.45396(14) 0.50401(12) 0.0333(2) Uani 1 1 d .
C00D C 0.2438(2) 0.40875(17) 0.27908(14) 0.0423(3) Uani 1 1 d .
H00D H 0.3252 0.2974 0.2783 0.051 Uiso 1 1 calc R
C00E C 0.07859(19) 0.68316(17) 0.39006(14) 0.0422(3) Uani 1 1 d .
H00E H 0.0482 0.7563 0.4637 0.051 Uiso 1 1 calc R
C00F C 0.6280(2) 0.08974(17) 0.76378(16) 0.0470(3) Uani 1 1 d .
H00F H 0.7072 -0.0119 0.7887 0.056 Uiso 1 1 calc R
C00G C 0.5801(2) 0.09722(17) 0.64160(16) 0.0473(3) Uani 1 1 d .
H00G H 0.6255 0.0030 0.5833 0.057 Uiso 1 1 calc R
C00H C 0.0489(2) 0.6306(2) 0.17348(15) 0.0474(3) Uani 1 1 d .
C00I C 0.1673(2) 0.4653(2) 0.17015(15) 0.0488(3) Uani 1 1 d .
H00I H 0.1951 0.3934 0.0963 0.059 Uiso 1 1 calc R
C00J C 0.0024(2) 0.74037(18) 0.28074(16) 0.0488(3) Uani 1 1 d .
H00J H -0.0789 0.8514 0.2800 0.059 Uiso 1 1 calc R
C00K C 0.7258(3) 0.0787(2) 1.01162(19) 0.0628(4) Uani 1 1 d .
H00A H 0.8428 0.0413 0.9467 0.094 Uiso 1 1 calc GR
H00B H 0.6725 -0.0050 1.0169 0.094 Uiso 1 1 calc GR
H00C H 0.7455 0.0965 1.0977 0.094 Uiso 1 1 calc GR
loop_
_atom_site_aniso_label
_atom_site_aniso_U_11
_atom_site_aniso_U_22
_atom_site_aniso_U_33
_atom_site_aniso_U_23
_atom_site_aniso_U_13
_atom_site_aniso_U_12
O001 0.0464(5) 0.0283(4) 0.0437(5) -0.0037(3) -0.0181(4) -0.0079(4)
F002 0.0990(8) 0.0763(7) 0.0645(6) 0.0248(5) -0.0520(6) -0.0361(6)
O003 0.0639(7) 0.0562(7) 0.0449(6) 0.0038(5) -0.0259(5) -0.0081(5)
C004 0.0312(5) 0.0286(5) 0.0369(6) -0.0002(4) -0.0066(4) -0.0111(4)
C005 0.0479(7) 0.0326(6) 0.0417(7) -0.0030(5) -0.0145(6) -0.0067(5)
C006 0.0329(5) 0.0284(5) 0.0358(6) -0.0009(4) -0.0071(4) -0.0100(4)
C007 0.0386(6) 0.0306(6) 0.0409(6) -0.0008(5) -0.0142(5) -0.0103(5)
C008 0.0339(5) 0.0327(6) 0.0360(6) 0.0023(5) -0.0084(5) -0.0147(5)
C009 0.0383(6) 0.0359(6) 0.0349(6) -0.0014(5) -0.0075(5) -0.0125(5)
N00A 0.0860(11) 0.0385(7) 0.0762(10) -0.0160(7) -0.0309(9) 0.0007(7)
C00B 0.0378(6) 0.0427(7) 0.0399(6) 0.0048(5) -0.0127(5) -0.0140(5)
C00C 0.0323(5) 0.0279(5) 0.0378(6) -0.0014(4) -0.0069(5) -0.0100(4)
C00D 0.0484(7) 0.0378(6) 0.0407(7) -0.0013(5) -0.0127(6) -0.0148(6)
C00E 0.0480(7) 0.0348(6) 0.0445(7) 0.0010(5) -0.0157(6) -0.0137(5)
C00F 0.0471(7) 0.0344(7) 0.0571(8) 0.0047(6) -0.0223(6) -0.0071(5)
C00G 0.0532(8) 0.0296(6) 0.0569(8) -0.0039(6) -0.0228(7) -0.0070(5)
C00H 0.0561(8) 0.0532(8) 0.0464(7) 0.0168(6) -0.0251(6) -0.0295(7)
C00I 0.0606(9) 0.0515(8) 0.0404(7) 0.0002(6) -0.0166(6) -0.0249(7)
C00J 0.0533(8) 0.0390(7) 0.0579(9) 0.0120(6) -0.0241(7) -0.0164(6)
C00K 0.0664(10) 0.0638(10) 0.0585(10) 0.0157(8) -0.0342(8) -0.0150(8)
loop_
_atom_type_symbol
_atom_type_description
_atom_type_scat_dispersion_real
_atom_type_scat_dispersion_imag
_atom_type_scat_source
C C 0.0033 0.0016 'International Tables Vol C Tables 4.2.6.8 and 6.1.1.4'
H H 0.0000 0.0000 'International Tables Vol C Tables 4.2.6.8 and 6.1.1.4'
F F 0.0171 0.0103 'International Tables Vol C Tables 4.2.6.8 and 6.1.1.4'
N N 0.0061 0.0033 'International Tables Vol C Tables 4.2.6.8 and 6.1.1.4'
O O 0.0106 0.0060 'International Tables Vol C Tables 4.2.6.8 and 6.1.1.4'
loop_
_geom_angle_atom_site_label_1
_geom_angle_atom_site_label_2
_geom_angle_atom_site_label_3
_geom_angle
C00C O001 C007 107.22(9)
C00B O003 C00K 118.26(12)
C007 C004 C006 104.83(11)
C007 C004 C009 120.01(11)
C009 C004 C006 135.17(11)
N00A C005 C006 177.72(16)
C005 C006 C004 124.78(11)
C00C C006 C004 107.71(10)
C00C C006 C005 127.50(12)
O001 C007 C004 110.44(10)
C00G C007 O001 126.29(12)
C00G C007 C004 123.27(12)
C00D C008 C00C 119.80(11)
C00E C008 C00C 121.52(11)
C00E C008 C00D 118.67(12)
C004 C009 H009 121.3
C00B C009 C004 117.49(12)
C00B C009 H009 121.3
O003 C00B C009 115.29(12)
O003 C00B C00F 123.30(12)
C009 C00B C00F 121.41(12)
O001 C00C C006 109.81(11)
O001 C00C C008 115.75(10)
C006 C00C C008 134.44(11)
C008 C00D H00D 119.5
C00I C00D C008 120.93(13)
C00I C00D H00D 119.5
C008 C00E H00E 119.7
C00J C00E C008 120.51(13)
C00J C00E H00E 119.7
C00B C00F H00F 119.5
C00G C00F C00B 121.09(12)
C00G C00F H00F 119.5
C007 C00G C00F 116.73(12)
C007 C00G H00G 121.6
C00F C00G H00G 121.6
F002 C00H C00I 118.54(14)
F002 C00H C00J 118.64(14)
C00J C00H C00I 122.81(13)
C00D C00I H00I 120.9
C00H C00I C00D 118.29(13)
C00H C00I H00I 120.9
C00E C00J H00J 120.6
C00H C00J C00E 118.78(13)
C00H C00J H00J 120.6
O003 C00K H00A 109.5
O003 C00K H00B 109.5
O003 C00K H00C 109.5
H00A C00K H00B 109.5
H00A C00K H00C 109.5
H00B C00K H00C 109.5
loop_
_geom_bond_atom_site_label_1
_geom_bond_atom_site_label_2
_geom_bond_distance
O001 C007 1.3837(15)
O001 C00C 1.3711(14)
F002 C00H 1.3543(16)
O003 C00B 1.3669(17)
O003 C00K 1.4229(19)
C004 C006 1.4448(17)
C004 C007 1.3889(17)
C004 C009 1.3922(17)
C005 C006 1.4187(17)
C005 N00A 1.1381(18)
C006 C00C 1.3714(17)
C007 C00G 1.3758(18)
C008 C00C 1.4530(17)
C008 C00D 1.4003(18)
C008 C00E 1.3954(17)
C009 H009 0.9300
C009 C00B 1.3866(18)
C00B C00F 1.403(2)
C00D H00D 0.9300
C00D C00I 1.378(2)
C00E H00E 0.9300
C00E C00J 1.381(2)
C00F H00F 0.9300
C00F C00G 1.383(2)
C00G H00G 0.9300
C00H C00I 1.373(2)
C00H C00J 1.369(2)
C00I H00I 0.9300
C00J H00J 0.9300
C00K H00A 0.9600
C00K H00B 0.9600
C00K H00C 0.9600
loop_
_geom_torsion_atom_site_label_1
_geom_torsion_atom_site_label_2
_geom_torsion_atom_site_label_3
_geom_torsion_atom_site_label_4
_geom_torsion
O001 C007 C00G C00F -179.71(13)
F002 C00H C00I C00D 178.55(13)
F002 C00H C00J C00E -178.87(13)
O003 C00B C00F C00G -179.99(14)
C004 C006 C00C O001 -0.57(13)
C004 C006 C00C C008 179.60(12)
C004 C007 C00G C00F 0.6(2)
C004 C009 C00B O003 -179.68(11)
C004 C009 C00B C00F 0.91(19)
C005 C006 C00C O001 178.43(12)
C005 C006 C00C C008 -1.4(2)
C006 C004 C007 O001 -0.54(13)
C006 C004 C007 C00G 179.16(13)
C006 C004 C009 C00B -179.75(13)
C007 O001 C00C C006 0.23(13)
C007 O001 C00C C008 -179.90(10)
C007 C004 C006 C005 -178.36(12)
C007 C004 C006 C00C 0.67(13)
C007 C004 C009 C00B -0.44(18)
C008 C00D C00I C00H 0.6(2)
C008 C00E C00J C00H 0.0(2)
C009 C004 C006 C005 1.0(2)
C009 C004 C006 C00C -179.94(13)
C009 C004 C007 O001 179.95(10)
C009 C004 C007 C00G -0.3(2)
C009 C00B C00F C00G -0.6(2)
C00B C00F C00G C007 -0.2(2)
C00C O001 C007 C004 0.21(14)
C00C O001 C007 C00G -179.47(13)
C00C C008 C00D C00I -179.50(12)
C00C C008 C00E C00J 179.16(12)
C00D C008 C00C O001 -3.15(17)
C00D C008 C00C C006 176.67(13)
C00D C008 C00E C00J -0.2(2)
C00E C008 C00C O001 177.48(11)
C00E C008 C00C C006 -2.7(2)
C00E C008 C00D C00I -0.1(2)
C00I C00H C00J C00E 0.5(2)
C00J C00H C00I C00D -0.8(2)
C00K O003 C00B C009 -178.27(13)
C00K O003 C00B C00F 1.1(2)
