#------------------------------------------------------------------------------
#$Date: 2019-11-24 21:47:49 +0200 (Sun, 24 Nov 2019) $
#$Revision: 239511 $
#$URL: file:///home/coder/svn-repositories/cod/cif/4/51/67/4516752.cif $
#------------------------------------------------------------------------------
#
# This file is available in the Crystallography Open Database (COD),
# http://www.crystallography.net/
#
# All data on this site have been placed in the public domain by the
# contributors.
#
data_4516752
loop_
_publ_author_name
'Jaffe, Adam'
'Lin, Yu'
'Beavers, Christine M.'
'Voss, Johannes'
'Mao, Wendy L.'
'Karunadasa, Hemamala I.'
_publ_section_title
;
 High-Pressure Single-Crystal Structures of 3D Lead-Halide Hybrid
 Perovskites and Pressure Effects on their Electronic and Optical
 Properties.
;
_journal_issue                   4
_journal_name_full               'ACS central science'
_journal_page_first              201
_journal_page_last               209
_journal_paper_doi               10.1021/acscentsci.6b00055
_journal_volume                  2
_journal_year                    2016
_chemical_formula_sum            'C H6 I3 N Pb'
_chemical_formula_weight         619.96
_space_group_crystal_system      orthorhombic
_space_group_IT_number           69
_space_group_name_Hall           '-F 2 2'
_space_group_name_H-M_alt        'F m m m'
_atom_sites_solution_primary     'intrinsic phasing'
_atom_sites_solution_secondary   difmap
_audit_creation_method           SHELXL-2014/7
_cell_angle_alpha                90
_cell_angle_beta                 90
_cell_angle_gamma                90
_cell_formula_units_Z            8
_cell_length_a                   12.4984(7)
_cell_length_b                   12.5181(7)
_cell_length_c                   12.6012(8)
_cell_measurement_reflns_used    3332
_cell_measurement_temperature    296(2)
_cell_measurement_theta_max      33.4
_cell_measurement_theta_min      3.15
_cell_volume                     1971.5(2)
_computing_cell_refinement       'SAINT V8.34A(Bruker, 2013)'
_computing_data_collection       'Apex2 v2014.11-0 (Bruker, 2014)'
_computing_data_reduction        SAINT
_computing_molecular_graphics
;
     	SHELXTL 5.1, XP (Sheldrick, 1994)
	ShelXle Rev 699 (Hubschle, 2011)
;
_computing_publication_material  SHELXL-2014/7
_computing_structure_refinement  'SHELXL-2014/7 (Sheldrick, 2014)'
_computing_structure_solution    'SHELXT (Sheldrick, 2012)'
_diffrn_ambient_temperature      296(2)
_diffrn_detector_area_resol_mean 10.42
_diffrn_measured_fraction_theta_full 0.998
_diffrn_measured_fraction_theta_max 0.995
_diffrn_measurement_device_type  'Bruker D8 with PHOTON 100 detector'
_diffrn_measurement_method       '\f and \w shutterless scans'
_diffrn_radiation_monochromator  'silicon 111'
_diffrn_radiation_type           synchrotron
_diffrn_radiation_wavelength     0.6888
_diffrn_reflns_av_R_equivalents  0.0423
_diffrn_reflns_av_unetI/netI     0.0322
_diffrn_reflns_Laue_measured_fraction_full 0.998
_diffrn_reflns_Laue_measured_fraction_max 0.995
_diffrn_reflns_limit_h_max       20
_diffrn_reflns_limit_h_min       -20
_diffrn_reflns_limit_k_max       20
_diffrn_reflns_limit_k_min       -20
_diffrn_reflns_limit_l_max       20
_diffrn_reflns_limit_l_min       -20
_diffrn_reflns_number            7622
_diffrn_reflns_point_group_measured_fraction_full 0.998
_diffrn_reflns_point_group_measured_fraction_max 0.995
_diffrn_reflns_theta_full        24.411
_diffrn_reflns_theta_max         35.039
_diffrn_reflns_theta_min         2.727
_diffrn_source
;
Advanced Light Source, station 11.3.1
;
_exptl_absorpt_coefficient_mu    26.187
_exptl_absorpt_correction_T_max  0.4371
_exptl_absorpt_correction_T_min  0.2919
_exptl_absorpt_correction_type   multi-scan
_exptl_absorpt_process_details   'SADABS-2014/5 (Sheldrick, 2015)'
_exptl_crystal_colour            black
_exptl_crystal_density_diffrn    4.177
_exptl_crystal_description       'rhombic dodecahedron'
_exptl_crystal_F_000             2080
_exptl_crystal_size_max          0.050
_exptl_crystal_size_mid          0.050
_exptl_crystal_size_min          0.050
_refine_diff_density_max         3.255
_refine_diff_density_min         -5.657
_refine_diff_density_rms         0.498
_refine_ls_extinction_coef       0.00025(5)
_refine_ls_extinction_expression Fc^*^=kFc[1+0.001xFc^2^\l^3^/sin(2\q)]^-1/4^
_refine_ls_extinction_method     'SHELXL-2014/7 (Sheldrick 2014'
_refine_ls_goodness_of_fit_ref   1.114
_refine_ls_hydrogen_treatment    undef
_refine_ls_matrix_type           full
_refine_ls_number_parameters     24
_refine_ls_number_reflns         1326
_refine_ls_number_restraints     1
_refine_ls_restrained_S_all      1.114
_refine_ls_R_factor_all          0.0731
_refine_ls_R_factor_gt           0.0555
_refine_ls_shift/su_max          0.000
_refine_ls_shift/su_mean         0.000
_refine_ls_structure_factor_coef Fsqd
_refine_ls_weighting_details
'w=1/[\s^2^(Fo^2^)+(0.0724P)^2^+241.6893P] where P=(Fo^2^+2Fc^2^)/3'
_refine_ls_weighting_scheme      calc
_refine_ls_wR_factor_gt          0.1831
_refine_ls_wR_factor_ref         0.1948
_reflns_Friedel_coverage         0.000
_reflns_number_gt                962
_reflns_number_total             1326
_reflns_threshold_expression     'I > 2\s(I)'
_cod_data_source_file            oc6b00055_si_003.cif
_cod_data_source_block           MAPbI3_RT
_cod_depositor_comments
;
The following automatic conversions were performed:

data item '_atom_sites_solution_secondary' value 'diffmap' was
changed to 'difmap'.

Automatic conversion script
Id: cif_fix_values 6909 2019-04-08 15:41:33Z antanas 
;
_cod_database_code               4516752
_shelx_shelxl_version_number     2014/7
_shelx_space_group_comment
;
The symmetry employed for this shelxl refinement is uniquely defined
by the following loop, which should always be used as a source of
symmetry information in preference to the above space-group names.
They are only intended as comments.
;
_shelx_estimated_absorpt_t_min   0.354
_shelx_estimated_absorpt_t_max   0.354
_shelx_res_file
;

    sad_a.res created by SHELXL-2014/7


TITL sad_a.res in Fmmm
REM Old TITL sad in Fmmm

REM SHELXT solution in Fmmm
REM R1 0.205,  Rweak 0.007,  Alpha 0.056,  Orientation as input
REM Formula found by SHELXT:  N I3 Pb

CELL  0.68880  12.4984  12.5181  12.6012   90.000   90.000   90.000
ZERR   8.000   0.0007   0.0007   0.0008    0.000    0.000    0.000
LATT  4
SYMM -X, -Y, Z
SYMM -X, Y, -Z
SYMM X, -Y, -Z
SFAC C H N I PB
DISP $C  0.00341  0.00169 11.32113!source kissel
DISP $H -0.00002  0.00000  0.66638!source kissel
DISP $N  0.00664  0.00342 19.38436!source kissel
DISP $I -0.43705  1.84095 7630.74430!source kissel
DISP $Pb -3.41943 10.20082 41609.52882!source kissel
UNIT 8 48 8 24 8
LIST 6 ! automatically inserted. Change 6 to 4 for CHECKCIF!!
REM LIST 6 ! automatically inserted. Change 6 to 4 for CHECKCIF!!
OMIT 0 0 4
TEMP 23
L.S. 30
BOND
SIZE 0.05 0.05 0.05 !black rhombic decahedron
ACTA
FMAP 2
EQIV $1 x, 1-y, z
EADP N1 C1
EXYZ N1 C1
DFIX 1.435 0.002 N1 C1_$1
PLAN 20
TWIN 0 1 0 1 0 0 0 0 1
EADP I2A I2B
EADP I3A I3B
WGHT    0.072400  241.689362
EXTI    0.000249
BASF   0.42450
FVAR       0.07414
PB1   5    0.250000    0.250000    0.500000    10.25000    0.02778    0.03583 =
         0.03361    0.00000    0.00000    0.00009

I1    4    0.224103    0.500000    0.500000    10.25000    0.12039    0.02743 =
         0.11023    0.00000    0.00000    0.00000
I2A   4    0.500000    0.298075    0.500000    10.18750    0.02274    0.06653 =
         0.06978    0.00000    0.00000    0.00000
I2B   4    0.500000    0.267410    0.461895    10.06250    0.02274    0.06653 =
         0.06978    0.00000    0.00000    0.00000
I3A   4    0.250000    0.250000    0.250000    10.18750    0.09653    0.08010 =
         0.02486    0.00000    0.00000    0.00000
I3B   4    0.294372    0.250000    0.250000    10.06250    0.09653    0.08010 =
         0.02486    0.00000    0.00000    0.00000
C1    1    0.500000    0.442695    0.215859    10.25000    0.15383
N1    3    0.500000    0.442695    0.215859    10.25000    0.15383
HKLF 4

REM  sad_a.res in Fmmm
REM R1 =  0.0555 for     962 Fo > 4sig(Fo)  and  0.0731 for all    1326 data
REM     24 parameters refined using      1 restraints

END

WGHT      0.0724    241.6894

REM Highest difference peak  3.255,  deepest hole -5.657,  1-sigma level  0.498
Q1    1   0.5000  0.2296  0.4320  10.50000  0.05    3.26
Q2    1   0.2500  0.2500  0.4411  10.50000  0.05    2.83
Q3    1   0.2935  0.2926  0.2093  11.00000  0.05    2.71
Q4    1   0.5000  0.5000  0.0487  10.25000  0.05    1.97
Q5    1   0.5000  0.5000  0.5000  10.12500  0.05    1.96
Q6    1   0.5000  0.5000  0.2064  10.25000  0.05    1.91
Q7    1   0.5000  0.4145  0.2936  10.50000  0.05    1.55
Q8    1   0.0000  0.5000  0.5000  10.12500  0.05    1.48
Q9    1   0.2305  0.6009  0.5255  11.00000  0.05    1.40
Q10   1   0.2581  0.5307  0.4688  11.00000  0.05    1.34
Q11   1   0.5582  0.4428  0.5000  10.50000  0.05    1.14
Q12   1   0.6911  0.5000  0.2674  10.50000  0.05    1.11
Q13   1   0.2430  0.3276  0.5000  10.50000  0.05    1.09
Q14   1   0.5452  0.3161  0.5000  10.50000  0.05    1.05
Q15   1   0.2663  0.5000  0.4173  10.50000  0.05    1.02
Q16   1   0.5325  0.3449  0.5000  10.50000  0.05    0.99
Q17   1   0.6054  0.2611  0.4796  11.00000  0.05    0.90
Q18   1   0.4563  0.5000  0.1317  10.50000  0.05    0.86
Q19   1   0.2822  0.1486  0.4497  11.00000  0.05    0.84
Q20   1   0.4209  0.4010  0.2151  11.00000  0.05    0.84
;
_shelx_res_checksum              64130
_shelx_hkl_file
;
  -2   0   0 3326.57  150.08
   2   0   0 3362.36  150.38
   4   0   0 8788.82  389.36
  -4   0   0 9125.59  391.16
  -6   0   0  848.62   34.80
   6   0   0  813.02   35.50
   6   0   0  815.12   33.80
  -6   0   0  831.82   35.50
   8   0   0 2425.96   99.29
  -8   0   0 2562.94  100.59
  -8   0   0 2455.65  101.49
  10   0   0   81.69    5.20
 -10   0   0   73.49    8.10
  10   0   0   70.49    7.10
 -10   0   0   77.29    6.70
  12   0   0  795.82   32.30
 -12   0   0  683.93   38.30
 -12   0   0  761.32   35.40
 -14   0   0   23.10    5.90
  14   0   0   21.20    4.10
 -16   0   0  263.37   16.80
  16   0   0  255.07   13.40
  18   0   0    3.70    3.30
 -18   0   0   -4.10    5.80
 -20   0   0   78.89   10.90
  20   0   0   68.29    7.00
   0   2   0 3473.15  154.78
   0  -2   0 3560.84  155.68
   2  -2   0  608.04   25.10
   2   2   0  612.04   24.70
  -2   2   0  593.04   24.80
   2  -2   0  623.64   24.70
   2   2   0  637.24   25.60
  -2  -2   0  612.44   25.50
   2  -2   0  583.44   24.80
  -2  -2   0  645.14   25.20
  -4  -2   0 3443.66  138.29
   4   2   0 3539.15  138.49
   4  -2   0 3599.94  137.39
  -4  -2   0 3372.76  137.69
  -4   2   0 3420.46  138.39
   4   2   0 3376.86  136.89
  -6   2   0  546.45   24.70
   6   2   0  539.55   22.80
  -6  -2   0  545.95   24.50
   6  -2   0  520.95   23.10
   6  -2   0  560.44   23.00
  -6  -2   0  572.34   23.90
   6   2   0  553.54   24.70
   8   2   0 2250.17   88.99
  -8  -2   0 2267.07   90.39
   8  -2   0 2154.48   89.19
  -8   2   0 2225.78   91.49
   8  -2   0 2266.27   91.69
  -8  -2   0 2156.48   90.99
   8   2   0 2221.48   91.39
   8  -2   0 2215.38   89.19
  10  -2   0  228.48   11.70
 -10   2   0  240.38   13.30
  10  -2   0  230.08   14.50
 -10  -2   0  242.38   14.20
 -10  -2   0  253.37   13.40
  10   2   0  253.97   11.60
 -10   2   0  242.68   14.50
  10   2   0  244.68   14.30
 -12  -2   0  799.02   36.10
 -12  -2   0  797.12   34.80
  12   2   0  772.72   32.70
  12  -2   0  752.72   32.80
 -12   2   0  749.82   35.90
 -12   2   0  742.43   34.70
  14   2   0   39.60    4.80
  14  -2   0   47.40    5.70
 -14   2   0   65.39    9.50
 -14  -2   0   46.20    8.20
 -16  -2   0  202.88   13.90
  16  -2   0  200.78   11.50
 -16   2   0  228.78   18.60
  16   2   0  207.48   11.40
  18  -2   0    5.90    3.30
 -18   2   0    3.70    6.60
 -18  -2   0   12.20    6.20
  18   2   0    6.90    3.40
 -20  -2   0   36.90    8.10
  20   2   0   52.79    6.40
  20  -2   0   60.09    6.70
   0  -4   0 9999.00  415.06
   0   4   0 9238.18  410.16
  -2  -4   0 3323.77  130.49
   2   4   0 3181.18  131.19
   2  -4   0 3527.75  130.39
  -2   4   0 3389.76  130.39
  -2  -4   0 3004.70  130.79
   4   4   0 4791.42  195.68
  -4  -4   0 4641.34  195.18
   4   4   0 5010.70  193.98
   4  -4   0 5168.68  194.68
   6  -4   0 1021.00   41.20
  -6   4   0 1003.50   42.90
  -6  -4   0  978.70   42.40
  -6  -4   0  954.20   41.60
  -6   4   0 1020.90   40.90
   6   4   0 1011.50   42.80
   6   4   0  978.30   40.60
   6  -4   0 1012.30   40.60
   8  -4   0 1417.26   54.89
  -8   4   0 1405.36   57.49
   8   4   0 1356.96   57.39
  -8  -4   0 1321.57   55.89
  -8  -4   0 1312.17   56.79
   8  -4   0 1263.37   55.09
   8   4   0 1346.47   54.69
  10   4   0  176.08    8.80
  10  -4   0  167.48    9.20
 -10  -4   0  164.18   11.10
 -10  -4   0  168.78   10.10
 -10   4   0  169.88   11.90
 -12  -4   0  405.06   21.30
  12   4   0  415.26   18.50
 -12   4   0  407.66   22.00
 -12  -4   0  397.76   20.20
  12  -4   0  405.66   18.90
  14  -4   0   47.30    5.30
  14   4   0   42.40    4.90
 -14   4   0   52.09    8.80
 -16  -4   0  141.69   11.10
  16   4   0  145.39    9.10
  16  -4   0  148.39    9.40
 -18  -4   0   14.80    6.20
  18  -4   0   19.30    5.10
  18   4   0   11.80    3.30
 -20  -4   0   33.70    7.60
  20   4   0   44.30    6.40
  20  -4   0   49.00    6.30
   0  -6   0  954.90   38.50
   0   6   0  946.91   37.90
   0   6   0  898.81   38.90
   0  -6   0  944.01   38.00
  -2   6   0  595.24   24.40
  -2  -6   0  581.94   24.70
   2  -6   0  606.04   23.80
   2   6   0  555.94   25.30
  -2  -6   0  581.04   24.20
   2   6   0  560.34   23.70
  -2   6   0  578.74   24.40
   2  -6   0  557.64   24.10
  -4  -6   0 1046.20   44.40
  -4   6   0 1084.69   44.20
   4   6   0 1030.70   45.70
   4  -6   0 1117.39   44.60
  -4  -6   0 1122.39   45.20
   4  -6   0 1057.29   44.20
   4  -6   0 1108.39   43.80
   4   6   0 1078.19   43.70
   6  -6   0  662.43   29.80
  -6  -6   0  726.33   30.10
   6  -6   0  692.43   29.00
   6  -6   0  677.33   29.40
   6   6   0  684.63   29.00
  -6  -6   0  752.62   31.00
   8  -6   0  820.62   36.20
   8   6   0  864.31   35.60
  -8   6   0  794.22   38.20
  -8  -6   0  853.11   36.90
   8  -6   0  909.61   36.90
  -8  -6   0  898.61   38.00
  10   6   0  402.96   17.80
 -10  -6   0  402.96   20.20
 -10  -6   0  411.66   19.20
 -10   6   0  351.26   20.70
 -12  -6   0  277.57   17.30
  12   6   0  315.17   14.80
 -12   6   0  306.57   19.10
  12  -6   0  320.27   15.10
 -12  -6   0  304.47   16.30
  14   6   0  103.29    7.40
 -14  -6   0  106.69    8.80
  14  -6   0   99.79    7.40
 -14   6   0  117.59   16.20
 -16  -6   0   71.89    8.10
  16  -6   0   86.19    7.10
  16   6   0   82.69    6.70
  18  -6   0   30.30    5.60
  18   6   0   30.50    5.20
 -18  -6   0   21.40    6.20
   0  -8   0 2490.75   97.39
   0  -8   0 2382.56   97.69
   2  -8   0 2446.26   94.29
   2  -8   0 2259.37   94.59
   2   8   0 2352.96   94.09
  -2  -8   0 2499.85   95.19
  -2  -8   0 2238.98   94.39
  -2   8   0 2346.37   95.59
   4  -8   0 1463.05   58.19
   4   8   0 1409.26   57.29
   4  -8   0 1476.05   57.49
   4  -8   0 1382.86   57.89
  -4  -8   0 1435.26   58.69
  -4  -8   0 1337.87   57.89
   6   8   0  883.21   35.80
   6   8   0  831.82   38.50
   6  -8   0  866.01   36.40
  -6  -8   0  859.11   36.70
  -6  -8   0  879.31   37.50
   8   8   0  384.86   17.20
  -8  -8   0  370.36   19.00
  -8   8   0  399.16   21.20
  -8  -8   0  385.86   18.20
 -10   8   0  204.78   15.40
  10   8   0  220.78   10.80
 -10  -8   0  196.08   12.80
 -10  -8   0  215.88   12.00
 -12   8   0  104.99   13.60
 -12  -8   0  106.99    8.50
  12   8   0  120.19    7.50
 -14  -8   0   68.69    7.10
  14  -8   0   84.29    7.20
  14   8   0   81.29    6.40
  16  -8   0   38.80    5.40
  16   8   0   49.10    5.80
 -18  -8   0   29.90    6.30
  18  -8   0   33.90    5.60
  18   8   0   32.50    5.50
   0 -10   0  106.29    6.10
   0  10   0  109.29    6.20
   0 -10   0   95.49    6.50
  -2  10   0  273.67   13.60
   2  10   0  248.08   11.90
  -2 -10   0  254.17   12.80
  -2 -10   0  255.67   12.20
   2 -10   0  264.27   12.00
   2 -10   0  256.97   12.60
  -4 -10   0  184.18    9.60
   4  10   0  180.28    9.10
  -4 -10   0  188.98   10.40
  -6 -10   0  403.46   18.50
   6  10   0  384.76   17.80
  -6 -10   0  408.96   19.50
   6 -10   0  407.46   19.00
   6 -10   0  393.16   19.10
  -8 -10   0  210.18   11.50
  -8 -10   0  211.58   12.60
   8  10   0  221.58   10.90
 -10 -10   0  233.28   12.90
 -10  10   0  246.58   18.10
  10  10   0  244.18   12.40
 -12 -10   0   78.29    6.90
  12  10   0   85.29    6.60
  14  10   0   74.99    6.50
 -14 -10   0   76.39    7.50
  14 -10   0   91.29    7.80
  16  10   0   25.30    4.60
  16 -10   0   23.60    5.00
 -16 -10   0   19.20    5.10
 -18 -10   0   19.00    5.30
  18 -10   0   23.80    5.70
  18  10   0   22.90    4.60
   0 -12   0  718.93   31.10
   0 -12   0  754.12   31.90
   0  12   0  731.03   31.50
  -2 -12   0  740.63   32.60
   2 -12   0  777.52   32.80
   2  12   0  797.12   33.90
   2 -12   0  760.32   33.20
  -2 -12   0  781.52   33.50
   4 -12   0  467.25   20.40
  -4 -12   0  386.16   19.50
  -4 -12   0  401.86   18.80
   4 -12   0  402.36   19.50
  -6 -12   0  289.37   15.10
   6 -12   0  338.37   16.40
   8  12   0  110.39    9.40
  -8 -12   0  107.89    7.80
   8 -12   0  106.69    9.10
 -10 -12   0   85.39    7.10
  10  12   0   83.69    6.70
  12 -12   0   34.80    5.60
 -12 -12   0   25.40    4.60
  12  12   0   43.60    6.00
  14  12   0   48.30    6.30
  14 -12   0   41.90    6.80
  16  12   0    9.50    4.10
  16 -12   0   17.10    5.30
 -16 -12   0   11.60    4.90
   0 -14   0   17.40    4.20
   0 -14   0   19.40    3.40
  -2 -14   0   41.80    6.10
   2 -14   0   51.49    6.50
  -2 -14   0   48.50    4.60
   4 -14   0   51.89    7.30
  -4 -14   0   46.90    5.10
  -6 -14   0   90.59    7.00
   6 -14   0  109.39   10.60
  -8 -14   0   76.79    6.60
   8  14   0   79.69    7.00
  10  14   0   78.79    7.40
 -10 -14   0   77.99    6.60
  12  14   0   50.39    6.40
  12 -14   0   44.80    7.10
 -12 -14   0   44.00    6.40
  14  14   0   36.60    6.00
  14 -14   0   29.00    6.50
 -14 -14   0   28.80    5.60
   0 -16   0  182.08   10.40
  -2 -16   0  184.48   10.40
   2 -16   0  191.18   11.40
  -4 -16   0  114.99    7.80
   6  16   0   76.29    8.10
  -6 -16   0   62.99    6.10
  -8 -16   0   40.60    5.30
   8  16   0   43.30    6.90
  10  16   0   29.50    6.00
 -10 -16   0   18.40    4.20
  12  16   0   15.80    5.70
 -12 -16   0   14.10    4.10
   0 -18   0   -0.60    3.20
  -2 -18   0    2.90    3.20
   2 -18   0   11.40    4.40
   4 -18   0   17.50    5.70
   4  18   0   14.80    6.90
  -4 -18   0   18.40    3.90
   6  18   0   26.40    7.50
  -6 -18   0   15.10    4.00
  -8 -18   0   17.00    3.80
   8  18   0   37.10    8.00
 -10 -18   0   26.40    5.20
  10  18   0   16.00    6.50
   0 -20   0   32.70    5.80
  -2 -20   0   46.00    6.30
   2 -20   0   50.89    7.40
  -4 -20   0   21.20    4.20
   1   1  -1    0.20    0.30
   1   1  -1    0.40    0.40
   1  -1   1    0.20    0.60
  -1  -1  -1    0.30    0.60
   1  -1   1    0.10    0.50
   1   1   1    0.30    0.40
   1  -1  -1    1.30    0.70
  -1  -1   1   -0.20    0.50
  -1   1  -1    0.00    0.50
   1   1   1    1.40    0.60
  -1  -1   1   -0.20    0.40
   1   1   1   -0.20    0.60
   3   1  -1  433.16   18.50
   3   1  -1  471.25   19.30
   3  -1   1  444.36   18.50
  -3   1   1  438.96   18.90
   3  -1   1  452.55   18.60
  -3  -1  -1  447.46   19.70
  -3  -1   1  462.25   19.20
   3  -1  -1  441.56   18.90
   3   1   1  462.25   19.90
  -3  -1   1  490.25   18.80
   3  -1  -1  471.25   18.40
  -3   1  -1  431.96   20.10
   3   1   1  442.46   18.40
   3  -1  -1  449.46   18.90
   3   1   1  464.55   19.00
   5  -1   1  127.09    6.10
  -5  -1  -1  125.49    7.00
   5   1  -1  124.69    7.00
   5  -1   1  127.39    6.00
   5  -1   1  123.89    7.80
  -5   1   1  120.29    6.90
   5   1  -1  124.29    6.10
  -5  -1  -1  122.99    7.60
  -5   1   1  128.49    6.40
   5  -1  -1  113.79    6.20
   5  -1  -1  119.29    6.80
  -5   1  -1  122.29    8.00
   5   1   1  120.79    7.60
  -5  -1   1  126.99    7.10
  -5  -1   1  132.39    6.60
   5   1   1  121.39    5.90
   7  -1   1  229.08   10.70
  -7   1   1  231.48   11.90
  -7  -1  -1  232.88   11.80
  -7   1   1  232.98   11.10
  -7  -1  -1  225.38   12.60
   7   1  -1  225.88   10.40
   7   1  -1  232.88   14.10
   7  -1   1  220.18   10.30
  -7   1  -1  221.58   12.60
  -7  -1   1  235.48   11.30
   7  -1  -1  200.58   10.40
   7  -1  -1  226.58   11.90
   7   1   1  218.58   10.20
   7   1   1  224.38   12.60
  -7  -1   1  228.38   11.90
   9   1  -1    4.70    2.50
  -9  -1  -1    1.00    2.80
  -9  -1  -1    8.60    3.10
  -9   1   1    7.10    2.90
  -9   1   1    2.10    2.70
   9  -1   1    6.20    2.40
   9  -1   1    6.30    2.00
   9   1  -1    7.20    2.20
   9  -1   1    6.20    3.30
  -9  -1   1    4.60    2.50
   9   1   1    3.50    1.90
  -9  -1   1    3.60    2.90
   9  -1  -1    5.20    1.90
  -9   1  -1    9.20    3.90
  11  -1   1   24.00    3.60
 -11  -1  -1   19.00    5.00
  11   1  -1   16.40    2.80
 -11   1   1   20.30    6.40
 -11  -1  -1   22.20    4.40
 -11   1   1   14.40    4.60
  11   1   1   21.20    3.20
 -11   1  -1   22.20    4.90
 -11  -1   1   21.30    5.00
 -11  -1   1   18.90    4.20
  11  -1  -1   17.20    3.00
 -11   1  -1   27.90    6.10
 -13   1   1    8.80    4.90
  13   1  -1    3.50    2.50
 -13  -1  -1    2.10    3.60
  13  -1   1    4.80    2.50
 -13  -1   1    3.10    4.20
  13   1   1    4.30    2.40
  13  -1  -1    6.30    2.60
 -13   1  -1    0.80    4.30
 -13   1  -1    3.10    5.10
 -15   1   1    0.80    5.70
  15   1  -1    3.60    2.90
  15  -1   1    4.90    2.70
 -15   1  -1   -0.20    5.90
  15  -1  -1    1.80    2.80
 -15  -1   1   -1.50    4.70
  15   1   1    3.00    2.50
 -17  -1  -1   -2.70    4.60
  17  -1   1    1.90    3.00
 -17   1   1   10.10    6.70
  17   1  -1    1.80    2.90
 -17  -1   1    1.20    5.00
  17  -1  -1    3.50    3.30
 -17   1  -1   -0.10    5.50
  17   1   1    3.90    2.80
  19   1  -1   -1.50    2.80
  19  -1   1    3.30    3.30
 -19  -1  -1   -1.70    6.20
 -19  -1   1    5.70    6.60
  19  -1  -1    1.60    3.00
 -19   1  -1    3.20    7.20
  19   1   1   -1.60    2.50
   1  -3   1  396.16   15.40
   1   3  -1  368.96   15.80
   1   3  -1  391.56   15.00
  -1   3   1  364.96   15.40
  -1   3   1  355.06   15.40
  -1  -3  -1  347.27   15.50
  -1  -3  -1  378.36   15.90
   1  -3   1  367.46   15.60
   1   3   1  377.56   16.10
   1  -3  -1  385.36   15.30
  -1   3  -1  369.66   15.60
  -1  -3   1  381.26   15.40
  -1  -3   1  338.37   15.60
   1   3   1  366.66   15.20
   1  -3  -1  384.36   15.00
  -3  -3  -1   69.59    5.00
   3  -3   1   77.19    4.40
   3   3  -1   86.19    5.00
  -3   3   1   76.59    3.80
   3  -3   1   78.49    4.00
  -3  -3  -1   69.99    4.50
  -3  -3   1   74.29    4.20
   3   3   1   79.09    5.20
  -3   3  -1   82.09    4.40
   3  -3  -1   75.09    3.60
   3  -3  -1   77.19    3.90
  -3  -3   1   82.19    4.80
   3   3   1   72.09    3.80
  -5  -3  -1  620.44   25.80
   5  -3   1  650.13   24.90
  -5  -3  -1  577.44   26.30
   5  -3   1  631.44   24.90
  -5   3   1  591.84   25.90
  -5   3   1  601.84   24.70
   5   3  -1  587.04   24.60
   5   3  -1  590.64   26.30
  -5   3  -1  587.54   25.10
  -5  -3   1  605.64   25.50
   5   3   1  595.24   26.70
   5   3   1  603.34   24.80
  -5  -3   1  616.04   26.00
  -5   3  -1  573.74   27.20
   5  -3  -1  556.44   25.40
  -7   3   1   41.60    5.00
   7   3  -1   41.80    4.50
  -7  -3  -1   43.10    5.00
   7   3  -1   43.30    3.30
   7  -3   1   45.40    3.50
  -7  -3  -1   30.50    4.00
  -7   3   1   39.80    3.20
   7  -3   1   35.10    3.30
   7  -3  -1   38.30    3.20
   7   3   1   39.00    3.10
  -7   3  -1   37.50    3.60
  -7  -3   1   43.00    4.70
  -7   3  -1   32.50    5.50
   7   3   1   40.60    5.00
  -7  -3   1   40.30    4.00
   7  -3  -1   45.80    4.00
   9  -3   1  131.79    7.80
  -9  -3  -1  150.28    9.30
  -9  -3  -1  142.09    9.90
   9  -3   1  155.78    8.20
   9   3  -1  141.09    7.60
  -9   3   1  132.49    9.70
   9   3  -1  142.79   10.10
  -9  -3   1  156.58    8.90
  -9   3  -1  146.09   10.90
   9   3   1  143.09    7.50
   9  -3  -1  151.88    8.10
  -9  -3   1  140.19    9.40
 -11  -3  -1   31.20    6.20
  11  -3   1   25.10    4.00
 -11   3   1   38.60    6.30
  11  -3   1   24.30    4.40
 -11  -3  -1   28.70    5.20
  11   3  -1   27.90    3.40
 -11   3  -1   17.20    5.10
  11   3   1   32.50    4.00
  11  -3  -1   28.00    4.10
 -11  -3   1   30.00    5.30
 -11  -3   1   22.00    4.40
  13   3  -1   21.60    3.60
 -13   3   1   23.80    6.00
 -13  -3  -1   16.50    4.90
 -13  -3  -1   15.20    4.30
  13  -3   1   31.60    4.50
 -13  -3   1   19.70    4.80
  13   3   1   15.50    2.90
  13  -3  -1   29.00    4.50
 -13   3  -1   27.60    6.70
  15   3  -1   13.80    3.20
 -15  -3  -1   13.90    5.20
  15  -3   1   18.10    4.00
 -15  -3   1   21.10    5.40
 -15   3  -1   12.40    7.60
  15  -3  -1   24.30    4.40
  15   3   1   19.60    4.00
  17  -3   1    4.80    3.10
 -17  -3  -1    3.60    5.40
  17   3  -1    6.40    3.20
 -17  -3   1    5.00    4.80
  17  -3  -1    6.30    3.20
  17   3   1    4.50    2.90
 -17   3  -1    8.20    6.70
  19  -3   1    5.50    3.40
  19   3  -1    3.20    3.00
 -19  -3  -1   -1.70    5.00
  19   3   1    4.10    3.40
 -19  -3   1    0.00    5.50
  19  -3  -1    9.20    3.80
   1  -5   1  112.69    5.30
   1   5  -1  109.89    6.10
   1  -5   1  106.59    5.70
  -1  -5  -1  112.09    5.40
   1   5  -1  105.79    5.00
  -1   5   1  104.99    5.40
  -1  -5  -1  110.69    5.90
  -1   5   1  109.29    5.80
  -1   5  -1  108.29    5.70
   1  -5  -1  109.89    5.50
   1   5   1  109.89    6.30
   1   5   1  102.19    5.20
  -1  -5   1  110.39    5.90
   1  -5  -1  108.49    5.10
  -1  -5   1  107.79    5.40
   3   5  -1  619.84   25.20
   3  -5   1  635.74   25.50
  -3  -5  -1  625.74   26.80
  -3   5   1  617.34   25.50
   3  -5   1  601.14   25.80
   3  -5   1  634.94   25.80
   3   5  -1  619.84   26.80
  -3  -5  -1  618.94   26.70
  -3  -5   1  647.04   26.40
  -3   5  -1  617.04   25.80
   3  -5  -1  552.04   25.70
   3   5   1  636.64   27.10
   3  -5  -1  636.84   25.70
   3   5   1  607.84   25.40
   3  -5  -1  570.44   25.30
  -3  -5   1  636.44   25.80
  -5  -5  -1   12.40    2.50
   5  -5   1    6.20    1.70
   5  -5   1    7.10    2.00
   5   5  -1    4.90    1.90
  -5  -5  -1   11.20    2.80
   5  -5   1    9.60    1.80
   5   5   1    6.00    1.30
  -5   5  -1    5.20    1.60
   5   5   1    8.80    2.20
  -5  -5   1    9.00    1.90
   5  -5  -1    9.80    1.50
  -5  -5   1    8.00    2.40
   5  -5  -1    9.50    1.70
   5  -5  -1    8.40    2.40
   7  -5   1  372.26   16.40
   7   5  -1  357.56   16.30
  -7   5   1  357.06   18.30
   7  -5   1  398.16   16.70
  -7  -5  -1  365.46   17.60
  -7  -5  -1  371.96   18.50
   7   5   1  390.46   19.10
  -7  -5   1  377.06   18.10
  -7   5  -1  357.06   19.60
   7   5   1  376.96   16.40
  -7  -5   1  367.06   17.20
   7  -5  -1  391.16   17.20
   9  -5   1   21.40    3.60
  -9   5   1    9.60    4.20
  -9  -5  -1   17.50    4.20
   9   5  -1   24.20    3.30
   9  -5   1   25.40    3.60
  -9  -5  -1   25.00    4.10
   9  -5  -1   24.50    4.00
  -9  -5   1   22.90    4.20
   9  -5  -1   22.70    3.20
  -9  -5   1   21.50    3.80
   9   5   1   22.50    3.30
  -9   5  -1   11.90    4.80
  11   5  -1   68.19    5.10
 -11   5   1   66.69    8.80
 -11  -5  -1   61.59    7.50
  11  -5   1   56.09    5.30
 -11  -5  -1   68.49    6.40
 -11  -5   1   63.79    6.30
 -11   5  -1   64.69    9.60
  11  -5  -1   70.99    5.60
 -11  -5   1   59.99    7.30
  11   5   1   63.49    5.00
  13  -5   1   25.00    4.00
  13   5  -1   29.90    4.20
 -13   5   1   35.60    7.10
 -13  -5  -1   28.60    5.50
 -13   5  -1   29.30    7.20
 -13  -5   1   36.90    6.50
  13   5   1   25.30    3.80
 -13  -5   1   37.40    6.20
  13  -5  -1   34.30    4.60
  15   5  -1   11.40    3.20
  15  -5   1   15.60    4.00
 -15  -5  -1   16.00    5.30
 -15   5  -1   20.20    8.20
  15  -5  -1    9.50    3.20
  15   5   1   11.80    3.20
 -15  -5   1   13.10    4.90
  17  -5   1   11.30    3.70
  17   5  -1   20.90    4.50
 -17  -5  -1    3.20    4.10
  17  -5  -1   15.00    4.30
  17   5   1   11.30    3.80
 -17  -5   1   18.40    5.80
  19  -5   1    3.20    3.20
 -19  -5  -1    5.70    5.00
  19   5  -1    3.70    3.40
  19   5   1    7.80    3.60
  19  -5  -1    5.20    3.60
 -19  -5   1    9.70    5.60
   1  -7   1  188.88    9.20
  -1  -7  -1  183.48    8.80
   1   7  -1  189.98    8.40
   1   7  -1  166.98    9.70
  -1  -7  -1  185.98    9.30
  -1   7   1  194.58    9.80
   1  -7   1  196.28    8.80
   1   7   1  191.78    8.80
  -1   7  -1  186.18    8.80
   1  -7  -1  184.98    8.90
   1   7   1  192.38   10.20
  -1  -7   1  178.88    9.40
   1  -7  -1  199.28    8.60
  -1  -7   1  189.18    8.80
   3  -7   1   26.90    3.30
  -3   7   1   20.70    2.90
  -3  -7  -1   23.70    3.40
   3  -7  -1   30.80    3.40
  -3  -7   1   22.20    3.20
   3  -7  -1   23.10    2.60
  -5  -7  -1  344.47   17.00
   5   7  -1  315.47   17.20
   5  -7   1  348.27   16.10
  -5  -7  -1  363.36   16.30
   5  -7   1  371.66   16.10
   5   7  -1  371.26   15.20
   5  -7   1  345.57   15.60
  -5  -7   1  351.96   16.80
  -5  -7   1  359.36   15.90
   5  -7  -1  352.26   15.70
   5  -7  -1  328.27   16.30
   5   7   1  345.37   15.30
  -7  -7  -1    5.30    2.50
  -7  -7  -1    7.20    2.60
  -7   7   1    5.00    1.80
   7   7  -1   -0.10    1.90
  -7   7   1    4.50    3.40
  -7  -7   1    3.80    2.00
   7  -7  -1    1.00    2.20
   7   7   1    5.70    1.80
  -7  -7   1    8.30    2.30
   7   7   1   -0.60    2.70
  -9   7   1   99.99    9.80
  -9  -7  -1   98.09    8.30
  -9  -7  -1   95.69    7.20
   9   7  -1  102.39    6.30
   9   7   1   98.09    6.10
  -9  -7   1  100.19    7.90
  -9   7  -1  101.99   10.80
   9  -7  -1   92.69    7.10
  -9  -7   1  100.09    7.00
 -11   7   1    9.60    5.50
 -11  -7  -1   18.20    4.70
  11   7  -1   18.60    3.50
 -11  -7  -1   16.20    3.80
 -11   7  -1   22.60    6.60
 -11  -7   1   13.60    4.60
  11  -7  -1   15.60    3.80
  11   7   1   20.70    3.70
 -11  -7   1   20.40    4.40
  13   7  -1   24.40    4.20
 -13  -7  -1    9.10    3.80
  13  -7   1   17.80    4.00
  13  -7  -1   20.20    4.10
 -13   7  -1   27.80    8.10
 -13  -7   1   17.90    4.40
  13   7   1   21.50    4.00
 -15  -7  -1   20.00    5.10
  15   7  -1   10.90    3.80
  15  -7   1   16.10    3.80
  15  -7  -1   16.10    4.20
 -15  -7   1   16.00    4.90
  15   7   1   11.30    3.20
  17  -7   1    0.00    3.40
 -17  -7  -1    4.40    4.60
  17   7  -1    2.70    3.30
 -17  -7   1   11.30    4.90
  17  -7  -1    4.10    3.30
  17   7   1    6.60    3.50
  19  -7   1    7.30    3.60
  19   7  -1    4.80    4.10
 -19  -7  -1    6.60    5.20
  19  -7  -1    8.80    4.20
 -19  -7   1    3.20    5.00
  19   7   1    0.10    2.90
  -1   9   1    5.80    2.30
   1   9  -1    4.60    2.70
   1   9  -1    7.20    2.60
  -1   9   1    2.70    2.50
  -1  -9  -1    2.30    1.60
   1  -9   1    7.20    1.90
  -1   9  -1    3.60    2.20
  -1  -9   1    6.60    2.30
   1  -9  -1    4.20    1.90
   1   9   1    2.30    2.10
   1   9   1    0.10    2.20
  -1  -9   1    6.30    2.00
   1  -9  -1    5.20    1.70
  -3  -9  -1  156.28    8.10
   3   9  -1  148.59    7.30
  -3  -9  -1  150.78    8.70
   3  -9   1  148.49    8.20
   3  -9   1  157.18    7.90
   3   9   1  147.09   10.00
  -3  -9   1  147.79    7.90
   3  -9  -1  152.28    7.80
   3  -9  -1  145.49    7.90
   3   9   1  151.38    7.70
  -3  -9   1  151.78    8.60
  -3   9  -1  130.19    8.50
   5  -9   1   14.90    4.60
  -5  -9  -1   20.00    3.20
  -5  -9  -1   15.90    3.20
   5   9  -1   20.80    2.90
   5  -9   1   27.10    3.60
  -5  -9   1   20.50    3.70
   5  -9  -1   19.10    3.40
  -5  -9   1   22.00    3.50
   5   9   1   13.70    2.40
  -7  -9  -1   97.49    7.70
   7  -9   1   98.59    7.00
   7  -9   1  103.09    7.40
   7   9  -1  104.79    6.30
  -7  -9  -1  100.69    6.90
  -7  -9   1   99.79    7.70
   7  -9  -1   99.79    6.90
   7   9   1  104.99    6.20
  -7  -9   1   95.59    6.80
  -9  -9  -1    1.40    2.60
  -9  -9  -1   -3.90    2.80
  -9   9   1    1.40    5.10
   9   9  -1   -2.00    1.80
  -9  -9   1   -0.40    3.00
  -9   9  -1   -4.10    4.90
  -9  -9   1   -1.90    2.30
   9   9   1   -4.50    2.00
 -11  -9  -1   12.90    4.10
  11   9  -1   15.80    3.50
  11   9   1   10.10    2.90
 -11  -9   1   10.90    3.20
 -11   9  -1   15.10    8.10
 -13  -9  -1    4.60    3.80
  13  -9   1   13.20    4.10
  13   9  -1    6.80    3.30
  13   9   1    6.10    3.00
 -13  -9   1    8.60    3.70
  13  -9  -1    2.50    3.20
  15  -9   1    4.30    3.50
 -15  -9  -1   -0.70    3.30
  15   9  -1    8.10    3.30
  15  -9  -1    3.70    3.50
 -15  -9   1    4.70    3.80
  15   9   1    3.40    3.00
  17   9  -1    3.00    3.40
 -17  -9  -1   -0.60    4.10
  17  -9   1    4.40    3.80
  17   9   1   -0.80    2.40
 -17  -9   1    2.10    3.70
  17  -9  -1    3.60    3.60
   1 -11   1   14.20    2.90
  -1  11   1   18.90    3.80
  -1 -11  -1   12.20    4.60
  -1 -11  -1   16.80    3.00
   1 -11   1   23.50    3.90
   1 -11  -1   19.80    3.00
  -1 -11   1   20.90    3.60
   1 -11  -1   23.30    3.50
   1  11   1   20.00    3.60
  -1 -11   1   19.80    3.00
  -3 -11  -1   29.20    4.50
  -3 -11  -1   27.40    3.70
   3 -11   1   31.60    4.10
   3 -11   1   30.90    4.50
   3 -11   1   27.80    4.70
   3 -11  -1   32.50    5.10
  -3 -11   1   31.80    4.00
   3 -11  -1   21.20    3.60
   3  11   1   32.20    4.00
  -3 -11   1   32.10    4.50
   5 -11   1   81.59    7.00
  -5 -11  -1   61.39    6.40
   5 -11   1   56.99    6.30
  -5 -11  -1   71.49    5.30
  -5 -11   1   61.49    5.30
   5 -11  -1   72.39    6.40
   5  11   1   58.29    5.00
  -5 -11   1   64.99    6.10
   5 -11  -1   59.99    6.70
  -7 -11  -1   20.00    3.60
   7 -11   1   22.10    4.60
  -7 -11  -1   14.20    3.60
   7 -11  -1   19.20    4.00
  -7 -11   1    6.50    3.40
  -7 -11   1   16.20    3.30
   7  11   1   16.40    3.40
  -9 -11  -1   17.80    4.10
   9  11  -1   16.60    3.60
  -9  11   1    7.00    7.20
  -9  11  -1   18.00    8.30
   9  11   1   22.30    3.80
  -9 -11   1   18.30    4.10
 -11 -11  -1    2.50    3.40
  11  11  -1   -2.30    2.70
 -11 -11   1   -1.60    2.50
  11  11   1    0.90    2.70
  13 -11   1   -3.10    3.50
  13  11  -1   -2.30    3.30
 -13 -11  -1   -1.10    2.90
  13 -11  -1    0.10    3.40
  13  11   1    0.20    2.80
 -13 -11   1   -0.40    3.00
  15  11  -1   -6.50    3.40
  15 -11   1    3.20    4.10
 -15 -11  -1   -2.90    3.30
  15  11   1    3.90    3.40
 -15 -11   1   -0.50    3.60
  15 -11  -1    4.10    3.60
  17  11  -1   -2.60    3.70
  17 -11   1    1.60    4.10
 -17 -11  -1   -0.10    3.80
  17 -11  -1    3.50    4.30
 -17 -11   1   -1.50    3.70
  17  11   1   -1.00    3.10
  -1 -13  -1    7.80    2.40
   1 -13   1    6.30    2.30
   1 -13  -1    6.30    2.90
  -1 -13   1    4.40    2.40
  -1 -13   1    4.00    2.10
   3 -13   1   24.70    4.60
  -3 -13  -1   39.30    5.50
  -3 -13  -1   30.20    4.20
   3 -13  -1   20.60    3.90
  -3 -13   1   20.00    3.40
  -3 -13   1   25.30    4.20
   5 -13   1   38.50    5.80
  -5 -13  -1   40.80    5.20
  -5 -13   1   32.90    4.30
   5 -13  -1   44.70    6.60
   7 -13   1   25.90    5.50
  -7 -13  -1   28.90    4.60
   7 -13  -1   27.40    6.10
  -9 -13  -1    5.40    3.10
   9  13  -1    4.00    3.30
   9  13   1    5.10    3.00
  -9 -13   1    7.90    3.40
  11  13  -1   -2.90    3.40
 -11 -13  -1    0.20    2.90
 -11 -13   1   -1.40    3.10
  11  13   1   -0.10    2.80
  11 -13  -1    0.80    6.20
  13  13  -1   -4.00    3.50
 -13 -13  -1    4.10    3.30
  13 -13   1   -2.70    4.70
 -13 -13   1   -0.20    2.90
  13  13   1   -0.60    3.30
  13 -13  -1    3.60    4.50
 -15 -13  -1   -1.80    3.20
  15  13  -1   -0.30    4.00
  15 -13   1    3.90    5.00
 -15 -13   1   -3.60    3.60
  15 -13  -1   -3.00    4.20
  15  13   1   -0.90    3.20
   1 -15   1    1.70    3.10
  -1 -15  -1   -0.50    2.40
  -1 -15   1    1.00    2.40
   1 -15  -1    2.60    3.30
  -3 -15  -1   19.60    3.70
   3 -15   1   14.80    4.00
   3 -15   1   14.40    4.90
   3 -15  -1   18.40    5.00
  -3 -15   1   21.30    3.80
  -5 -15  -1   15.90    3.70
   5 -15   1   18.80    6.40
  -5 -15   1   15.20    3.30
  -7 -15  -1   10.00    3.40
   7  15   1   17.80    4.80
  -7 -15   1   16.50    4.20
  -9 -15  -1    2.30    3.00
   9  15  -1    2.70    4.20
   9  15   1    1.50    4.00
  -9 -15   1   -0.20    2.50
 -11 -15  -1   -3.50    2.80
  11  15  -1    3.10    4.20
  11  15   1    4.50    3.80
 -11 -15   1   -2.90    2.80
  11 -15  -1   -1.90    5.20
 -13 -15  -1   -2.50    3.30
  13  15  -1   -1.90    4.30
 -13 -15   1   -2.20    3.00
  13  15   1    2.20    3.70
  13 -15  -1    2.30    5.50
   1 -17   1    4.20    3.40
  -1 -17  -1    4.20    3.20
  -1 -17   1    3.70    3.00
   1 -17  -1    4.60    3.40
  -3 -17  -1    9.40    3.40
   3 -17   1   12.40    4.30
   3 -17  -1    9.80    4.40
  -3 -17   1    7.30    3.00
   3  17   1    1.80    5.10
   5 -17   1   23.40    6.20
   5  17  -1   14.30    6.30
  -5 -17  -1   17.70    3.90
   5 -17  -1   23.90    6.30
   5  17   1    5.10    5.20
  -5 -17   1    7.50    2.90
   7  17  -1   14.80    5.70
   7 -17   1    3.60    5.50
  -7 -17  -1    6.50    3.40
  -7 -17   1    4.90    3.20
   7  17   1    3.60    5.00
  -9 -17  -1    3.70    3.20
   9  17  -1    3.70    5.30
   9  17   1    1.40    4.40
  -9 -17   1    1.20    3.00
  11  17  -1    0.10    5.30
 -11 -17  -1    1.60    3.00
 -11 -17   1    1.80    3.20
  11  17   1    4.70    4.90
   1 -19   1    0.60    3.50
  -1 -19  -1   -6.00    3.30
  -1 -19   1   -4.70    3.00
   1 -19  -1    3.40    4.30
  -3 -19  -1    2.30    3.10
   3 -19   1    3.90    4.80
   3 -19  -1    5.80    5.70
   3  19   1   -4.00    8.80
  -3 -19   1    3.50    3.10
   5 -19   1   10.60    5.90
  -5 -19  -1    4.80    2.80
   5  19   1    6.60    7.20
  -5 -19   1    3.50    2.80
  -7 -19  -1    4.60    3.00
  -7 -19   1   -0.10    2.50
   7  19   1    2.40    6.80
   0   0   2 3403.26  138.99
   0   0  -2 3437.66  139.49
   2   0  -2  379.86   16.70
  -2   0   2  396.96   16.10
   2   0   2  400.46   16.20
  -2   0   2  415.56   16.30
   2   0  -2  425.36   16.30
  -2   0  -2  379.46   17.90
   2   0   2  398.86   16.50
   4   0  -2 2558.14  104.99
   4   0   2 2686.43  106.79
   4   0   2 2710.53  104.49
   4   0  -2 2594.64  104.89
  -4   0   2 2744.53  104.99
  -4   0  -2 2529.45  106.59
  -4   0   2 2714.13  104.59
   4   0   2 2526.85  104.79
   6   0   2  152.58    8.10
   6   0   2  168.58    7.50
  -6   0   2  158.58    7.80
   6   0  -2  162.58    8.00
  -6   0  -2  158.28    9.90
   6   0  -2  157.48    8.50
   6   0   2  159.08    9.90
  -6   0   2  156.18    8.30
   8   0   2 1177.28   51.09
   8   0  -2 1278.87   50.79
   8   0   2 1249.47   50.29
  -8   0  -2 1266.37   53.59
   8   0  -2 1250.47   51.99
  -8   0   2 1295.77   51.39
   8   0   2 1210.48   53.49
  -8   0   2 1191.48   51.89
 -10   0   2   70.69    6.60
 -10   0  -2   69.69    7.00
  10   0   2   75.09    5.00
 -10   0   2   74.79    6.80
  10   0   2   75.09    8.00
 -10   0  -2   74.19    8.40
  10   0  -2   70.59    5.20
 -12   0   2  519.45   23.80
  12   0  -2  541.15   22.70
 -12   0   2  498.85   24.80
 -12   0  -2  507.75   26.20
  12   0   2  517.75   22.30
 -12   0  -2  498.55   24.70
  12   0  -2  458.25   25.20
  14   0   2   10.70    2.90
 -14   0  -2   11.90    6.10
 -14   0   2   22.10    5.70
  14   0  -2   14.40    3.30
  16   0  -2  172.18   10.20
  16   0   2  170.88   10.10
 -16   0  -2  191.68   13.70
  18   0   2    2.60    2.80
 -18   0  -2    2.90    5.50
  18   0  -2    8.60    3.60
  20   0  -2   60.69    6.60
  20   0   2   57.29    6.70
 -20   0  -2   91.89   11.80
   0   2  -2  330.47   13.50
   0  -2  -2  335.17   13.20
   0   2   2  315.67   13.70
   0   2   2  315.67   13.20
   0  -2   2  316.87   13.30
   0  -2  -2  308.07   13.50
   0  -2   2  319.47   13.50
   2  -2   2  876.61   37.50
   2   2  -2  976.30   37.90
  -2  -2  -2  937.81   38.00
   2   2  -2  940.21   37.20
   2  -2   2  960.00   37.90
  -2  -2  -2  941.51   38.50
   2  -2   2  895.21   37.00
   2   2   2  906.21   37.30
   2  -2  -2  871.61   37.60
   2   2   2  974.70   38.70
  -2  -2   2  976.10   37.40
  -2   2  -2  916.91   37.80
  -2  -2   2  934.61   37.70
   4   2  -2  700.13   30.10
   4   2  -2  740.03   29.30
  -4  -2  -2  716.23   31.00
  -4   2   2  686.63   29.70
   4  -2   2  770.12   29.10
   4  -2   2  725.73   29.50
  -4  -2  -2  688.63   30.20
   4   2   2  715.83   31.20
  -4  -2   2  706.43   29.90
  -4  -2   2  739.13   29.50
  -4   2  -2  702.93   31.90
   4   2   2  726.03   29.20
  -4   2  -2  728.23   29.80
   4  -2  -2  709.93   30.10
   6  -2   2   16.60    2.30
  -6  -2  -2   16.50    3.60
   6   2  -2   15.30    2.80
  -6   2   2   15.50    2.60
   6   2  -2   14.10    2.10
  -6  -2  -2   16.60    3.20
   6   2   2   22.40    4.10
  -6   2  -2    8.70    3.20
  -6  -2   2   16.70    2.50
   6  -2  -2   13.90    2.50
  -6   2  -2   18.50    2.80
  -6  -2   2   16.00    2.80
   6  -2  -2   18.10    3.00
   6   2   2   15.50    2.10
   8  -2   2 1093.09   44.00
  -8  -2  -2 1069.39   46.30
   8   2  -2 1059.59   45.30
   8   2  -2 1080.79   43.60
   8  -2   2 1044.40   43.40
  -8   2   2 1043.00   44.70
  -8  -2  -2 1046.70   45.20
   8  -2  -2 1052.49   45.10
  -8  -2   2 1086.59   44.30
  -8   2  -2 1018.10   46.60
   8   2   2 1036.80   46.50
   8  -2  -2 1052.99   43.90
   8   2   2 1076.19   43.40
  -8  -2   2 1102.69   45.30
  10  -2   2   55.79    4.50
 -10   2   2   52.69    7.00
 -10  -2  -2   67.39    8.00
  10   2  -2   56.39    6.30
  10  -2   2   52.79    5.10
 -10  -2  -2   66.49    6.30
  10   2  -2   58.89    4.50
 -10   2   2   61.59    6.40
  10   2   2   59.09    4.30
  10  -2  -2   62.69    4.80
 -10   2  -2   60.99    7.90
 -10  -2   2   63.49    6.50
 -10  -2   2   67.09    5.60
  12   2  -2  536.45   24.40
 -12   2   2  554.04   25.80
 -12   2   2  547.65   27.00
  12  -2   2  559.84   25.40
 -12  -2  -2  556.94   28.00
  12  -2   2  575.34   24.40
 -12  -2  -2  584.94   26.90
 -12   2  -2  537.25   28.10
 -12  -2   2  563.64   26.80
  12  -2  -2  550.74   24.70
  12   2   2  551.04   24.20
  12  -2  -2  540.35   27.50
 -14   2   2   22.40    5.80
 -14  -2  -2   28.40    5.90
  14  -2   2   21.20    4.50
  14   2  -2   29.60    4.70
 -14  -2   2   24.70    5.90
  14   2   2   27.30    4.20
  14  -2  -2   22.10    4.20
 -14   2  -2    8.20    6.40
 -16  -2  -2  169.88   12.90
  16  -2   2  184.08   10.60
  16   2  -2  159.08    9.80
 -16  -2   2  151.58   12.50
  16  -2  -2  172.18   10.20
 -16   2  -2  179.08   13.60
  16   2   2  175.58   10.10
  18  -2   2    3.10    3.00
 -18  -2  -2    5.00    5.10
  18   2  -2    5.00    3.10
 -18   2  -2    1.80    6.50
  18   2   2    2.30    3.00
 -18  -2   2    6.60    5.90
  18  -2  -2   10.20    3.70
  20  -2   2   49.90    6.70
 -20  -2  -2   46.30    8.30
  20  -2  -2   51.89    6.40
  20   2   2   33.40    5.20
 -20  -2   2   62.49    9.60
 -20   2  -2   75.89   11.90
   0   4   2 2234.78   95.49
   0  -4   2 2459.55   95.39
   0  -4   2 2231.28   94.99
   0   4   2 2363.26   94.99
   0  -4  -2 2462.35   95.19
   0  -4  -2 2586.04   94.89
   0   4  -2 2384.26   95.49
   2  -4   2  705.33   29.00
   2  -4   2  748.23   28.60
  -2   4   2  724.53   28.30
  -2  -4  -2  740.13   28.90
  -2  -4  -2  649.83   29.20
   2   4  -2  689.23   29.10
   2  -4   2  636.34   28.10
  -2   4   2  690.13   29.00
   2   4  -2  673.33   28.00
   2  -4  -2  692.93   28.00
   2   4   2  696.83   28.30
   2   4   2  682.03   29.70
  -2  -4   2  736.43   28.50
  -2   4  -2  696.33   28.90
  -2  -4   2  697.43   28.90
   2  -4  -2  682.23   27.80
   4   4  -2 1403.16   65.69
   4  -4   2 1735.03   66.79
   4  -4   2 1768.62   66.29
  -4  -4  -2 1634.74   67.69
   4  -4   2 1755.72   65.89
  -4  -4  -2 1584.54   66.99
   4   4  -2 1588.44   67.29
  -4  -4   2 1620.04   66.89
   4   4   2 1657.33   65.99
   4  -4  -2 1705.53   65.39
  -4   4  -2 1720.63   66.69
  -4  -4   2 1618.04   66.39
   4   4   2 1631.14   68.09
  -6  -4  -2  195.98   11.40
   6   4  -2  223.78   11.90
  -6   4   2  226.28   11.30
   6  -4   2  228.08   10.70
   6   4  -2  221.58   10.30
  -6  -4  -2  222.18   12.40
  -6   4  -2  238.68   14.00
  -6  -4   2  234.88   11.00
   6  -4  -2  260.17   11.70
   6   4   2  239.78   10.60
  -6  -4   2  217.98   11.60
   6   4   2  246.58   13.20
   8  -4   2  734.43   31.30
  -8  -4  -2  723.73   33.50
   8   4  -2  778.62   31.00
  -8  -4  -2  732.83   32.70
  -8   4   2  712.33   32.20
   8  -4   2  778.82   31.30
   8   4   2  691.43   33.90
  -8  -4   2  749.23   32.70
  -8   4  -2  766.72   34.90
   8  -4  -2  758.62   30.90
  -8  -4   2  702.73   31.70
   8  -4  -2  784.92   31.90
   8   4   2  748.13   31.10
  10   4  -2   79.69    5.50
 -10   4   2   83.59    7.80
 -10  -4  -2   91.69    8.60
  10  -4   2   92.89    5.90
  10   4  -2   87.09    8.00
  10  -4   2   83.59    6.20
 -10   4   2   86.59    7.10
 -10  -4  -2   87.99    7.40
 -10  -4   2   80.29    6.40
 -10  -4   2   90.69    7.50
 -10   4  -2   91.89    9.60
  10  -4  -2   77.29    5.90
  10   4   2   85.29    5.50
  12  -4   2  315.47   14.80
 -12  -4  -2  284.87   17.60
 -12   4   2  311.27   17.70
 -12  -4  -2  302.27   16.60
  12   4  -2  299.07   14.50
  12  -4  -2  330.67   15.00
 -12  -4   2  284.37   16.70
 -12   4  -2  312.07   18.90
  12   4   2  304.17   14.50
  14  -4   2   23.70    4.50
 -14   4   2   36.80    8.20
  14   4  -2   26.70    4.40
 -14  -4  -2   31.60    6.10
  14   4   2   35.20    4.40
 -14   4  -2   31.00    7.60
 -14  -4   2   16.20    5.00
  14  -4  -2   41.80    5.50
 -16  -4  -2  109.79    9.90
  16  -4   2  103.19    8.20
  16   4  -2  114.89    7.80
  16   4   2  120.49    8.00
  16  -4  -2  122.09    8.00
 -16  -4   2  105.59    9.60
 -16   4  -2  125.19   12.00
  18  -4   2    8.90    3.70
  18   4  -2   11.80    3.50
 -18  -4  -2    2.40    4.70
  18  -4  -2   10.30    3.50
 -18   4  -2    9.30    7.00
 -18  -4   2    4.80    5.00
  18   4   2    9.80    3.40
  20   4  -2   26.80    4.80
 -20  -4  -2   27.10    6.60
  20  -4   2   35.00    5.30
  20  -4  -2   34.60    5.30
  20   4   2   21.30    4.30
 -20  -4   2   51.59    8.60
   0  -6   2   56.19    3.90
   0   6  -2   47.30    3.70
   0  -6  -2   47.90    3.60
   0  -6   2   55.59    3.40
   0  -6  -2   41.60    3.00
   0   6   2   41.30    3.80
  -2   6   2   33.70    3.40
  -2   6   2   35.90    3.20
   2   6  -2   34.00    2.40
   2  -6   2   33.20    2.90
  -2  -6  -2   40.00    3.70
  -2  -6  -2   27.90    2.80
   2  -6   2   34.30    3.30
   2   6  -2   34.50    3.50
  -2   6  -2   35.50    3.20
   2   6   2   32.80    2.60
   2   6   2   32.00    4.00
   2  -6  -2   33.30    2.60
  -2  -6   2   28.90    2.60
  -2  -6   2   38.30    3.40
   4   6  -2  168.38    9.60
   4  -6   2  179.88    8.90
  -4  -6  -2  137.39    8.50
   4   6  -2  150.08    7.70
  -4  -6  -2  153.68    9.40
   4  -6   2  182.58    8.40
  -4  -6   2  172.18    8.50
   4  -6  -2  170.78    7.90
   4   6   2  175.58    8.10
   4  -6  -2  186.18    9.00
   4   6   2  157.08    9.90
  -4  -6   2  178.88    9.10
   6  -6   2  163.48    8.60
  -6  -6  -2  168.18    9.90
  -6  -6  -2  160.38    9.00
  -6   6   2  152.88    9.50
   6  -6   2  167.48    8.40
   6  -6   2  152.78    8.80
   6   6  -2  162.18    7.90
   6   6  -2  158.38   10.10
   6  -6  -2  161.98    9.20
  -6  -6   2  162.28    8.40
  -6  -6   2  167.88    9.40
   6   6   2  152.68    7.90
   8   6  -2  389.06   16.80
  -8  -6  -2  372.46   19.10
   8  -6   2  379.06   17.00
  -8  -6  -2  366.46   18.20
  -8   6   2  381.66   18.60
  -8  -6   2  374.36   17.50
  -8  -6   2  369.66   18.40
   8   6   2  385.96   16.80
   8  -6  -2  378.86   17.80
  -8   6  -2  375.56   24.00
  10   6  -2  206.88   10.30
 -10  -6  -2  201.88   12.80
 -10   6   2  198.08   12.50
 -10  -6  -2  206.48   11.80
 -10   6  -2  207.58   14.70
  10  -6  -2  178.58   10.80
 -10  -6   2  210.38   12.00
 -10  -6   2  192.38   10.80
  10   6   2  199.68   10.20
 -12   6   2  203.48   14.20
 -12  -6  -2  191.18   12.20
  12   6  -2  221.78   11.00
  12   6   2  187.28   11.40
  12  -6  -2  210.28   11.20
 -12   6  -2  224.38   15.80
 -12  -6   2  200.18   12.80
 -12  -6   2  201.98   11.70
 -14  -6  -2   67.09    7.90
  14  -6   2   63.19    6.50
  14   6  -2   70.79    6.00
  14   6   2   66.99    6.00
 -14  -6   2   62.69    6.90
 -14   6  -2  102.09   13.40
  14  -6  -2   78.29    6.30
  16   6  -2   65.79    6.50
  16  -6   2   61.09    6.70
 -16  -6  -2   67.49    8.20
  16   6   2   64.39    6.10
 -16   6  -2   75.29   10.80
  16  -6  -2   65.99    6.30
 -16  -6   2   57.89    8.00
 -18  -6  -2   25.70    6.60
  18   6  -2   18.80    4.20
  18  -6   2   17.60    4.50
  18   6   2   10.40    3.30
 -18  -6   2   10.70    5.50
  18  -6  -2   19.90    4.80
   0  -8  -2  992.10   42.30
   0  -8   2 1087.59   42.30
   0  -8   2 1067.19   42.80
   0  -8  -2  990.30   41.90
   0   8   2 1007.00   42.20
   2   8  -2  980.00   40.90
  -2   8   2 1013.00   42.20
  -2  -8  -2  999.20   42.40
   2  -8   2 1035.00   41.80
  -2  -8  -2 1121.99   41.80
   2  -8   2  946.61   41.90
   2   8   2 1003.70   41.50
  -2  -8   2 1043.60   42.50
   2  -8  -2 1046.50   41.10
  -2   8  -2  982.20   42.40
   2  -8  -2  966.50   41.50
  -2  -8   2 1023.80   41.80
  -4  -8  -2  647.54   27.40
   4   8  -2  606.94   26.10
   4  -8   2  668.63   26.90
   4   8  -2  605.34   28.50
  -4  -8  -2  618.24   27.90
   4  -8   2  662.83   27.40
  -4   8  -2  626.64   27.40
   4  -8  -2  729.53   27.60
  -4  -8   2  627.34   27.00
  -4  -8   2  601.34   27.40
   4   8   2  576.54   28.90
   4   8   2  614.64   26.50
   4  -8  -2  625.04   26.50
   6  -8   2  398.46   17.80
  -6  -8  -2  402.36   18.60
   6   8  -2  400.56   17.30
  -6  -8  -2  412.46   19.50
   6  -8   2  396.96   18.50
   6  -8  -2  384.56   17.50
  -6  -8   2  399.26   18.80
  -6  -8   2  412.26   18.20
   6   8   2  385.86   17.50
   6  -8  -2  375.36   18.80
  -8   8   2  254.17   14.30
  -8   8   2  256.57   13.60
  -8  -8  -2  253.27   14.20
   8  -8   2  242.18   12.10
   8  -8   2  228.38   11.90
  -8  -8  -2  204.98   12.50
  -8  -8   2  228.08   12.20
  -8  -8   2  240.98   13.20
   8   8   2  253.47   11.70
 -10   8   2  146.59   11.70
  10   8  -2  135.89    7.80
 -10  -8  -2  123.69   10.30
 -10  -8  -2  127.39    8.90
 -10  -8   2  117.39    7.90
 -10   8  -2  130.59   13.00
  10   8   2  129.99    7.50
  10  -8  -2  129.89    8.40
 -10  -8   2  125.29    9.40
 -12  -8  -2   78.99    7.40
  12   8  -2   70.79    6.30
 -12   8  -2   95.89   13.00
  12   8   2   83.69    6.20
 -12  -8   2   78.69    7.00
  14   8  -2   57.29    6.10
 -14  -8  -2   64.09    7.40
  14  -8   2   65.69    6.40
  14  -8  -2   70.79    6.50
 -14  -8   2   45.00    6.20
  14   8   2   58.29    5.70
  16   8  -2   38.00    5.40
 -16  -8  -2   29.70    5.80
  16  -8   2   37.10    5.70
  16  -8  -2   31.50    5.10
 -16  -8   2   18.50    5.00
  16   8   2   35.00    5.20
 -18  -8  -2   24.50    5.70
  18   8  -2   33.40    5.90
  18  -8   2   21.50    4.70
  18   8   2   20.30    4.70
 -18  -8   2   17.10    5.50
  18  -8  -2   22.10    5.00
   0 -10   2   14.60    2.80
   0  10  -2   12.60    3.50
   0 -10  -2   12.70    2.50
   0 -10  -2   14.20    2.30
   0  10   2   16.00    2.80
   0 -10   2   17.50    2.70
  -2 -10  -2   44.40    4.00
   2 -10   2   56.99    4.40
   2  10  -2   42.40    3.70
   2 -10   2   48.70    5.00
  -2 -10  -2   49.50    4.80
  -2  10   2   51.39    5.40
   2 -10   2   49.99    4.70
  -2 -10   2   47.50    4.00
  -2 -10   2   53.09    4.90
   2  10   2   51.19    4.60
   2 -10  -2   48.60    4.20
  -4 -10  -2   44.20    4.80
   4 -10   2   43.60    4.20
   4 -10   2   50.39    5.00
   4 -10   2   48.20    5.30
  -4 -10  -2   32.10    3.90
   4  10   2   37.80    4.00
   4 -10  -2   53.39    5.80
   4 -10  -2   43.50    4.40
  -4 -10   2   48.60    4.30
  -4 -10   2   45.50    4.90
   4  10   2   34.00    5.90
   6 -10   2  193.98   11.00
   6 -10   2  199.08   10.50
  -6 -10  -2  185.68   11.20
   6 -10   2  196.58   10.60
  -6 -10  -2  184.88   10.30
  -6 -10   2  194.58   11.20
   6 -10  -2  200.48   11.40
   6  10   2  183.58    9.70
  -6 -10   2  184.78   10.10
   6 -10  -2  191.78   10.40
   8 -10   2  129.49    8.40
  -8  10   2  130.59   12.20
   8 -10   2  122.89    8.80
  -8 -10  -2  118.69    9.40
  -8 -10  -2  123.29    8.20
   8 -10  -2  116.69    9.60
   8  10   2  123.99    7.30
  -8 -10   2  113.09    8.90
  -8 -10   2  137.99    8.20
  10  10  -2  167.18    9.90
 -10 -10  -2  176.68   11.10
 -10  10  -2  203.48   17.20
 -10 -10   2  187.58   10.80
  10 -10  -2  178.98   14.20
  10  10   2  185.08   10.50
 -12 -10  -2   67.79    6.80
  12  10  -2   71.49    6.40
 -12 -10   2   75.09    6.80
  12 -10  -2   76.89    6.90
  12  10   2   63.59    6.00
 -14 -10  -2   74.49    7.40
  14  10  -2   61.39    6.50
  14 -10   2   65.69    7.40
 -14 -10   2   71.89    7.20
  14 -10  -2   74.99    7.10
  14  10   2   62.09    6.10
 -16 -10  -2   12.70    4.20
  16  10  -2   16.30    4.00
  16 -10   2   13.10    4.70
 -16 -10   2   15.00    4.90
  16  10   2   21.10    4.20
  16 -10  -2   11.40    3.90
 -18 -10  -2   10.30    4.40
  18 -10   2   29.20    5.80
  18  10  -2    9.20    3.90
  18 -10  -2   20.20    4.80
  18  10   2   23.60    4.80
 -18 -10   2   15.10    5.20
   0 -12  -2  387.56   19.40
   0 -12   2  396.06   18.90
   0 -12   2  399.06   18.30
   0 -12  -2  399.76   18.60
   0  12   2  425.06   18.70
  -2 -12  -2  499.55   21.90
   2 -12   2  522.15   22.40
  -2 -12  -2  484.55   22.50
   2 -12   2  483.95   22.60
  -2  12   2  494.95   23.60
  -2 -12   2  508.35   22.10
   2  12   2  494.85   22.10
   2 -12  -2  478.15   22.20
  -2 -12   2  508.05   22.90
  -4 -12  -2  240.58   12.10
   4 -12   2  234.78   13.10
   4 -12   2  239.78   12.30
  -4 -12  -2  266.27   13.10
   4  12   2  254.17   12.10
   4 -12  -2  228.48   12.60
   4 -12  -2  214.88   14.30
  -4 -12   2  243.08   12.30
  -4 -12   2  228.58   13.10
  -6 -12  -2  190.28   11.90
  -6 -12  -2  194.68   10.70
   6 -12   2  194.98   11.70
   6  12   2  200.68   10.30
   6 -12  -2  208.08   11.40
  -6 -12   2  159.38   10.80
   8 -12   2   83.29    8.60
  -8 -12  -2   64.49    5.90
  -8 -12   2   50.59    5.40
  10  12  -2   62.89    6.70
 -10 -12  -2   58.69    6.30
  10 -12  -2   80.79    7.80
 -10 -12   2   73.49    6.50
  10  12   2   72.79    6.10
 -10  12  -2   66.19   13.40
 -12 -12  -2   18.20    4.10
  12  12  -2   26.40    4.50
  12  12   2   20.50    4.10
 -12 -12   2   19.70    4.00
  12 -12  -2   32.30    5.40
 -14 -12  -2   37.90    6.30
  14  12  -2   37.90    5.90
 -14 -12   2   31.40    5.90
  14 -12  -2   50.09    6.80
  14  12   2   25.30    4.80
  16 -12   2   18.10    5.70
 -16 -12  -2   14.00    4.70
  16  12  -2    9.40    4.00
 -16 -12   2   15.50    5.10
  16  12   2    8.20    4.00
  16 -12  -2   11.40    4.40
   0 -14   2    4.20    2.30
   0 -14  -2    1.30    3.70
   0 -14  -2    7.70    3.40
   0 -14   2    5.40    3.20
   2 -14   2   16.20    4.10
  -2 -14  -2   12.00    2.80
  -2 -14  -2   12.50    3.30
   2 -14   2   21.80    4.10
   2 -14  -2   20.90    4.40
  -2 -14   2   18.70    3.80
  -4 -14  -2   25.10    4.20
   4 -14   2   23.50    5.00
  -4 -14   2   23.10    4.20
   4 -14  -2   29.60    5.70
  -6 -14  -2   69.39    6.10
   6 -14   2   70.59    9.60
  -6 -14   2   69.39    6.10
   6  14   2   70.39    6.90
  -8 -14  -2   48.10    5.70
   8 -14  -2   65.59    8.80
  -8 -14   2   57.59    5.90
   8  14   2   66.69    6.60
 -10 -14  -2   59.89    6.40
  10  14  -2   64.69    7.50
 -10 -14   2   60.69    6.30
  10  14   2   64.19    6.50
  10 -14  -2   99.29   15.90
 -12 -14  -2   31.50    5.30
  12  14  -2   31.80    5.70
  12  14   2   38.60    5.80
  12 -14  -2   54.39    7.70
 -12 -14   2   30.70    5.00
  14  14  -2   26.70    6.20
 -14 -14  -2   25.90    5.60
  14 -14  -2   26.70    5.80
 -14 -14   2   14.70    4.30
  14  14   2   21.10    4.70
   0 -16   2  153.08    9.60
   0 -16  -2  159.28    9.50
   2 -16   2  149.39    9.50
  -2 -16  -2  137.79    8.60
  -2 -16   2  141.29    8.90
   2  16   2  147.19   11.00
  -4 -16  -2   86.49    6.90
   4 -16   2   95.09    8.10
  -4 -16   2   85.09    6.60
   4  16   2   90.79    8.00
  -6 -16  -2   47.20    5.40
   6 -16   2   55.29    7.00
   6 -16  -2   64.79    9.30
   6  16   2   64.59    7.30
  -6 -16   2   44.90    5.40
  -8 -16  -2   23.10    4.30
   8 -16   2   24.50    6.30
   8  16  -2   36.90    7.30
   8  16   2   31.00    5.40
  -8 -16   2   22.10    4.40
   8 -16  -2   36.20    8.10
 -10 -16  -2   17.10    4.10
  10  16  -2   15.10    6.50
  10  16   2   21.40    5.20
  10 -16  -2   23.60    6.40
 -10 -16   2   17.10    3.80
 -12 -16  -2   21.40    4.80
  12  16  -2   18.50    6.00
  12  16   2   15.90    5.30
  12 -16  -2   15.20    6.10
 -12 -16   2    9.80    4.10
   0 -18  -2   -0.60    3.40
   0 -18   2    7.30    3.30
   0  18   2    3.80    7.20
   2 -18   2    5.40    4.10
  -2 -18  -2   -0.80    2.80
   2  18   2    1.80    6.10
  -2 -18   2    4.00    3.10
   2 -18  -2    9.30    4.80
   2 -18  -2   -9.20    9.10
   4 -18   2   15.10    5.20
  -4 -18  -2    7.00    3.50
  -4 -18   2    8.30    3.60
   4  18   2   14.00    5.90
   6 -18   2   30.20    6.80
  -6 -18  -2    9.30    3.20
  -6 -18   2   19.40    3.90
   6  18   2   15.10    5.60
   6 -18  -2   10.60    9.30
  -8 -18  -2   19.50    4.40
   8  18   2   20.80    6.20
  -8 -18   2   24.00    4.60
 -10 -18  -2   17.30    4.50
  10  18   2   31.20    6.90
 -10 -18   2   14.80    4.00
   0 -20  -2   57.39    7.90
   0 -20   2   43.70    6.10
   2 -20   2   50.59    7.00
  -2 -20  -2   33.70    5.40
  -2 -20   2   49.00    6.50
   4 -20   2   40.20    7.70
  -4 -20  -2   26.10    4.90
  -4 -20   2   18.00    4.20
   1   1  -3   78.69    4.10
  -1   1   3   86.69    4.40
  -1  -1  -3   74.19    5.20
   1  -1  -3   84.29    3.90
  -1  -1   3   92.89    4.40
   1   1   3   87.59    4.00
   1   1   3   81.19    5.60
   3  -1   3  291.97   12.10
   3  -1   3  282.17   11.50
  -3  -1  -3  266.37   13.70
   3   1  -3  277.17   12.10
   3   1  -3  281.17   12.00
   3   1   3  276.27   13.90
  -3  -1   3  286.37   11.70
  -3  -1   3  279.27   12.00
  -3   1  -3  282.77   12.40
   3  -1  -3  266.47   12.60
   3   1   3  290.07   11.70
  -3   1  -3  267.77   14.50
   3   1   3  262.57   12.10
  -5  -1  -3  192.38   11.20
   5   1  -3  211.48    9.60
  -5   1   3  204.68    8.90
   5   1  -3  182.18    9.00
   5   1   3  201.88   11.30
   5   1   3  169.88    9.30
  -5   1  -3  199.78   11.90
  -5  -1   3  202.28    8.90
   5  -1  -3  199.18    9.70
  -5   1  -3  194.68    9.50
   5   1   3  179.28    9.00
   5  -1  -3  200.98    9.20
  -5  -1   3  200.08    9.40
   7   1  -3  149.49    7.80
  -7   1   3  157.68    8.30
  -7  -1  -3  145.19   10.20
   7   1  -3  144.39    8.60
   7  -1   3  154.58    8.10
   7  -1   3  169.68    7.50
   7   1   3  152.28    8.30
  -7   1  -3  151.48   10.90
   7   1   3  156.88    7.50
   7  -1  -3  150.68    8.20
  -7  -1   3  153.38    8.50
   7   1   3  152.78   10.40
   9  -1   3   38.90    3.60
  -9   1   3   40.10    4.70
  -9  -1  -3   43.70    6.80
   9  -1   3   37.40    4.50
   9   1  -3   38.00    3.80
   9   1   3   38.90    3.50
  -9  -1   3   48.20    4.30
  -9   1  -3   48.20    7.20
  -9  -1   3   40.20    5.00
   9  -1  -3   40.50    3.90
 -11   1   3   21.30    4.20
  11  -1   3   21.70    4.00
 -11   1   3   14.10    4.10
 -11  -1  -3   14.30    4.40
  11  -1   3   13.50    2.60
  11   1  -3   15.50    2.80
 -11  -1  -3   20.30    5.10
  11  -1  -3   24.60    3.90
 -11  -1   3   13.50    3.70
  11   1   3   16.80    2.80
 -11   1  -3   13.60    4.90
  13  -1   3    4.60    2.30
 -13   1   3    2.30    4.10
  13   1  -3    4.00    2.50
 -13  -1  -3    3.30    4.60
 -13  -1  -3    6.70    4.20
 -13   1  -3   11.90    5.10
  13  -1  -3   10.90    2.90
 -13  -1   3    6.80    4.00
 -13   1  -3   10.00    4.80
  13   1   3   12.30    2.90
 -15   1   3   -2.40    5.70
  15  -1   3   -0.20    2.50
  15   1  -3    8.90    3.00
 -15  -1  -3    6.80    5.10
 -15   1  -3   11.30    5.60
  15  -1  -3    4.50    2.70
 -15  -1   3    2.60    4.80
  15   1   3    5.90    2.90
  17  -1   3    2.70    2.80
  17   1  -3    7.50    3.50
 -17  -1  -3    2.90    4.70
  17   1   3    6.10    3.00
 -17  -1   3    4.80    6.20
  17  -1  -3    6.50    3.20
 -17   1  -3   -1.00    5.20
  19   1  -3    0.10    3.00
 -19  -1  -3    5.30    5.40
  19  -1   3    5.10    3.50
 -19   1  -3    4.70    6.30
  19   1   3    2.80    3.40
  19  -1  -3    3.20    3.30
   1  -3   3  341.77   14.10
  -1  -3  -3  318.07   14.20
   1  -3   3  325.07   14.50
   1   3  -3  315.27   14.30
  -1   3   3  336.37   14.20
  -1   3   3  319.87   14.10
  -1  -3  -3  331.77   14.70
  -1  -3   3  325.57   14.00
  -1  -3   3  329.07   14.30
   1   3   3  325.27   15.00
   1   3   3  321.27   13.80
  -1   3  -3  335.67   14.40
   1  -3  -3  361.56   13.80
   1  -3  -3  333.27   13.50
  -3  -3  -3    0.90    1.70
  -3  -3  -3   -1.80    1.30
   3  -3   3   -0.70    1.20
   3  -3   3    0.40    0.60
   3   3  -3    0.00    1.20
   3   3  -3    1.60    0.80
   3  -3   3    0.40    1.10
   3   3   3   -0.60    1.50
   3   3   3    0.10    0.90
  -3  -3   3    0.10    0.90
  -3  -3   3    0.60    1.00
   3  -3  -3    0.90    1.50
  -3   3  -3    1.40    1.50
   5  -3   3  549.74   22.40
  -5  -3  -3  529.35   24.00
   5   3  -3  534.55   23.10
   5  -3   3  536.85   21.50
  -5  -3  -3  558.04   23.30
   5   3  -3  468.55   21.70
   5   3   3  528.05   24.40
   5  -3  -3  508.95   22.90
  -5   3  -3  521.75   25.60
   5   3   3  499.35   21.80
  -5  -3   3  520.55   22.60
  -5   3  -3  520.75   22.50
  -7  -3  -3    0.10    2.20
   7  -3   3    0.80    1.20
   7   3  -3   -1.40    1.30
  -7  -3  -3   -0.30    2.00
  -7   3   3    1.50    1.60
   7  -3   3    1.60    1.60
  -7  -3   3    0.10    1.70
   7  -3  -3   -0.20    1.80
  -7   3  -3    0.60    1.80
  -7  -3   3   -0.40    1.50
   7   3   3    1.10    1.30
  -7   3  -3    3.50    3.80
   7   3   3    2.40    2.30
   9  -3   3  149.88    7.60
  -9   3   3  138.19    8.70
   9  -3   3  142.29    8.10
   9   3  -3  127.29    9.60
  -9  -3  -3  151.38   10.80
   9   3  -3  127.89    7.40
  -9   3   3  141.89   10.50
  -9  -3  -3  149.19    9.40
  -9  -3   3  133.19    8.00
   9   3   3  135.19   10.50
  -9  -3   3  135.19    8.90
  -9   3  -3  129.09   11.10
   9   3   3  149.49    7.60
   9  -3  -3  138.89    8.30
 -11  -3  -3   30.90    5.30
  11   3  -3   24.70    3.40
 -11  -3  -3   29.40    6.00
  11  -3   3   25.30    4.20
 -11   3   3   26.80    4.90
 -11  -3   3   24.00    4.30
 -11  -3   3   30.10    5.10
 -11   3  -3   17.10    5.20
  11  -3  -3   28.20    4.20
  11   3   3   20.10    3.00
 -13  -3  -3   18.00    4.90
  13  -3   3   27.50    4.30
 -13   3   3   21.70    5.60
 -13  -3  -3   23.30    6.70
  13  -3   3   19.10    4.40
  13   3  -3   20.10    4.10
 -13   3  -3    8.00    5.40
 -13  -3   3   21.90    5.40
 -15  -3  -3   18.50    5.80
  15  -3   3   15.00    3.60
  15   3  -3   25.10    4.50
  15  -3  -3   22.90    4.20
 -15   3  -3   27.80   11.60
  15   3   3   21.70    4.30
  17  -3   3   13.40    4.00
  17   3  -3    8.00    3.60
 -17  -3  -3    6.90    5.10
 -17  -3   3    7.30    5.20
  17  -3  -3    3.70    3.20
  17   3   3    2.70    3.00
 -17   3  -3    3.50    5.90
  19  -3   3    4.80    3.70
 -19  -3  -3   11.40    6.10
  19   3  -3    5.40    3.60
  19   3   3    1.50    2.80
 -19   3  -3   13.10    7.50
 -19  -3   3    2.70    5.90
  19  -3  -3    6.60    3.30
  -1  -5  -3   97.29    5.50
  -1  -5  -3   86.29    5.80
   1  -5   3   98.79    5.90
  -1   5   3  101.99    5.90
   1  -5   3  116.69    6.10
   1   5  -3  105.99    5.90
  -1  -5   3  111.29    5.50
   1   5   3   99.29    6.50
   1  -5  -3  101.09    5.20
  -1  -5   3  117.49    6.00
  -1   5  -3  105.69    5.90
   3   5  -3  453.85   19.30
   3   5  -3  436.16   17.80
  -3  -5  -3  407.26   19.70
   3  -5   3  454.15   18.70
   3  -5   3  437.46   19.10
  -3  -5  -3  428.66   19.10
  -3  -5   3  454.75   18.60
   3   5   3  423.86   18.30
   3   5   3  438.06   20.40
   3  -5  -3  401.36   18.80
  -3  -5   3  429.86   19.00
  -3   5  -3  423.06   18.90
  -5  -5  -3   68.19    5.90
  -5  -5  -3   55.89    5.00
   5  -5   3   67.49    4.90
   5   5  -3   47.20    4.90
   5   5   3   68.39    4.10
   5  -5  -3   76.19    5.30
  -5   5  -3   67.89    4.90
  -5  -5   3   56.99    4.70
   7   5  -3  276.17   12.30
   7  -5   3  285.37   12.50
   7  -5   3  267.07   12.80
  -7  -5  -3  273.17   14.00
  -7  -5  -3  290.57   15.10
  -7   5  -3  284.27   17.20
  -7  -5   3  272.27   13.80
   7  -5  -3  273.17   13.70
   7   5   3  269.87   15.50
  -7  -5   3  257.87   12.80
  -7   5  -3  263.67   13.20
   7   5   3  265.87   12.50
  -9  -5  -3   33.10    5.90
   9  -5   3   24.90    3.80
   9   5  -3   29.60    5.60
   9   5  -3   33.90    3.50
  -9  -5  -3   30.70    5.10
   9  -5  -3   33.00    4.10
  -9  -5   3   33.70    4.60
   9   5   3   30.30    3.50
  -9  -5   3   29.90    3.90
  11  -5   3   49.70    5.20
 -11  -5  -3   37.00    5.70
 -11  -5  -3   45.90    5.70
 -11   5   3   43.90    6.50
  11   5  -3   48.90    4.50
  11  -5  -3   52.99    5.00
 -11  -5   3   53.99    6.40
  11   5   3   50.69    4.60
 -11   5  -3   70.59   10.40
 -11  -5   3   50.69    5.20
  13   5  -3   27.50    4.00
 -13  -5  -3   27.20    5.80
  13   5   3   21.30    3.50
 -13  -5   3   37.90    6.60
 -13  -5   3   34.50    6.20
 -13   5  -3   23.50    7.30
  13  -5  -3   27.80    4.50
  15  -5   3   16.10    5.30
 -15  -5  -3    4.60    4.10
  15  -5   3   13.30    3.90
  15   5  -3   14.80    3.60
  15   5   3   13.20    3.20
 -15  -5   3   15.20    4.90
  15  -5  -3   14.10    3.70
  17   5  -3    9.00    3.30
  17  -5   3    6.20    3.60
 -17  -5  -3   17.70    6.00
  17  -5  -3   12.60    4.00
  17   5   3    9.60    3.10
 -17   5  -3   15.10    7.00
 -17  -5   3    9.50    4.80
  19   5  -3    6.10    3.60
  19  -5   3    3.90    3.70
 -19  -5  -3    1.80    5.30
  19   5   3    0.80    2.70
 -19   5  -3    7.80    8.30
  19  -5  -3    6.60    3.50
 -19  -5   3    9.50    5.70
  -1   7   3  185.88    9.70
  -1  -7  -3  195.58    9.10
  -1  -7  -3  189.58    8.50
   1   7  -3  177.28    9.40
  -1   7   3  164.58    8.80
   1  -7   3  162.68    9.10
   1  -7   3  183.58    8.80
  -1   7  -3  168.78    9.10
   1  -7  -3  208.48    8.60
  -1  -7   3  167.38    8.60
  -1  -7   3  152.88    8.90
   1   7   3  174.28   10.20
   1   7   3  160.58    8.50
   1  -7  -3  178.58    8.10
   3  -7   3    1.10    1.80
   3   7  -3    3.30    2.00
   3  -7   3    1.20    1.60
  -3  -7  -3   -0.10    1.60
  -3  -7  -3   -1.70    1.70
   3   7   3    0.70    1.30
  -3  -7   3    0.50    1.80
   3   7   3   -1.30    2.30
   3  -7  -3   -0.40    0.90
  -3  -7   3    1.60    1.50
  -3   7  -3   -0.80    1.50
   5  -7   3  299.77   14.00
   5   7  -3  281.67   15.10
   5   7  -3  301.17   13.20
  -5  -7  -3  357.86   15.90
  -5  -7  -3  293.07   14.70
  -5  -7   3  291.47   14.60
  -5   7  -3  315.07   14.30
  -5  -7   3  299.57   14.00
   5   7   3  302.27   13.80
   5  -7  -3  275.87   14.60
   7   7  -3    0.30    1.50
  -7  -7  -3   -0.90    2.10
   7  -7   3    1.00    2.30
  -7  -7  -3    1.20    2.40
   7  -7   3    2.20    2.30
   7   7   3    0.70    1.70
   7  -7  -3   -0.50    2.60
  -7  -7   3   -0.60    2.10
  -7  -7   3   -0.20    2.00
   9   7  -3   85.29    5.70
   9  -7   3   89.99    6.10
  -9  -7  -3   80.69    8.10
  -9  -7  -3   90.79    7.00
   9  -7   3   78.99    5.90
   9   7   3   87.59    5.50
  -9   7  -3   76.89   10.90
   9  -7  -3   81.19    6.60
  -9  -7   3   81.29    6.20
  -9  -7   3   88.29    7.20
  11   7  -3   14.90    3.30
 -11  -7  -3   11.70    3.60
 -11  -7   3   10.40    3.50
  11  -7  -3   18.50    4.00
 -11  -7   3   12.40    3.30
  11   7   3   20.60    3.50
 -11   7  -3   12.20    6.20
  13   7  -3   21.70    4.20
 -13  -7  -3   10.20    4.50
  13   7   3   12.60    3.20
 -13  -7   3   12.20    4.00
  13  -7  -3    8.70    3.50
 -13   7  -3   25.50    8.50
 -15  -7  -3   12.50    4.60
  15  -7   3   14.10    5.30
  15   7  -3   15.00    3.90
 -15  -7   3   14.50    4.40
  15  -7  -3   13.50    3.60
  15   7   3    8.10    2.70
 -17  -7  -3    4.70    3.90
  17   7  -3    0.80    3.10
  17  -7   3   -1.00    3.60
  17  -7  -3    5.40    3.50
 -17   7  -3   10.20    8.00
 -17  -7   3    2.10    4.40
  17   7   3    6.30    3.30
  19  -7   3    4.60    4.20
  19   7  -3    1.90    3.20
 -19  -7  -3    6.70    4.80
  19   7   3    0.80    2.50
  19  -7  -3    6.20    3.60
 -19  -7   3    2.20    5.30
   1  -9   3    8.10    2.50
   1  -9   3    7.10    2.10
  -1  -9  -3    2.40    1.50
  -1  -9  -3    5.00    2.00
  -1   9   3    8.30    2.30
   1  -9  -3    6.00    1.80
   1   9   3    7.80    2.20
  -1  -9   3    5.80    2.00
  -1   9  -3    6.20    2.70
   1  -9  -3    8.70    2.70
  -1  -9   3    4.70    1.70
   1   9   3    5.30    3.20
  -3  -9  -3  113.59    7.40
  -3  -9  -3  116.29    6.90
  -3   9   3  107.69    8.10
   3  -9   3  112.99    7.30
   3   9  -3  122.99    6.30
   3  -9   3  117.59    6.70
  -3   9   3  113.49    7.80
   3   9  -3   88.79    8.00
   3   9   3  112.29    6.50
  -3  -9   3  115.39    6.50
   3  -9  -3  107.79    6.20
  -3  -9   3  111.19    7.10
  -5  -9  -3   27.20    3.50
   5  -9   3   28.10    3.50
   5  -9   3   25.20    3.70
   5  -9   3   19.60    3.60
   5  -9  -3   30.10    3.80
   5   9   3   25.90    3.20
  -5  -9   3   20.70    4.00
  -5  -9   3   25.60    3.70
   5  -9  -3   27.60    4.20
   5   9   3   21.40    4.90
   7  -9   3   79.89    6.50
   7  -9   3   80.89    5.90
  -7  -9  -3   79.69    7.40
  -7  -9  -3   72.89    6.10
   7  -9   3   84.79    6.00
  -7  -9   3   81.39    6.80
   7  -9  -3   67.79    6.80
   7   9   3   75.79    5.40
  -7  -9   3   78.09    5.60
  -9  -9  -3    2.70    2.60
  -9  -9  -3    0.90    3.30
   9   9  -3    0.80    2.30
   9  -9   3    1.20    2.90
  -9  -9   3   -0.60    2.60
  -9  -9   3    1.30    2.20
  -9   9  -3   -1.60    5.20
   9  -9  -3    0.60    2.80
   9   9   3    2.50    2.10
  11   9  -3   11.40    3.40
 -11  -9  -3   13.80    3.80
 -11  -9   3   10.40    3.90
  11   9   3    8.50    2.90
 -11   9  -3   11.90    7.50
  13   9  -3    4.80    3.30
 -13  -9  -3   -1.10    3.60
  13  -9  -3    7.50    3.40
 -13  -9   3    1.10    3.30
  13   9   3    7.50    3.10
 -13   9  -3   -0.90    9.80
  15   9  -3    0.50    3.20
 -15  -9  -3    0.40    3.60
  15  -9   3   -6.30    5.30
  15  -9   3    7.50    3.80
  15  -9  -3    3.50    3.00
  15   9   3    1.30    3.30
 -15  -9   3   -0.50    3.30
 -17  -9  -3    3.60    4.40
  17  -9   3   -4.90    3.70
  17   9  -3    6.20    4.10
  17   9   3    3.10    3.20
  17  -9  -3    2.10    3.40
 -17  -9   3   -0.60    4.50
   1 -11   3    9.60    2.40
  -1 -11  -3   19.60    3.60
  -1  11   3   15.30    3.70
   1 -11   3   11.10    2.80
  -1 -11  -3   11.10    2.60
   1 -11  -3   11.30    2.70
   1  11   3   13.90    3.00
  -1 -11   3   18.20    3.20
  -1 -11   3   14.20    3.30
  -3 -11  -3   22.50    4.00
   3 -11   3   20.00    3.40
  -3 -11  -3   18.30    3.40
   3 -11   3   18.10    3.60
  -3 -11   3   26.50    3.90
   3 -11  -3   24.60    3.60
   3  11   3   21.00    3.70
  -3 -11   3   23.80    4.30
   5 -11   3   57.59    6.50
  -5 -11  -3   46.20    5.90
   5 -11   3   49.99    5.00
  -5 -11  -3   55.69    5.00
  -5 -11   3   46.90    6.00
   5  11   3   49.99    4.80
   5 -11  -3   43.20    5.70
   5 -11  -3   55.39    5.70
  -5 -11   3   53.39    4.80
  -7 -11  -3   16.10    3.90
   7 -11   3   15.30    3.90
  -7 -11  -3   23.90    5.60
  -7 -11   3   15.20    3.30
   7  11   3   12.30    2.80
   7 -11  -3   11.00    3.80
  -9 -11  -3   12.60    3.80
   9 -11  -3   13.30    4.00
   9  11   3    7.60    2.60
  -9 -11   3   12.30    3.60
 -11 -11  -3   -1.00    2.90
  11  11  -3    0.00    2.80
 -11 -11   3   -2.30    2.90
  11  11   3   -0.80    2.40
  11 -11  -3    2.80    3.40
 -11  11  -3   -0.30    7.70
 -13 -11  -3   -2.00    3.10
  13 -11   3    4.10    4.20
  13  11  -3   -0.40    3.60
 -13 -11   3   -7.40    2.60
  13 -11  -3   -0.40    3.40
  13  11   3    0.60    2.60
  15 -11   3   -6.80    5.00
 -15 -11  -3    3.50    3.50
  15  11  -3    3.30    3.80
  15 -11   3    3.20    6.20
  15  11   3    3.10    3.50
 -15 -11   3    3.30    3.60
  15 -11  -3    2.80    3.50
  17 -11   3   -1.60    4.80
 -17 -11  -3    2.30    3.80
  17  11  -3   -0.30    3.70
  17  11   3   -3.20    2.90
 -17 -11   3    6.30    4.20
  17 -11  -3   -1.20    3.40
   1 -13   3    1.10    3.00
  -1 -13  -3    4.50    2.40
   1 -13   3    6.80    2.50
  -1 -13   3    5.70    2.40
  -1 -13   3    5.30    2.90
   1  13   3   -0.10    2.60
   1 -13  -3    4.40    2.60
  -3 -13  -3   16.00    3.30
  -3 -13  -3   21.60    3.70
   3 -13   3   17.00    4.00
   3 -13   3   16.50    3.30
   3 -13  -3   19.30    4.00
  -3 -13   3   18.00    3.50
   3 -13  -3   25.20    5.50
   3  13   3   27.30    4.40
   5 -13   3   34.60    4.90
   5 -13   3   38.90    7.30
  -5 -13  -3   20.70    3.80
   5 -13  -3   28.90    5.60
   5  13   3   24.70    4.00
  -5 -13   3   21.60    3.70
  -7 -13  -3   17.60    4.20
   7 -13   3   13.80    5.00
  -7 -13   3   15.60    3.60
   7  13   3   21.70    4.40
  -9 -13  -3    3.60    3.20
   9  13   3    3.60    2.90
  -9 -13   3    3.30    2.80
   9 -13  -3    5.80    4.70
  11 -13   3   -2.50    3.80
 -11 -13  -3   -0.10    2.90
  11  13  -3   -1.90    3.70
  11  13   3    1.00    2.60
 -11 -13   3    1.30    3.00
  11 -13  -3    0.10    4.00
 -13 -13  -3    2.30    3.50
  13  13  -3    0.60    4.20
  13 -13   3   -5.70    5.30
 -13 -13   3    1.60    3.00
  13  13   3   -0.10    2.90
  13 -13  -3   -1.30    3.80
 -15 -13  -3    0.30    3.10
  15  13  -3   -3.50    4.20
  15 -13  -3   -2.30    3.80
  15  13   3   -2.10    2.90
 -15 -13   3    0.90    3.60
  -1 -15  -3    0.50    3.60
   1 -15   3    0.80    2.70
  -1 -15  -3    2.60    2.60
   1 -15  -3    0.70    3.30
  -1 -15   3    3.00    2.60
  -3 -15  -3   11.80    3.30
   3 -15   3   15.20    3.70
  -3 -15   3   15.80    3.60
   3  15   3   17.10    4.50
   3 -15  -3   19.60    8.30
   5 -15   3   17.50    4.70
  -5 -15  -3   12.60    3.60
  -5 -15   3   11.40    3.30
   5  15   3   11.50    3.90
   5 -15  -3   13.40    6.10
  -7 -15  -3    6.30    3.10
   7 -15   3   18.20    5.00
   7 -15  -3   19.00    7.60
  -7 -15   3   13.10    3.60
   7  15   3    6.80    3.50
   9  15  -3    7.30    4.90
  -9 -15  -3    3.60    3.20
   9 -15   3    4.10    4.70
   9 -15  -3    3.60    5.60
   9  15   3   -3.50    3.10
  -9 -15   3    4.20    3.00
 -11 -15  -3   -0.70    3.20
  11  15  -3   -6.20    4.80
  11 -15   3    4.90    5.50
  11 -15  -3    1.60    5.00
 -11 -15   3    0.50    2.80
  11  15   3    0.10    4.10
 -13 -15  -3   -2.10    3.50
  13  15  -3   -1.10    5.10
  13 -15  -3   -0.90    4.90
 -13 -15   3   -0.70    3.00
  13  15   3    3.00    3.80
  -1 -17  -3    2.20    2.90
   1 -17   3    2.00    3.10
  -1 -17   3   -2.30    2.70
   1 -17  -3   -6.30    3.20
   1  17   3    0.00    5.10
   3 -17   3    7.10    4.10
  -3 -17  -3    6.90    3.30
   3 -17  -3    5.60    6.20
  -3 -17   3    5.50    2.80
   3  17   3    7.80    5.00
  -5 -17  -3    8.90    3.50
   5 -17   3    7.30    4.60
   5  17   3   10.80    4.60
   5 -17  -3    0.20    6.30
  -5 -17   3    8.60    3.10
   7 -17   3   10.60    5.20
  -7 -17  -3    2.60    2.70
  -7 -17   3    5.60    3.00
   7  17   3    3.80    4.70
   7 -17  -3   15.30    7.70
   9 -17   3   -7.80    5.20
  -9 -17  -3    4.50    2.90
   9  17   3    5.60    4.30
  -9 -17   3    5.40    3.10
   9 -17  -3   -0.40    6.60
 -11 -17  -3   -1.20    3.10
 -11 -17   3   -3.40    2.80
  11  17   3    0.30    4.30
  11 -17  -3   -5.20    6.20
   1 -19   3   -1.10    3.40
  -1 -19  -3   -1.00    3.40
   1  19   3    1.50    7.20
  -1 -19   3    1.10    2.90
   1 -19  -3    6.60    7.80
   1 -19  -3   -0.60    4.90
   3 -19   3    5.50    4.30
  -3 -19  -3    0.50    3.20
   3 -19  -3   -7.60    7.70
   3  19   3    9.40    7.50
  -3 -19   3    3.60    3.30
  -5 -19  -3    0.70    2.70
   5 -19   3    1.10    5.40
   5  19   3    2.20    6.10
  -5 -19   3    0.30    2.70
   5 -19  -3   -0.90    8.60
  -7 -19  -3    0.50    3.00
   7 -19   3   -1.80    5.60
   7  19   3    0.10    5.30
  -7 -19   3    3.30    2.70
   0   0  -4 9811.72  380.56
   0   0   4 9031.40  378.36
  -2   0   4 2521.85  104.19
  -2   0  -4 2690.53  106.89
   2   0  -4 2586.44  104.19
   2   0  -4 2769.12  104.79
   2   0   4 2331.87  104.49
  -2   0  -4 2718.93  104.99
   2   0   4 2694.53  104.09
  -2   0   4 2726.83  104.39
  -4   0  -4 5085.49  206.58
   4   0  -4 5197.28  204.18
   6   0   4  785.12   33.10
   6   0   4  799.42   32.40
   6   0  -4  791.62   33.10
   6   0   4  814.42   36.50
  -6   0  -4  791.02   36.00
  -6   0   4  764.72   32.70
   6   0  -4  795.32   33.10
  -8   0   4 1720.43   69.09
   8   0   4 1670.43   72.59
   8   0  -4 1678.43   69.49
   8   0  -4 1681.03   68.79
   8   0   4 1633.24   68.29
  -8   0  -4 1744.23   72.39
   8   0   4 1734.53   69.39
  10   0  -4  125.79    7.20
 -10   0   4  115.79    7.20
  10   0   4  117.29    7.60
  10   0   4  113.79    6.70
 -10   0  -4  133.49   11.10
 -10   0   4  112.29    7.90
 -12   0   4  498.95   24.40
 -12   0  -4  511.25   27.00
  12   0   4  506.55   22.80
  12   0  -4  543.65   23.50
 -12   0   4  525.95   23.90
 -14   0  -4   31.30    7.00
  14   0  -4   34.50    4.70
  14   0   4   28.00    4.10
 -14   0   4   28.50    6.10
  16   0   4  168.18   10.20
  16   0  -4  161.58    9.80
 -16   0  -4  171.78   12.80
  18   0   4   10.10    3.80
  18   0  -4    5.70    3.10
 -18   0  -4   16.20    6.80
  20   0  -4   36.90    5.00
 -20   0  -4   56.29    9.90
  20   0   4   53.29    6.70
   0  -2   4 2387.46   97.39
   0  -2  -4 2435.36   97.49
   0   2   4 2494.05   98.29
   0  -2   4 2405.56   96.99
   0   2   4 2385.16   96.79
   0   2  -4 2503.05   97.19
  -2  -2  -4  603.44   27.20
   2  -2   4  630.24   26.50
   2   2  -4  592.34   25.60
   2  -2   4  591.54   26.00
   2  -2   4  652.13   25.10
   2   2  -4  631.54   26.00
  -2  -2   4  606.44   25.70
   2   2   4  649.14   25.60
   2   2   4  645.74   28.00
  -2   2  -4  624.04   26.40
   2   2   4  652.23   26.00
  -2  -2   4  660.73   26.10
   4   2  -4 2439.06   98.39
   4  -2   4 2269.87   98.69
   4  -2   4 2497.55   97.99
   4   2  -4 2491.15   98.99
  -4  -2  -4 2351.16  100.49
  -4   2  -4 2608.74  102.69
  -4   2  -4 2555.64   99.29
   4  -2  -4 2421.46   99.19
   4   2   4 2541.55  101.19
  -4  -2   4 2406.26   98.69
   4   2   4 2454.35   98.89
  -4  -2   4 2602.94   98.39
   6   2  -4  573.64   24.30
  -6  -2  -4  550.44   26.00
   6  -2   4  561.44   23.70
   6   2  -4  572.34   23.30
  -6  -2   4  569.84   23.80
   6  -2  -4  525.75   24.10
  -6  -2   4  458.05   23.60
   6   2   4  586.64   23.10
  -6   2  -4  520.95   26.80
   6   2   4  553.34   24.00
  -6   2  -4  563.04   24.10
   6   2   4  567.04   26.40
   8  -2   4 1707.23   65.39
  -8   2   4 1602.34   65.59
   8   2  -4 1631.44   65.59
   8  -2   4 1637.24   66.09
  -8  -2  -4 1602.74   68.79
   8  -2  -4 1541.95   66.09
   8   2   4 1558.34   65.39
  -8   2  -4 1600.14   69.59
  -8   2  -4 1650.03   66.39
   8   2   4 1630.44   69.29
  -8  -2   4 1645.54   66.59
  -8  -2   4 1602.44   65.69
  10   2  -4  247.08   11.60
  10  -2   4  238.48   11.30
 -10   2   4  237.28   12.40
 -10  -2  -4  255.37   15.30
 -10  -2  -4  234.88   13.90
  10  -2   4  252.67   12.40
  10  -2  -4  230.78   11.80
 -10  -2   4  226.98   12.90
 -10  -2   4  212.68   11.70
  10   2   4  254.47   16.00
  10   2   4  224.18   11.30
 -10   2  -4  216.48   15.40
  12  -2   4  531.25   24.50
 -12  -2  -4  555.54   26.50
 -12  -2  -4  545.25   27.80
 -12   2   4  547.15   25.30
  12   2  -4  540.15   23.60
  12  -2   4  528.45   23.50
 -12   2  -4  534.55   28.30
 -12  -2   4  530.75   25.20
  12  -2  -4  491.75   23.70
  12  -2  -4  527.55   25.90
  12   2   4  546.15   23.60
 -14   2   4   51.89    8.80
  14   2  -4   50.49    5.30
 -14  -2  -4   43.80    7.00
  14  -2   4   43.00    5.30
 -14  -2   4   54.09    7.50
  14   2   4   44.60    5.00
  14  -2  -4   52.39    5.40
  16   2  -4  153.98    9.30
 -16  -2  -4  138.99   11.80
  16  -2   4  140.39    9.40
  16  -2  -4  150.48    9.20
 -16   2  -4  151.08   12.50
  16   2   4  146.99    9.30
 -18  -2  -4    9.00    5.20
  18   2  -4    8.30    3.70
  18  -2   4    4.40    3.60
 -18  -2   4   14.30    6.70
  18   2   4    9.50    3.40
  18  -2  -4    9.60    3.80
 -18   2  -4   10.10    5.90
  20   2  -4   49.70    6.30
 -20  -2  -4   53.39    9.00
  20  -2   4   46.20    7.10
  20  -2  -4   50.09    6.30
 -20   2  -4   38.20    8.60
   0  -4   4 5415.76  201.58
   0  -4   4 4511.65  201.48
   0   4   4 5290.27  201.88
  -2   4   4 2597.54  105.99
   2  -4   4 2519.15  105.69
  -2  -4  -4 2631.24  105.99
   2  -4   4 2633.34  106.19
   2   4  -4 2450.15  105.79
  -2  -4  -4 2698.43  106.69
  -2   4  -4 2770.42  106.19
   2   4   4 2668.83  105.39
   2   4   4 2853.21  107.39
   4   4  -4 3217.08  127.79
   4  -4   4 3201.48  127.29
   4  -4   4 3044.20  127.69
  -4  -4  -4 3264.37  128.09
  -4  -4  -4 3328.77  128.89
   4   4  -4 3086.49  126.39
  -4   4  -4 3310.17  127.79
  -4  -4   4 3209.38  126.99
  -4  -4   4 3246.28  127.59
   4   4   4 3196.28  126.79
   4  -4  -4 2969.90  127.49
  -6  -4  -4  902.81   38.40
   6   4  -4  904.41   36.60
   6  -4   4  934.71   37.40
  -6  -4  -4  881.31   39.20
   6   4   4  873.91   36.70
  -6  -4   4  892.81   37.00
  -6   4  -4  929.61   41.60
  -6  -4   4  858.81   37.50
   6  -4  -4  887.81   37.90
  -6   4  -4  829.72   37.40
   6   4   4  942.61   40.30
   8  -4   4  994.10   41.20
  -8  -4  -4  950.30   43.60
  -8  -4  -4  905.91   42.30
   8   4  -4  985.70   40.60
  -8  -4   4  990.80   41.00
   8   4   4  990.20   44.50
  -8   4  -4  978.50   41.50
   8  -4  -4 1073.19   41.80
  -8   4  -4  974.00   45.00
  -8  -4   4  954.20   41.70
   8   4   4 1024.30   40.70
 -10  -4  -4  172.28   12.40
 -10  -4  -4  165.78   10.90
  10  -4   4  176.78    9.80
  10   4  -4  182.58    9.30
  10   4   4  171.18    9.00
 -10  -4   4  162.28    9.50
 -10  -4   4  184.48   10.70
 -10   4  -4  180.28   13.80
  10  -4  -4  169.88    9.80
  12   4  -4  301.87   14.60
 -12   4   4  315.97   16.00
  12  -4   4  298.97   15.50
 -12  -4  -4  314.77   17.40
 -12  -4  -4  273.87   18.30
 -12   4  -4  288.07   19.10
 -12  -4   4  297.67   16.50
  12  -4  -4  318.17   15.30
  12   4   4  315.57   14.70
 -14  -4  -4   51.59    7.40
  14   4  -4   60.19    5.60
  14  -4  -4   54.99    5.50
  14   4   4   58.49    5.50
 -14  -4   4   46.20    7.40
 -16  -4  -4   88.79    9.20
  16  -4   4  102.09    7.70
  16   4  -4   98.19    7.50
  16  -4  -4  105.49    7.50
 -16   4  -4   95.99   11.10
  16   4   4   98.99    7.20
 -16  -4   4   84.59    8.60
 -18  -4  -4   16.90    6.30
  18   4  -4    8.00    3.50
  18  -4   4    7.40    3.60
  18  -4  -4   12.10    3.60
 -18  -4   4   24.10    6.50
 -18   4  -4   23.30    7.20
  18   4   4   19.80    4.50
 -20  -4  -4   18.90    6.60
  20   4  -4   20.60    4.40
  20  -4   4   15.50    4.70
 -20   4  -4   44.40   10.80
  20  -4  -4   31.70    5.70
 -20  -4   4   28.30    8.90
  20   4   4   43.90    6.40
   0  -6   4  673.43   30.30
   0  -6  -4  761.12   29.90
   0   6   4  775.52   31.50
   0   6  -4  710.33   30.90
   0  -6   4  721.13   30.80
   0   6   4  756.62   30.40
   0  -6  -4  702.63   30.40
  -2  -6  -4  580.74   24.90
   2  -6   4  567.64   25.30
  -2   6   4  596.44   25.30
   2   6  -4  573.84   25.30
  -2  -6  -4  587.74   25.60
   2  -6   4  587.14   24.80
   2  -6  -4  588.04   24.00
  -2   6  -4  577.14   25.20
   2   6   4  560.64   24.50
  -2  -6   4  624.34   24.80
  -2  -6   4  584.74   25.20
   2   6   4  584.24   26.60
   4   6  -4  824.32   34.80
   4  -6   4  765.42   34.30
  -4  -6  -4  777.52   35.30
   4  -6   4  834.62   34.10
   4   6  -4  867.31   33.00
  -4  -6  -4  846.62   34.70
  -4  -6   4  740.33   35.50
  -4  -6   4  793.02   33.70
   4   6   4  840.32   36.50
  -4   6  -4  842.52   34.40
   4  -6  -4  777.12   34.20
   4   6   4  827.12   33.60
   6  -6   4  615.94   27.70
  -6  -6  -4  631.54   28.10
  -6  -6  -4  642.44   29.00
   6  -6   4  661.13   27.20
   6   6  -4  606.84   26.20
   6   6  -4  656.03   28.50
   6  -6  -4  611.04   27.90
   6   6   4  608.64   26.60
  -6  -6   4  658.73   27.60
  -6  -6   4  645.64   27.00
  -6   6  -4  597.24   27.30
   8  -6   4  643.24   27.20
  -8  -6  -4  619.44   28.40
   8   6  -4  644.74   26.60
  -8  -6  -4  618.24   29.40
   8   6   4  596.14   26.70
  -8  -6   4  634.64   27.40
  -8  -6   4  611.54   27.80
  -8   6  -4  644.74   31.50
   8  -6  -4  622.74   27.80
  10  -6   4  284.77   14.90
  10   6  -4  320.97   14.90
 -10  -6  -4  346.57   18.40
 -10  -6  -4  332.67   17.20
  10  -6   4  332.07   15.70
 -10   6  -4  328.17   20.00
  10  -6  -4  302.87   15.70
  10   6   4  317.27   14.90
 -10  -6   4  345.57   15.90
 -10  -6   4  318.07   16.50
  12  -6   4  232.08   12.30
  12   6  -4  236.38   11.50
 -12  -6  -4  181.28   12.90
 -12   6  -4  237.88   17.30
  12  -6  -4  226.08   12.30
 -12  -6   4  222.58   12.10
 -12  -6   4  217.28   13.40
  12   6   4  209.78   11.30
  14  -6   4   97.89   11.40
  14   6  -4   94.39    6.90
  14  -6   4  117.39    9.00
 -14  -6  -4   77.89    8.20
 -14  -6   4   95.89    8.00
  14   6   4   91.19    6.70
  14  -6  -4   83.49    7.00
  16  -6   4   58.19    8.20
 -16  -6  -4   61.09    8.00
  16   6  -4   57.69    6.10
  16  -6   4   57.29    6.90
 -16  -6   4   53.49    7.40
  16   6   4   57.39    5.60
  16  -6  -4   66.99    6.40
  18  -6   4    9.20    4.20
 -18  -6  -4   34.00    7.20
  18   6  -4   22.80    5.10
  18  -6  -4   28.80    5.30
 -18   6  -4   11.60    7.50
 -18  -6   4   29.90    6.40
  18   6   4   21.70    4.90
   0  -8   4 1710.53   70.29
   0  -8  -4 1792.82   69.19
   0  -8  -4 1629.04   69.59
   0  -8   4 1775.92   69.79
   0   8   4 1695.93   69.79
   2   8  -4 1736.83   72.59
  -2  -8  -4 1766.72   72.19
  -2   8   4 1733.03   72.19
   2  -8   4 1756.52   71.69
   2  -8   4 1747.73   72.19
  -2  -8   4 1818.72   71.69
   2  -8  -4 1705.43   70.99
  -2  -8   4 1814.62   72.29
   2  -8  -4 1815.12   71.59
   2   8   4 1780.72   71.49
  -4  -8  -4 1025.70   42.00
   4  -8   4 1037.20   42.30
   4  -8   4  949.60   41.60
  -4  -8  -4 1014.50   42.70
   4  -8  -4  947.71   41.90
   4   8   4  982.90   41.20
  -4  -8   4 1014.30   41.60
   4   8   4 1021.40   44.30
  -4  -8   4 1005.00   42.20
   6  -8   4  673.83   28.30
  -6  -8  -4  696.63   30.20
  -6  -8  -4  617.04   29.00
   6  -8   4  602.64   27.30
   6  -8   4  656.33   29.00
   6  -8  -4  611.54   28.90
  -6  -8   4  671.93   28.30
  -6  -8   4  683.73   29.10
   6   8   4  661.73   27.90
   6   8   4  686.23   31.70
   8  -8   4  275.77   13.90
  -8  -8  -4  294.67   15.80
  -8  -8  -4  271.67   14.70
  -8  -8   4  279.57   13.80
  -8  -8   4  268.37   14.50
   8  -8  -4  289.37   14.70
   8   8   4  280.17   13.40
  10  -8   4  179.48   10.50
 -10  -8  -4  197.08   11.70
  10   8  -4  189.38   10.00
  10  -8  -4  186.78   11.10
 -10  -8   4  200.28   10.80
  10   8   4  188.18    9.90
 -10  -8   4  173.78   11.40
 -10   8  -4  191.68   15.90
 -12  -8  -4   90.69    8.10
  12   8  -4   87.59    7.50
  12  -8  -4  101.59    7.50
  12   8   4   90.19    6.50
 -12   8  -4  116.69   15.00
 -12  -8   4   76.89    7.10
  14  -8   4   67.89    8.20
  14   8  -4   84.89    6.90
  14  -8   4   72.69    7.40
 -14  -8  -4   76.69    8.10
  14  -8  -4   65.39    6.90
 -14  -8   4   66.69    7.30
  14   8   4   71.19    6.70
  16  -8   4   33.00    5.40
 -16  -8  -4   32.70    6.40
  16  -8   4   29.20    7.00
  16   8  -4   33.00    5.20
 -16  -8   4   34.30    5.70
  16  -8  -4   22.70    4.30
  16   8   4   41.40    5.70
  18  -8   4   19.40    5.00
  18   8  -4   25.90    5.00
 -18  -8  -4   19.90    5.50
  18  -8  -4   30.40    5.40
  18   8   4   19.00    4.10
 -18  -8   4   23.20    6.00
 -18   8  -4    9.70    9.20
   0 -10   4   97.59    6.90
   0  10   4  116.19    6.80
   0 -10   4  109.09    6.50
   0 -10  -4  100.49    6.30
  -2 -10  -4  262.17   13.00
   2 -10   4  256.77   12.50
  -2  10   4  243.18   13.20
  -2 -10  -4  273.67   12.30
   2 -10   4  261.57   13.10
  -2 -10   4  247.88   12.90
   2 -10  -4  261.27   12.20
  -2 -10   4  244.78   12.40
   2  10   4  245.98   12.40
   4 -10   4  161.58    9.00
   4 -10   4  170.48   10.00
  -4 -10  -4  175.98    9.20
  -4 -10  -4  174.48   10.00
   4  10   4  165.68    8.90
  -4 -10   4  165.08    9.70
  -4 -10   4  164.98    9.10
   4 -10  -4  147.39    8.40
   4 -10  -4  157.68    9.70
  -6 -10  -4  317.67   16.00
   6 -10   4  352.56   16.00
  -6 -10  -4  312.27   16.80
   6 -10   4  331.97   16.60
  -6 -10   4  350.86   15.80
   6  10   4  311.17   15.20
  -6 -10   4  348.27   16.90
   6 -10  -4  300.07   16.50
  -8 -10  -4  179.88   12.30
  -8 -10  -4  183.58   11.00
   8 -10   4  183.78   11.60
   8 -10   4  179.28   10.30
   8  10   4  192.38    9.90
  -8 -10   4  179.28   10.10
   8 -10  -4  200.28   11.70
 -10 -10  -4  206.28   12.30
 -10 -10   4  222.48   12.00
  10 -10  -4  219.28   12.80
  10  10   4  205.48   11.20
 -10  10  -4  201.58   18.30
  12  10  -4   84.09    7.20
 -12 -10  -4   87.29    8.00
  12 -10   4   80.99    7.60
  12  10   4   91.69    6.60
 -12 -10   4   72.39    6.80
  12 -10  -4   81.09    7.70
 -14 -10  -4   68.29    7.50
  14  10  -4   74.29    7.20
  14 -10   4   78.49    8.80
  14 -10  -4   68.99    6.80
 -14 -10   4   57.79    6.80
  14  10   4   68.49    6.40
  16 -10   4   13.90    7.10
 -16 -10  -4   17.00    4.70
  16  10  -4   21.80    5.40
  16 -10   4   28.00    6.20
 -16 -10   4   25.00    5.70
  16 -10  -4   22.60    4.40
  16  10   4   22.60    4.70
   0 -12   4  543.25   24.00
   0 -12   4  523.85   24.50
   0  12   4  547.65   24.30
   0 -12  -4  534.95   24.00
  -2 -12  -4  590.24   25.10
   2 -12   4  569.34   26.00
  -2  12   4  593.64   26.50
  -2 -12  -4  622.54   25.70
   2 -12   4  569.54   25.40
  -2 -12   4  535.75   25.70
   2  12   4  579.74   25.40
   2 -12  -4  517.95   24.90
  -2 -12   4  577.04   25.20
  -4 -12  -4  312.67   14.40
   4 -12   4  289.77   14.50
  -4 -12  -4  306.57   15.30
   4 -12   4  288.17   15.30
  -4 -12   4  270.27   15.60
   4  12   4  298.27   14.20
  -4 -12   4  272.67   14.10
   4 -12  -4  287.07   14.30
  -6 -12  -4  239.18   12.20
   6 -12   4  219.48   13.60
   6 -12   4  230.88   12.40
  -6 -12   4  221.68   11.90
   6 -12  -4  238.08   12.60
   6  12   4  237.78   11.90
   8 -12   4   80.69    9.10
  -8 -12  -4   86.39    7.00
   8 -12  -4   74.79    9.30
   8  12   4   94.69    6.60
  -8 -12   4   72.69    6.40
  10 -12   4   82.09    7.40
 -10 -12  -4   74.19    6.80
 -10 -12   4   67.69    6.40
  10  12   4   75.09    6.20
  10 -12  -4   79.29    8.70
  12  12  -4   38.50    6.10
 -12 -12  -4   35.50    5.90
  12 -12   4   41.80    6.60
  12  12   4   27.20    4.60
 -12 -12   4   37.10    5.50
  12 -12  -4   29.00    5.90
  14 -12   4   31.00    7.10
 -14 -12  -4   39.10    6.40
  14  12  -4   48.60    6.70
  14 -12  -4   47.30    6.30
 -14 -12   4   44.20    6.50
  14  12   4   41.40    5.80
  16  12  -4   14.30    5.20
 -16 -12  -4   11.50    3.90
  16  12   4   11.50    3.50
  16 -12  -4    8.60    4.10
 -16 -12   4   10.00    4.30
   0 -14   4   26.60    4.40
   0 -14  -4   31.80    5.10
   0  14   4   22.90    4.90
  -2 -14  -4   42.80    5.50
   2 -14   4   41.10    5.20
  -2  14   4   38.00    6.10
  -2 -14   4   46.80    4.60
   2 -14  -4   47.30    6.20
   2  14   4   43.70    5.70
  -4 -14  -4   51.19    5.50
   4 -14   4   50.99    5.80
   4  14   4   47.60    5.90
  -4 -14   4   53.99    5.20
   4 -14  -4   54.09    7.90
   6 -14   4  106.99    7.90
  -6 -14  -4   85.99    7.00
   6  14   4   77.79    7.10
  -6 -14   4   94.09    6.80
   6 -14  -4   86.29    9.50
   8 -14   4   72.19    7.50
  -8 -14  -4   70.69    6.50
   8  14   4   68.29    6.60
   8 -14  -4   74.29    9.30
  -8 -14   4   68.49    6.30
  10 -14   4   71.89    8.10
  10  14  -4   75.99    8.00
 -10 -14  -4   70.69    6.60
  10 -14  -4   74.79    9.10
  10  14   4   62.49    6.90
 -10 -14   4   68.79    6.70
 -12 -14  -4   32.10    5.00
  12 -14   4   39.70    7.40
  12  14  -4   51.99    7.20
  12 -14  -4   33.30    6.10
  12  14   4   39.30    5.70
 -12 -14   4   39.20    5.90
  14  14  -4   30.40    6.80
 -14 -14  -4   27.10    5.60
  14 -14  -4   25.40    5.70
 -14 -14   4   27.80    5.60
  14  14   4   29.00    5.10
   0  16   4  165.18   11.90
   0 -16   4  155.88    9.90
   2 -16   4  139.79    9.40
  -2 -16  -4  142.89    8.80
  -2 -16   4  134.89    9.00
   2  16   4  169.78   10.80
  -4 -16  -4   87.99    7.00
   4 -16   4  104.09    8.50
  -4 -16   4   94.49    7.20
   4  16   4   98.49    8.20
   4 -16  -4  103.79   10.80
  -6 -16  -4   47.00    5.60
   6 -16   4   48.40    6.80
   6  16   4   64.99    7.40
   6 -16  -4   56.19    8.80
  -6 -16   4   49.00    5.30
  -8 -16  -4   27.30    4.80
   8 -16   4   42.20    7.00
   8  16   4   29.30    5.10
  -8 -16   4   29.40    5.30
   8 -16  -4   17.60    7.20
  10 -16   4   11.70    5.60
 -10 -16  -4   18.00    4.50
  10  16   4   16.60    4.70
  10 -16  -4   20.10    6.60
 -10 -16   4   16.00    3.90
 -12 -16  -4   15.90    4.80
 -12 -16   4   11.80    3.90
  12  16   4    5.70    4.00
  12 -16  -4   14.20    5.80
   0  18   4   13.70    7.10
   0 -18   4    4.80    3.30
   0 -18  -4    3.50    4.00
   2 -18   4    7.20    4.10
  -2 -18  -4    6.20    3.50
   2  18   4    9.00    5.80
   2 -18  -4    3.20    6.50
  -2 -18   4    3.80    3.40
   4 -18   4   12.30    5.10
  -4 -18  -4   20.00    4.60
   4 -18  -4   13.10    7.20
  -4 -18   4    7.10    3.00
   4  18   4   13.60    5.60
  -6 -18  -4   12.50    3.90
   6 -18   4   18.30    5.40
  -6 -18   4   22.30    4.10
   6  18   4   18.90    5.50
   6 -18  -4   20.70    8.10
   8 -18   4   32.30    7.20
  -8 -18  -4   24.50    4.90
   8 -18  -4   40.00    8.70
  -8 -18   4   20.80    4.40
   8  18   4   18.70    5.60
   0 -20  -4   55.59   10.80
   0 -20   4   33.70    5.50
  -2 -20  -4   20.70    5.10
   2 -20   4   39.70    6.50
   2  20   4   49.99   10.30
   2 -20  -4   26.10    8.90
  -2 -20   4   42.50    6.30
   4 -20   4   26.00    5.90
  -4 -20  -4   29.30    5.40
   4  20   4   30.50    8.60
  -4 -20   4   23.10    4.40
   4 -20  -4   20.60    9.20
   1  -1   5    4.40    1.40
  -1  -1  -5    8.20    2.20
  -1   1   5    4.20    0.90
  -1  -1   5    4.40    1.30
   1   1   5    3.10    1.00
   3   1  -5  251.87   11.00
  -3   1   5  252.87   10.80
   3  -1   5  251.37   10.60
  -3  -1  -5  239.78   13.40
   3   1   5  248.78   11.30
  -3  -1   5  263.47   11.40
  -3   1  -5  243.98   14.60
   3  -1  -5  249.08   10.50
   3  -1  -5  253.77   11.70
  -3   1  -5  249.68   11.80
  -3  -1   5  248.28   10.90
   3   1   5  241.08   10.80
   5  -1   5   50.89    3.10
   5   1  -5   48.80    3.90
   5   1  -5   53.79    3.70
   5  -1   5   46.00    3.80
  -5  -1  -5   48.10    6.40
  -5   1  -5   53.09    7.00
   5   1   5   45.80    3.10
  -5  -1   5   46.90    3.70
   5  -1  -5   45.80    3.20
   5  -1  -5   47.30    4.50
   5   1   5   56.99    6.70
   5   1   5   51.19    3.90
  -5   1  -5   52.09    4.30
   7  -1   5  152.48    7.70
   7  -1   5  143.59    8.20
  -7  -1  -5  164.08   11.50
   7   1  -5  138.79    8.10
  -7   1   5  157.28    7.70
   7   1  -5  162.48    8.70
  -7  -1   5  179.88    9.20
   7   1   5  158.08    8.70
  -7   1  -5  154.38   11.70
   7   1   5  147.69    7.60
   7  -1  -5  150.58    8.60
  -7  -1   5  154.78    8.20
   7   1   5  162.48   11.60
  -9   1   5    4.00    1.90
  -9   1   5    4.80    2.00
   9  -1   5    2.50    1.60
   9   1  -5    6.10    1.90
   9  -1   5    4.50    2.10
  -9  -1  -5    7.80    5.00
   9   1   5    4.70    4.00
  -9   1  -5    4.20    3.40
   9   1   5    3.90    1.80
   9   1   5    3.70    2.40
  -9  -1   5    4.40    2.30
   9  -1  -5    2.60    2.20
  11  -1   5   15.60    3.10
 -11   1   5   14.60    3.30
  11   1  -5   19.80    3.40
  11   1  -5   12.40    3.70
  11  -1   5   12.90    3.00
 -11  -1  -5   16.00    5.50
 -11  -1   5   14.40    3.50
 -11  -1   5   16.90    3.60
  11   1   5   21.20    3.20
  11  -1  -5   12.00    2.70
 -11   1  -5   14.40    4.70
 -13  -1  -5   -0.60    6.70
 -13   1   5    0.40    4.00
  13  -1   5    5.00    2.60
  13   1  -5    8.30    2.90
  13  -1   5    5.20    3.20
  13  -1  -5    1.50    4.70
  13  -1  -5   10.10    3.00
 -13  -1   5    7.10    3.80
  13   1   5    6.80    2.50
  15  -1   5    0.70    3.00
 -15  -1  -5    5.10    4.40
  15   1  -5    5.10    2.90
  15   1   5    3.30    2.80
  15  -1  -5   -0.80    2.30
 -15   1  -5   -3.70    4.10
 -17  -1  -5   -0.90    4.50
  17   1  -5    1.00    2.90
  17  -1   5   -1.10    2.80
  17   1   5    3.30    3.10
  17  -1  -5    0.90    2.80
 -17   1  -5   -0.70    5.00
  19   1  -5    2.50    3.30
 -19  -1  -5    6.00    5.30
  19  -1   5    3.00    4.10
  19  -1  -5    3.40    3.50
 -19   1  -5    6.80    6.40
  19   1   5   -3.60    3.00
  -1  -3  -5  141.69    8.30
   1  -3   5  158.88    8.30
   1   3  -5  163.48    7.70
  -1   3   5  136.99    8.60
   1  -3   5  150.68    7.90
   1   3   5  159.18    7.40
  -1  -3   5  159.88    7.60
   1   3   5  150.18    9.30
  -1  -3   5  159.38    8.00
   1  -3  -5  144.49    7.50
  -1   3  -5  160.48    8.00
  -3  -3  -5  100.09    7.10
   3   3  -5  109.19    5.70
   3   3   5  104.89    7.70
   3   3   5   90.99    5.60
   3  -3  -5   99.19    5.90
  -3  -3   5   92.29    5.70
   3   3   5   96.59    5.20
   5  -3   5  288.67   13.10
  -5  -3  -5  283.37   14.90
   5   3  -5  276.57   12.30
   5  -3  -5  272.47   13.60
   5   3   5  270.57   13.20
  -5   3  -5  292.27   13.50
   5   3   5  260.47   12.30
   5   3   5  269.07   16.10
  -5   3  -5  279.87   17.20
  -5  -3   5  272.27   12.50
  -5  -3   5  281.57   13.20
   7   3  -5   62.79    5.50
  -7  -3  -5   74.69    7.30
  -7  -3   5   55.99    4.90
   7  -3  -5   66.89    5.70
  -7   3  -5   55.59    8.40
   7   3   5   60.99    4.30
   7   3   5   63.59    7.60
   9  -3   5   73.79    5.70
   9   3  -5   77.89    5.10
  -9  -3  -5   81.09    7.40
  -9  -3  -5   70.59    8.10
  -9   3  -5   76.69    9.80
  -9  -3   5   68.29    5.80
   9   3   5   73.69    4.90
   9  -3  -5   69.99    5.80
  -9   3  -5   68.29    6.30
  -9  -3   5   68.79    5.30
  11   3  -5   24.60    3.70
  11  -3   5   18.10    3.80
 -11  -3  -5   20.30    5.10
 -11  -3  -5   22.00    6.10
  11  -3  -5   31.90    4.60
 -11   3  -5   29.40    7.60
 -11  -3   5   18.90    4.10
  11   3   5   16.10    2.80
  13   3  -5   15.10    3.40
  13  -3   5   14.50    3.90
 -13  -3  -5   23.40    5.60
 -13  -3   5   15.10    4.70
  13   3   5   18.00    3.80
  13  -3  -5   19.30    3.90
  15   3  -5   10.90    3.30
 -15  -3  -5    7.40    4.80
  15  -3   5   10.80    3.70
  15  -3   5   11.90    4.70
  15  -3  -5    8.40    2.90
  15   3   5    8.10    2.90
 -15  -3   5    5.40    6.30
  17  -3   5    3.40    4.00
  17   3  -5    6.30    3.40
 -17  -3  -5    6.60    5.10
  17  -3  -5    2.80    3.30
 -17  -3   5    5.80    6.50
 -17   3  -5    0.70    5.10
  17   3   5    8.30    3.30
  19  -3   5    1.20    4.00
  19   3  -5    6.80    3.70
 -19  -3  -5    2.40    5.00
  19   3   5    1.60    2.70
  19  -3  -5   -1.60    3.00
 -19   3  -5    4.90    6.20
  -1  -5  -5   55.89    4.40
   1  -5   5   50.89    3.80
  -1  -5  -5   61.39    4.00
   1   5  -5   57.49    4.20
  -1   5   5   51.89    4.00
   1  -5   5   53.19    4.50
   1   5   5   59.39    5.60
   1  -5  -5   54.49    3.20
  -1  -5   5   55.89    4.40
   1   5   5   54.29    3.80
   1  -5  -5   51.39    3.50
  -1   5  -5   54.69    4.30
  -1  -5   5   43.10    3.60
   3   5  -5  321.17   15.10
  -3  -5  -5  331.37   16.20
   3  -5   5  318.97   15.40
   3  -5   5  332.27   15.00
  -3  -5  -5  348.77   15.30
  -3  -5   5  330.67   14.80
  -3   5  -5  331.47   15.30
  -3  -5   5  310.17   15.10
   3   5   5  333.97   14.50
  -5  -5  -5    1.60    2.40
   5  -5   5   -1.10    1.80
   5   5  -5    4.70    1.60
   5   5  -5    0.20    1.70
   5  -5   5    1.10    1.70
  -5  -5  -5    1.50    2.20
   5   5   5    0.00    2.40
  -5  -5   5   -3.10    1.50
   5   5   5   -2.70    1.30
   5  -5  -5    1.50    2.50
   7   5  -5  168.68    9.20
  -7  -5  -5  211.48   12.40
   7  -5   5  192.68    8.90
  -7  -5  -5  195.38   11.00
   7  -5   5  182.58    9.80
   7   5  -5  181.18   10.90
  -7   5  -5  191.88   10.70
  -7   5  -5  204.08   14.50
  -7  -5   5  192.58   10.30
   7  -5  -5  184.78   10.70
  -7  -5   5  188.38    9.70
   7   5   5  190.78    9.40
   9  -5   5   11.30    3.30
   9   5  -5   11.10    2.70
  -9  -5  -5    6.10    3.80
   9  -5   5   11.30    2.60
  -9  -5  -5    8.00    3.30
  -9  -5   5   10.40    2.80
  -9  -5   5    6.70    2.70
  -9   5  -5   10.20    5.70
   9   5   5   12.90    2.80
   9  -5  -5    9.90    3.00
 -11  -5  -5   49.90    7.80
 -11  -5  -5   48.50    7.10
  11   5  -5   34.30    4.40
  11  -5   5   39.10    4.80
 -11   5  -5   45.50    9.60
 -11  -5   5   40.30    6.00
  11  -5  -5   30.90    4.80
  11   5   5   35.30    3.90
  13   5  -5   29.00    4.40
  13  -5   5   24.70    6.00
 -13  -5  -5   13.70    4.70
  13  -5  -5   24.50    4.40
 -13  -5   5   25.40    5.40
  15   5  -5    4.80    3.20
  15  -5   5    9.20    4.70
 -15  -5  -5   10.00    4.90
  15  -5   5    7.70    3.50
 -15  -5   5    7.80    4.60
  15  -5  -5   10.10    3.50
  15   5   5    9.00    3.00
  17  -5   5    0.20    3.50
 -17  -5  -5    7.30    4.40
  17   5  -5    9.60    3.80
  17  -5  -5    6.80    3.40
  17   5   5    5.60    2.70
 -17  -5   5    6.70    5.50
  19  -5   5   -2.00    4.10
 -19  -5  -5    2.10    5.30
  19   5  -5   -0.30    2.70
  19   5   5    2.10    2.80
  19  -5  -5    6.80    3.60
 -19  -5   5    2.70    6.20
 -19   5  -5    5.90    7.70
   1  -7   5   92.89    6.30
   1   7  -5   83.59    5.90
  -1  -7  -5   88.49    5.20
  -1   7   5   75.39    5.60
  -1  -7  -5   90.89    5.80
   1  -7   5   78.79    5.40
   1   7   5   77.69    5.40
  -1  -7   5   88.79    5.30
  -1   7  -5  105.99    7.30
  -1  -7   5   88.99    6.10
   1  -7  -5   82.39    5.10
  -3  -7  -5   20.30    3.60
   3  -7   5   15.00    3.00
  -3   7   5   34.50    4.80
  -3  -7  -5   18.00    3.00
  -3  -7   5   24.20    3.60
   3   7   5   18.20    4.00
   3   7   5   29.30    3.20
  -3  -7   5   18.00    2.90
   5  -7   5  171.18    8.90
  -5  -7  -5  156.28   10.20
  -5  -7  -5  155.38    9.30
   5  -7   5  159.78    9.50
  -5  -7   5  164.08    8.60
   5  -7  -5  141.99    9.30
   5   7   5  160.58    8.40
  -5   7  -5  177.48    9.40
  -5  -7   5  165.68    9.30
   7  -7   5    7.10    2.50
  -7  -7  -5   15.10    3.40
  -7  -7  -5   12.30    3.20
   7  -7   5    5.90    2.40
   7  -7   5    7.10    2.70
  -7  -7   5    8.00    2.30
  -7  -7   5    8.70    2.50
   7  -7  -5   23.10    4.60
  -9  -7  -5   59.49    8.00
   9   7  -5   51.29    4.30
   9  -7   5   43.90    4.90
  -9  -7  -5   45.70    5.70
  -9   7  -5   77.39   11.70
  -9  -7   5   46.90    5.90
  -9  -7   5   45.50    4.90
   9   7   5   53.09    4.70
   9  -7  -5   44.20    5.50
  11   7  -5   12.20    2.90
  11  -7   5    2.00    2.80
 -11  -7  -5    7.90    3.70
  11  -7  -5   17.00    5.10
  11   7   5   11.20    2.90
 -11  -7   5    3.80    3.30
 -11  -7   5   10.50    3.10
 -11   7  -5   15.90    7.90
  13  -7   5    6.70    3.40
 -13  -7  -5    9.60    4.00
  13   7  -5   15.80    3.50
 -13  -7   5    5.90    3.70
  13  -7  -5   10.30    3.70
  13   7   5    7.60    3.60
  15  -7   5   17.00    5.50
  15  -7   5    5.70    3.90
  15   7  -5    9.00    3.60
 -15  -7  -5    7.80    4.60
  15  -7  -5    7.10    3.10
 -15  -7   5    7.20    4.50
  15   7   5   14.30    3.80
 -17  -7  -5    0.60    4.00
  17  -7   5    0.00    5.70
  17   7  -5    3.90    3.60
  17  -7   5   -3.50    4.10
 -17  -7   5    0.40    4.40
  17  -7  -5    6.50    3.40
  17   7   5    5.80    3.60
  -1  -9  -5    5.00    2.00
  -1  -9  -5    6.70    1.90
   1  -9   5    3.60    2.60
  -1   9   5    1.30    2.10
   1  -9   5    5.90    2.20
   1  -9  -5    1.90    1.60
   1   9   5    4.00    1.80
  -1  -9   5    4.40    2.20
  -1  -9   5    1.80    1.80
   1  -9  -5    4.80    1.60
   3  -9   5   67.69    6.00
   3  -9   5   75.09    5.50
  -3  -9  -5   78.69    5.50
  -3  -9  -5   64.89    5.90
  -3   9   5   76.49    6.50
   3   9   5   78.99    5.30
  -3  -9   5   86.09    5.50
  -3  -9   5   73.39    5.90
  -3   9  -5   82.49    6.00
   3  -9  -5   73.69    4.50
  -5  -9  -5    9.40    3.00
   5  -9   5   11.10    3.60
   5  -9   5   13.10    3.20
  -5  -9  -5    8.40    2.80
  -5  -9   5   12.80    3.20
   5   9   5   10.20    2.70
   5  -9  -5    7.60    3.60
  -5  -9   5   12.80    3.00
   7  -9   5   56.09    5.20
  -7  -9  -5   55.79    6.90
  -7  -9  -5   50.19    5.60
   7  -9   5   45.60    5.80
   7   9  -5   49.30    4.90
   7   9   5   48.70    4.40
  -7  -9   5   52.39    6.30
   7  -9  -5   51.99    6.30
  -7  -9   5   51.39    4.60
  -9  -9  -5   -1.40    2.80
   9  -9   5   -1.50    2.50
   9  -9  -5    0.00    3.00
  -9   9  -5   -8.80    6.40
   9   9   5    0.80    3.10
  -9  -9   5   -4.50    2.30
  11  -9   5    6.40    3.50
 -11  -9  -5    8.20    3.80
 -11  -9   5    2.40    2.60
  11   9   5    6.20    2.70
  11  -9  -5    8.40    3.60
 -13  -9  -5    3.10    3.40
  13  -9   5    6.10    3.50
  13   9  -5   12.10    4.00
  13   9   5    3.50    2.90
 -13  -9   5    3.30    3.40
  13  -9  -5    5.80    3.50
  15  -9   5   11.60    5.50
  15   9  -5   -3.90    3.20
  15  -9   5    3.40    4.70
 -15  -9  -5    0.30    3.90
 -15  -9   5    1.40    3.50
  15  -9  -5    2.10    3.00
  15   9   5    0.10    2.70
 -17  -9  -5    0.30    3.70
  17  -9   5    8.70    5.20
  17   9  -5    4.70    3.80
  17  -9   5   -6.50    6.20
 -17  -9   5   -2.80    3.70
  17   9   5    0.70    2.90
  17  -9  -5   -2.80    3.00
  -1 -11  -5    8.60    2.60
  -1  11   5    6.20    2.70
   1 -11   5   11.00    3.00
   1 -11   5   11.80    3.20
   1  11   5    7.80    2.80
  -1 -11   5    9.50    2.70
   1 -11  -5    8.60    2.60
  -1 -11   5    9.30    2.90
   3 -11   5   17.30    4.10
   3 -11   5   18.90    3.80
  -3 -11  -5   22.40    3.60
  -3 -11  -5   19.30    4.10
  -3  11   5   16.10    4.20
  -3 -11   5   13.90    3.20
   3  11   5   20.20    3.50
  -3 -11   5   19.60    3.80
   5 -11   5   34.90    5.50
   5 -11   5   32.80    4.60
  -5 -11  -5   35.30    4.50
  -5 -11  -5   44.90    6.20
   5 -11  -5   28.00    5.20
  -5 -11   5   34.40    4.50
  -5 -11   5   41.50    5.70
   5  11   5   32.80    4.30
   7 -11   5   10.90    3.20
   7 -11   5   12.40    3.80
  -7 -11  -5   11.40    3.50
   7 -11  -5   14.30    4.50
  -7 -11   5   10.40    3.10
  -9 -11  -5    5.50    3.10
   9 -11   5   10.00    3.40
   9 -11  -5    4.00    4.00
  -9 -11   5    4.10    3.10
   9  11   5    4.20    2.50
  11  11  -5    4.20    3.80
  11 -11   5    4.90    3.30
 -11 -11  -5    4.20    3.00
 -11 -11   5   -2.40    3.00
  11 -11  -5    2.90    3.70
  11  11   5   -0.60    2.40
  13  11  -5   -2.90    3.60
 -13 -11  -5    1.50    3.00
  13 -11   5    0.30    3.90
 -13 -11   5   -3.40    3.30
  13 -11  -5   -1.00    3.30
  13  11   5    1.60    2.50
  15 -11   5   -1.80    5.40
  15  11  -5    3.50    4.30
 -15 -11  -5   -4.10    3.50
  15  11   5    2.50    2.50
 -15 -11   5   -3.50    3.30
  15 -11  -5    1.80    3.60
   1 -13   5    1.40    2.50
  -1  13   5   -4.70    2.70
  -1 -13  -5    1.80    2.70
  -1 -13   5    3.40    2.70
   1 -13  -5    5.00    3.00
   1  13   5    6.70    3.10
  -3 -13  -5    7.20    3.40
   3 -13   5    9.50    3.60
   3 -13  -5   13.50    3.70
  -3 -13   5   16.00    3.60
   3  13   5   14.40    3.50
  -5 -13  -5   18.50    6.00
   5 -13   5   26.00    5.10
  -5 -13   5   25.60    4.10
   5  13   5   18.40    4.00
   7 -13   5   12.80    3.70
  -7 -13  -5    6.10    3.20
  -7 -13   5    9.50    3.50
   7  13   5    7.80    3.30
   7 -13  -5    5.30    4.80
   9 -13   5    5.00    3.70
  -9 -13  -5    3.50    3.00
   9  13   5    4.70    3.10
  -9 -13   5    2.80    2.90
   9 -13  -5    5.30    4.60
 -11 -13  -5   -0.20    3.20
  11  13  -5    8.80    4.80
  11 -13   5   -2.40    3.70
  11  13   5    0.00    2.90
  11 -13  -5    0.60    4.40
 -11 -13   5   -2.10    2.70
  13  13  -5   -1.50    4.50
 -13 -13  -5    0.10    3.30
  13 -13   5    2.00    4.40
  13  13   5    0.60    2.80
 -13 -13   5    4.80    3.50
  13 -13  -5   -4.50    3.80
 -15 -13  -5   -0.20    3.30
  15 -13   5    6.60    6.30
  15  13  -5   -5.60    4.50
 -15 -13   5    3.90    3.80
  15 -13  -5   -0.80    4.20
  15  13   5    3.20    2.80
   1 -15   5   -1.40    2.50
  -1 -15  -5    3.80    3.80
  -1  15   5    1.30    4.00
   1  15   5    3.20    3.50
  -1 -15   5   -1.90    2.30
  -3 -15  -5   10.40    3.20
   3 -15   5   12.20    3.70
  -3 -15   5    5.80    3.10
   3  15   5    7.50    3.50
   3 -15  -5   14.70    5.30
   5 -15   5   11.40    4.10
  -5 -15  -5   10.20    3.20
   5  15   5    6.60    3.80
   5 -15  -5   -2.40    4.60
  -5 -15   5    7.60    3.00
  -7 -15  -5    6.80    3.50
   7 -15   5    3.40    3.60
   7  15   5    6.90    3.70
   7 -15  -5   -0.10    5.20
  -7 -15   5    3.60    2.50
  -9 -15  -5    1.20    3.00
   9 -15   5   -3.10    3.60
   9  15   5    0.40    3.00
   9 -15  -5    4.60    4.90
  -9 -15   5    0.60    2.90
  11 -15   5   -3.00    4.40
 -11 -15  -5   -5.60    3.00
  11  15   5    3.50    3.50
 -11 -15   5   -1.20    3.10
  11 -15  -5    4.70    5.00
 -13 -15  -5    0.90    3.30
  13 -15   5    5.00    5.60
 -13 -15   5    0.00    3.40
  13  15   5    2.60    3.80
  13 -15  -5   -6.10    4.40
  -1 -17  -5    0.40    3.40
  -1  17   5    4.50    5.80
   1 -17   5    3.30    3.10
  -1 -17   5    1.40    2.70
   1  17   5    1.20    4.80
  -3 -17  -5    3.60    3.10
   3 -17   5    4.50    3.90
   3 -17  -5    2.20    5.70
   3  17   5    9.80    4.70
  -3 -17   5    6.30    3.20
   5 -17   5    5.60    4.40
  -5 -17  -5    4.20    3.10
   5 -17  -5    3.10    6.30
   5  17   5    5.60    4.00
  -5 -17   5    6.60    3.50
  -7 -17  -5    5.00    3.20
   7 -17   5    4.10    4.30
   7  17   5    1.60    3.60
  -7 -17   5   -0.40    3.00
   7 -17  -5   12.50    6.70
   9 -17   5    2.60    4.90
  -9 -17  -5    4.10    3.40
   9 -17  -5    6.20    5.90
   9  17   5   -4.30    3.90
  -9 -17   5    1.80    2.90
   1 -19   5    1.00    3.30
  -1 -19  -5    0.10    4.50
   1 -19  -5    3.50    6.60
  -1 -19   5    0.80    3.10
   1  19   5   -0.70    6.50
   3 -19   5    3.80    4.20
  -3 -19  -5    3.10    3.90
  -3 -19   5    8.70    3.70
   3  19   5   -3.20    6.20
   3 -19  -5   -6.60    6.30
  -5 -19  -5    1.50    3.40
   5 -19   5    7.00    4.90
   5  19   5    5.70    5.30
  -5 -19   5    4.00    2.90
   5 -19  -5   -4.00    7.20
  -7 -19  -5   -2.30    3.10
  -7 -19   5    0.00    3.30
   0   0   6 1240.68   50.59
   0   0   6 1249.38   50.49
   0   0  -6 1263.47   50.99
   0   0   6 1257.97   51.09
  -2   0  -6  208.98   10.00
  -2   0  -6  200.18   12.30
  -2   0   6  188.48    9.50
   2   0  -6  199.48    9.60
   2   0  -6  206.48    9.10
   2   0   6  203.88    8.90
   4   0   6  925.51   37.10
  -4   0  -6  874.61   40.90
   4   0  -6  909.51   38.30
  -4   0   6  915.61   37.50
   4   0  -6  961.10   37.40
   4   0   6  914.81   37.90
  -4   0  -6  902.61   38.30
  -6   0  -6  167.38   12.00
  -8   0   6  516.75   22.30
   8   0   6  497.05   21.80
  -8   0   6  509.55   21.60
  -8   0  -6  514.75   26.20
   8   0  -6  511.95   22.60
  -8   0  -6  545.65   23.40
   8   0  -6  470.55   22.50
   8   0   6  501.45   22.80
  10   0   6   79.19    6.50
 -10   0   6   87.19    6.60
  10   0  -6   84.39    6.10
 -10   0  -6   91.19   10.40
  12   0  -6  229.78   12.00
  12   0   6  234.28   11.80
  12   0   6  238.98   13.00
 -12   0  -6  221.78   16.90
 -14   0  -6   25.80    5.90
  14   0  -6   23.50    4.30
  14   0   6   18.00    3.50
  16   0   6  103.29    8.00
 -16   0  -6   98.29   10.20
  16   0  -6   99.29    7.50
  18   0  -6    5.60    3.30
 -18   0  -6    9.30    5.30
  18   0   6    5.70    3.60
   0   2  -6  118.19    6.20
   0  -2   6  107.09    6.50
   0  -2  -6  108.79    7.10
   0   2   6  107.99    5.30
   0  -2  -6  104.99    5.90
  -2  -2  -6  100.49    7.30
  -2   2   6   96.39    6.20
   2   2  -6   93.29    5.40
   2  -2   6  100.39    6.30
   2  -2   6  107.69    5.90
   2   2  -6   94.69    5.60
  -2  -2   6   98.99    6.00
  -2  -2   6  105.19    5.50
   2  -2  -6   92.89    6.10
   2  -2  -6   98.19    4.80
   2   2   6  106.49    5.30
  -2   2  -6   98.49    6.10
   2   2   6   96.89    5.30
   4  -2   6  285.77   13.30
   4   2  -6  304.17   13.10
   4   2  -6  297.37   13.40
  -4  -2  -6  277.27   15.20
   4   2   6  272.17   16.20
  -4   2  -6  278.77   17.30
  -4  -2   6  297.77   12.80
   4   2   6  291.47   13.30
   4   2   6  276.67   12.60
  -4  -2   6  293.17   13.30
   4  -2  -6  280.07   13.70
  -4   2  -6  275.77   13.70
  -6  -2  -6   52.49    6.70
   6   2  -6   41.20    3.80
   6  -2   6   40.80    3.10
   6  -2   6   50.69    4.30
  -6   2  -6   58.19    8.50
  -6  -2   6   33.00    3.30
   6   2   6   50.49    3.50
   6   2   6   47.20    4.10
   6  -2  -6   49.90    5.00
  -6  -2   6   50.69    4.20
  -6   2  -6   45.20    4.80
   8  -2   6  510.35   22.30
  -8  -2  -6  489.05   25.20
   8   2  -6  462.55   21.50
   8   2   6  513.75   26.20
   8   2   6  499.95   21.30
  -8   2  -6  508.85   26.90
   8   2   6  475.45   22.30
  -8  -2   6  482.85   22.00
   8  -2  -6  497.65   22.50
 -10  -2  -6   98.19   10.10
  10  -2   6   89.09    6.70
  10   2  -6  101.59    6.30
 -10  -2   6   85.89    7.10
 -10   2  -6  101.59   11.40
  10  -2  -6   97.79    7.00
  10   2   6   95.99    6.10
 -12   2   6  264.27   13.70
 -12  -2  -6  269.87   15.90
  12   2  -6  272.77   16.50
  12   2  -6  255.77   13.10
  12  -2   6  262.77   14.20
  12  -2  -6  248.98   15.10
 -12   2  -6  260.87   18.30
 -12  -2   6  259.87   14.50
  12   2   6  267.47   13.00
  14  -2   6   44.90    5.70
  14   2  -6   31.70    4.50
  14  -2   6   24.30    4.80
 -14  -2  -6   30.40    6.00
  14   2   6   39.30    4.60
  14  -2  -6   30.20    4.40
 -16  -2  -6   79.09    9.30
  16  -2   6   68.19    7.40
  16   2  -6   89.59    6.90
  16  -2  -6   79.99    6.70
 -16   2  -6   94.79   10.10
  16   2   6   72.09    6.40
 -18  -2  -6    5.00    5.40
  18  -2   6    7.60    3.70
  18   2  -6    6.00    4.10
 -18   2  -6   16.60    6.60
  18   2   6    8.90    3.70
  18  -2  -6   10.20    3.60
   0  -4   6  817.22   35.20
   0  -4   6  874.11   35.90
   0  -4  -6  865.91   35.00
   0   4   6  847.52   36.80
   0   4  -6  831.22   35.40
   0  -4  -6  802.42   35.40
   0   4   6  895.51   35.20
   2  -4   6  364.16   17.00
   2  -4   6  391.06   16.60
   2   4  -6  372.56   16.40
  -2   4   6  381.96   16.90
  -2  -4  -6  356.36   17.30
   2   4   6  352.26   15.90
  -2   4  -6  369.16   16.70
   2   4   6  382.16   18.90
  -2  -4   6  362.66   16.70
  -2  -4   6  330.07   16.10
   4  -4   6  584.44   25.70
   4  -4   6  545.55   25.10
  -4  -4  -6  579.64   26.60
   4   4  -6  555.44   24.00
  -4  -4   6  578.14   24.70
  -4  -4   6  566.14   25.20
   4  -4  -6  574.14   25.30
   4   4   6  638.34   28.20
   4   4   6  609.54   24.50
  -4   4  -6  591.94   25.50
   6  -4   6  175.78   10.20
   6   4  -6  173.88    9.40
   6   4  -6  184.98   10.70
  -6  -4  -6  185.98   11.30
  -6  -4  -6  221.48   12.60
  -6  -4   6  202.48   10.80
  -6  -4   6  204.78    9.70
  -6   4  -6  204.98   14.90
   6  -4  -6  224.18   11.30
   6   4   6  207.88    9.60
   8  -4   6  287.67   14.80
   8   4  -6  306.27   14.20
  -8  -4  -6  301.37   16.40
  -8  -4  -6  334.87   17.70
  -8  -4   6  320.07   14.60
  -8   4  -6  333.27   19.60
   8   4   6  315.67   14.20
  -8   4  -6  291.97   16.40
   8  -4  -6  303.07   15.40
  -8  -4   6  310.17   15.30
  10   4  -6   91.99    8.00
  10   4  -6   91.39    6.00
  10  -4   6   80.79    6.60
 -10  -4  -6   88.19    8.20
 -10  -4  -6  105.79   10.40
 -10   4  -6   99.89   12.10
  10  -4  -6  106.39    7.20
  10   4   6   93.29    6.00
 -10  -4   6   89.09    7.30
  12  -4   6  144.89    9.10
 -12  -4  -6  142.89   10.80
  12   4  -6  137.69    8.20
 -12   4  -6  143.59   16.20
  12  -4  -6  135.59    8.80
  12   4   6  136.19    8.20
 -12  -4   6  123.99    9.60
  14  -4   6   33.50    5.60
  14  -4   6   25.90    5.70
 -14  -4  -6   31.60    6.60
  14   4  -6   38.50    4.90
 -14  -4   6   25.50    6.10
  14  -4  -6   41.50    4.90
  14   4   6   40.30    4.70
 -16  -4  -6   48.90    8.40
  16  -4   6   50.39    7.60
  16  -4   6   59.09    7.40
  16   4  -6   61.99    6.00
  16   4   6   53.39    5.90
  16  -4  -6   59.99    6.10
 -16  -4   6   66.99    8.40
  18  -4   6   14.20    5.20
 -18  -4  -6   15.10    5.50
  18   4  -6    7.40    3.60
 -18  -4   6   -0.20    6.40
  18  -4  -6   17.00    4.30
  18   4   6   11.40    3.70
 -18   4  -6    7.90    6.50
   0  -6   6   40.60    3.50
   0   6   6   29.90    3.40
   0  -6   6   42.50    4.40
   0  -6  -6   22.70    3.10
  -2  -6  -6   24.90    3.90
  -2  -6  -6   30.60    3.90
   2  -6   6   26.40    3.40
   2  -6   6   28.30    4.40
  -2   6   6   30.90    4.30
  -2  -6   6   30.40    3.10
  -2   6  -6   25.80    3.60
  -2  -6   6   29.30    3.90
   2   6   6   31.80    3.70
  -4  -6  -6   78.39    6.30
   4  -6   6   86.49    6.00
   4   6  -6   97.29    6.50
   4  -6   6  109.59    7.20
  -4  -6  -6   91.29    7.50
   4   6   6   87.99    8.60
   4  -6  -6  104.89    6.70
  -4  -6   6  105.99    6.70
   4   6   6   87.19    5.60
  -4  -6   6  105.39    6.10
  -6  -6  -6  167.48   10.60
  -6  -6  -6  159.58    9.50
   6  -6   6  146.89    8.50
   6  -6   6  141.59    9.00
  -6  -6   6  155.48    8.30
   6   6   6  158.88   11.80
  -6  -6   6  156.18    8.90
   6   6   6  140.09    7.90
   6  -6  -6  143.49    9.20
   8  -6   6  207.98   10.00
   8  -6   6  202.28   10.90
  -8  -6  -6  200.38   12.10
  -8  -6  -6  190.78   13.00
  -8  -6   6  218.48   10.90
  -8   6  -6  210.58   15.80
   8   6   6  208.58   10.50
   8  -6  -6  232.08   12.10
  -8  -6   6  205.38   11.70
  10  -6   6  140.59    9.00
 -10  -6  -6  159.98   12.00
  10  -6   6  139.89    8.50
 -10  -6  -6  143.99   10.20
  10   6  -6  136.59    8.20
  10  -6  -6  140.99    9.30
 -10   6  -6  177.08   15.10
 -10  -6   6  160.38   10.10
  10   6   6  159.68    8.50
  12   6  -6   94.69    6.90
 -12  -6  -6  104.99    9.30
  12  -6   6   84.49   10.00
  12  -6  -6  111.59    7.80
  12   6   6  103.79    6.80
 -12  -6   6   97.69    8.90
 -14  -6  -6   60.99    7.80
  14  -6   6   58.69    7.10
  14   6  -6   64.49    6.30
  14   6   6   63.79    6.20
 -14  -6   6   59.69    7.40
  14  -6  -6   58.79    6.30
  16  -6   6   30.10    6.30
  16  -6   6   20.10    5.10
 -16  -6  -6   27.20    6.00
  16   6  -6   20.60    4.10
 -16  -6   6   39.70    6.80
  16  -6  -6   42.00    5.70
  18  -6   6   26.70    6.30
  18   6  -6   12.80    3.80
 -18  -6  -6   13.00    5.70
  18   6   6   15.60    3.90
  18  -6  -6   10.40    3.40
 -18  -6   6   29.50    7.10
   0  -8   6  441.16   19.90
   0   8  -6  424.76   19.80
   0  -8  -6  427.56   19.10
   0  -8  -6  423.66   18.60
   0  -8   6  423.76   19.40
   0   8   6  434.56   19.40
   2  -8   6  467.25   21.60
  -2  -8  -6  527.85   21.60
   2  -8   6  486.15   22.20
  -2  -8  -6  481.55   22.30
  -2   8   6  488.75   22.20
  -2  -8   6  447.46   21.30
  -2  -8   6  479.55   22.10
   2  -8  -6  500.45   20.50
   2   8   6  489.65   21.30
   4  -8   6  248.48   12.80
   4  -8   6  262.17   13.50
  -4  -8  -6  267.57   13.90
  -4  -8  -6  250.37   13.00
   4  -8  -6  271.47   13.30
  -4  -8   6  256.17   13.10
   4   8   6  270.17   12.40
  -4  -8   6  234.58   12.30
   6  -8   6  222.58   12.00
  -6  -8  -6  219.38   12.40
   6  -8   6  204.68   12.30
  -6  -8  -6  256.37   13.50
  -6  -8   6  233.98   12.60
   6   8   6  243.08   11.50
   6  -8  -6  250.17   13.00
  -6  -8   6  245.08   11.90
  -8  -8  -6  107.09    7.90
   8  -8   6   92.79    7.20
  -8  -8  -6  114.99    9.20
   8   8   6  120.99    7.00
  -8  -8   6  106.89    7.30
   8  -8  -6  133.89    8.70
  -8  -8   6  100.39    8.30
 -10  -8  -6  100.09    8.10
  10  -8   6   88.79    7.00
 -10  -8   6   94.89    7.20
  10   8   6  106.69    6.70
 -10   8  -6   92.19   13.20
  10  -8  -6  111.79    8.20
  12   8  -6   56.29    6.10
 -12  -8  -6   39.40    6.20
  12  -8   6   45.30    5.70
 -12  -8   6   47.50    5.80
  12  -8  -6   54.89    5.80
  12   8   6   54.29    5.20
  14  -8   6   34.70    6.10
 -14  -8  -6   57.89    8.00
  14   8  -6   51.49    6.40
  14   8   6   48.70    5.60
  14  -8  -6   61.69    6.30
 -14  -8   6   55.99    7.30
  16  -8   6   16.00    5.80
 -16  -8  -6   25.80    6.40
  16  -8   6   14.00    7.30
  16   8  -6   19.00    4.90
 -16  -8   6   22.90    5.80
  16  -8  -6   25.80    4.60
  16   8   6   19.70    3.90
  18  -8   6   18.10    6.40
 -18  -8  -6   12.10    5.10
  18  -8   6   12.10    7.10
  18   8  -6   10.90    4.00
  18  -8  -6   17.50    4.10
 -18  -8   6   21.20    5.70
  18   8   6   20.40    4.60
   0 -10   6   24.60    4.30
   0  10   6   17.30    3.60
   0 -10  -6   13.00    2.80
   0 -10   6   19.20    3.50
  -2 -10  -6   61.89    5.60
   2 -10   6   69.19    6.20
   2 -10   6   56.69    4.90
  -2  10   6   63.99    6.00
   2  10   6   62.69    5.20
  -2 -10   6   60.09    4.80
  -2 -10   6   60.89    6.00
   2 -10  -6   59.49    4.60
   4 -10   6   51.89    5.10
  -4 -10  -6   42.10    5.50
  -4 -10  -6   57.59    5.10
   4 -10   6   51.09    6.10
  -4 -10   6   43.20    5.40
  -4 -10   6   52.59    4.70
   4 -10  -6   52.49    5.60
   4  10   6   44.80    4.60
  -6 -10  -6  144.59   10.10
  -6 -10  -6  150.68    8.90
   6 -10   6  141.89    8.70
   6 -10   6  134.69    9.60
   6 -10  -6  128.89    9.70
  -6 -10   6  142.49    8.40
  -6 -10   6  137.19    9.40
   6  10   6  142.79    8.30
  -8 -10  -6   79.79    9.30
   8 -10   6   74.89    7.90
   8 -10   6   80.39    6.40
   8  10   6   78.99    5.90
   8 -10  -6   83.79   10.30
  -8 -10   6   76.39    6.40
 -10 -10  -6  110.09    8.70
  10 -10   6  117.49    8.20
 -10 -10   6  110.69    8.00
  10 -10  -6   98.19    8.60
  10  10   6  117.99    7.50
 -12 -10  -6   50.39    6.60
  12  10  -6   52.39    6.50
  12 -10   6   54.69    7.00
  12  10   6   48.90    5.10
  12 -10  -6   49.10    6.40
 -12 -10   6   43.90    5.80
  14 -10   6   44.40    6.90
 -14 -10  -6   47.70    7.00
  14  10  -6   50.99    6.50
 -14 -10   6   54.89    7.00
  14  10   6   47.20    5.60
  14 -10  -6   36.50    5.40
  16  10  -6   24.40    5.40
  16 -10   6   21.20    6.20
 -16 -10  -6    9.70    4.30
  16 -10  -6   15.60    4.60
  16  10   6   14.30    3.70
 -16 -10   6    8.90    4.60
   0 -12   6  241.98   12.60
   0 -12  -6  246.18   12.50
   0  12   6  223.38   12.70
  -2  12   6  268.17   14.60
   2 -12   6  261.87   13.50
  -2 -12  -6  273.77   13.90
   2 -12   6  259.37   16.10
   2  12   6  272.37   13.50
   2 -12  -6  269.37   13.20
  -2 -12   6  236.38   13.10
  -4 -12  -6  127.09    8.10
   4 -12   6  129.19    8.40
  -4 -12  -6  128.89    9.00
  -4 -12   6  122.49    8.10
   4 -12  -6  136.69    9.50
   6 -12   6  116.99    8.30
  -6 -12   6  113.89    7.80
   6 -12  -6  125.89   10.00
   6  12   6  125.39    7.90
   8 -12   6   44.50    6.10
  -8 -12  -6   52.09    6.00
  -8 -12   6   39.80    5.20
   8  12   6   49.10    5.50
   8 -12  -6   38.70    6.50
  10 -12   6   60.19    6.50
 -10 -12  -6   48.50    6.20
  10  12   6   56.59    5.70
 -10 -12   6   54.79    5.90
  10 -12  -6   57.49    7.80
 -12 -12  -6   22.10    4.90
  12  12  -6   23.40    5.40
  12 -12   6   14.20    4.80
  12  12   6   22.10    4.10
 -12 -12   6   21.50    4.50
  12 -12  -6   22.10    4.90
 -14 -12  -6   17.90    4.40
  14 -12   6   27.30    6.30
  14  12  -6   20.00    5.50
 -14 -12   6   13.30    3.90
  14 -12  -6   32.30    6.00
  14  12   6   22.40    4.10
   0  14   6   17.80    4.70
   0 -14   6   18.20    4.00
   0 -14  -6   12.30    3.60
  -2  14   6   34.70    6.50
  -2 -14  -6   21.50    4.60
   2 -14   6   31.50    4.90
   2  14   6   31.40    5.00
  -2 -14   6   20.50    3.90
   4 -14   6   32.10    5.30
  -4 -14  -6   23.60    4.70
  -4 -14   6   33.70    4.90
   4 -14  -6   28.20    5.90
   4  14   6   20.40    4.10
   6 -14   6   53.19    6.10
  -6 -14  -6   53.19    5.80
   6 -14  -6   33.60    6.50
   6  14   6   47.20    5.90
  -6 -14   6   51.99    5.70
   8 -14   6   62.19    7.50
  -8 -14  -6   51.49    6.50
   8  14   6   45.60    5.60
   8 -14  -6   45.40    7.90
  -8 -14   6   29.00    4.50
  10 -14   6   42.30    6.50
 -10 -14  -6   39.90    5.90
  10 -14  -6   61.49    8.50
 -10 -14   6   47.90    6.30
  10  14   6   46.10    5.80
  12 -14   6   21.90    5.60
 -12 -14  -6   22.80    4.80
  12  14   6   32.90    5.70
 -12 -14   6   24.70    4.90
  12 -14  -6   33.60    6.60
 -14 -14  -6   19.60    4.80
  14 -14   6   14.50    6.40
 -14 -14   6    9.60    4.00
  14  14   6   18.50    4.70
  14 -14  -6   10.40    4.60
   0  16   6   90.29    9.50
   0 -16   6   97.49    7.70
  -2 -16  -6   94.49    7.40
   2 -16   6   75.39    7.30
  -2 -16   6   86.49    7.20
   2  16   6  103.29    8.70
  -4 -16  -6   51.49    5.90
   4 -16   6   52.29    6.50
  -4 -16   6   55.69    5.70
   4 -16  -6   35.90    6.80
   4  16   6   51.79    6.60
  -6 -16  -6   22.80    4.10
   6 -16   6   20.90    4.90
   6 -16  -6   21.70    6.30
   6  16   6   40.90    5.90
  -6 -16   6   42.80    5.90
  -8 -16  -6   13.30    4.50
   8 -16   6   28.20    6.20
  -8 -16   6   15.40    3.80
   8  16   6   23.70    5.00
   8 -16  -6   23.70    7.00
  10 -16   6   13.80    5.40
 -10 -16  -6   11.10    4.30
  10  16   6   10.40    4.30
  10 -16  -6   15.30    5.80
 -10 -16   6   11.70    3.80
   0 -18   6    1.00    2.90
   0  18   6    7.50    5.90
   2 -18   6    2.80    3.30
  -2 -18  -6    9.60    4.10
  -2 -18   6    3.00    3.20
   2 -18  -6    8.90    6.00
   2  18   6    3.30    5.00
  -4 -18  -6   12.50    4.30
   4 -18   6    7.50    4.30
  -4 -18   6    6.20    3.10
   4 -18  -6   12.40    6.40
   4  18   6    9.10    4.60
   6 -18   6   19.50    5.50
  -6 -18  -6   11.60    4.20
   6  18   6    7.50    4.60
   6 -18  -6   11.50    7.10
  -6 -18   6   13.30    3.80
  -8 -18  -6   10.90    3.60
   8 -18   6   12.20    5.60
   8  18   6   15.30    4.60
  -8 -18   6   15.20    4.40
   8 -18  -6    9.30    6.70
  -1  -1  -7   41.00    3.50
   1  -1   7   38.10    4.10
  -1   1   7   38.50    3.80
   1  -1  -7   37.40    3.20
  -1   1  -7   36.30    3.60
  -3  -1  -7   71.09    5.20
   3   1  -7   78.49    4.50
   3   1  -7   56.49    5.60
   3  -1   7   76.59    5.00
  -3  -1  -7   67.69    7.30
  -3   1   7   72.49    4.50
   3   1   7   69.29    4.20
  -3   1  -7   66.79    8.70
   3  -1  -7   67.19    5.20
  -3  -1   7   75.29    5.20
  -3   1  -7   74.39    5.40
   3   1   7   70.09    4.50
  -5  -1  -7   93.09    9.00
  -5   1  -7   82.89    9.80
   5  -1  -7  103.19    6.90
  -5   1  -7   92.89    6.80
   7   1  -7   54.69    4.70
  -7   1   7   41.80    3.60
   7  -1   7   43.30    4.40
  -7  -1  -7   57.59    8.70
  -7  -1   7   40.40    4.40
  -7   1  -7   42.80    5.30
   7   1   7   47.90    4.60
  -7   1  -7   65.19   10.00
   7  -1  -7   42.40    5.00
   7   1   7   43.20    3.60
  -9  -1  -7   -0.30    4.20
   9   1  -7   10.70    2.60
  -9  -1   7   13.10    2.50
  -9  -1   7    7.10    2.30
   9  -1  -7   14.20    2.90
  -9   1  -7    8.20    5.00
   9   1   7    7.20    2.70
   9   1   7    8.60    1.90
  11   1  -7   -1.10    3.30
 -11  -1  -7    5.40    5.20
 -11   1   7    6.50    2.80
  11   1  -7    3.60    1.90
  11  -1   7    3.00    2.60
  11   1   7    2.30    2.60
 -11  -1   7    7.80    3.70
  11   1   7    2.30    2.30
 -11   1  -7    5.00    5.10
  11  -1  -7    5.50    2.90
  13   1  -7    2.10    2.70
  13  -1   7    0.30    2.80
  13  -1   7    4.00    2.60
  13  -1  -7    2.90    2.30
 -13  -1   7    1.60    4.20
  13   1   7    6.10    2.80
  15   1  -7    5.50    2.90
  15  -1   7    0.00    3.00
 -15  -1  -7    3.00    4.20
  15  -1  -7    0.40    2.70
  15   1   7   -2.00    2.60
  17  -1   7    0.30    3.10
  17   1  -7   -0.60    2.80
 -17  -1  -7    0.60    5.20
 -17   1  -7   -0.10    4.60
  17  -1  -7    2.40    3.00
  17   1   7    2.00    2.90
  19   1  -7   -1.90    3.00
  19  -1   7    4.80    3.60
 -19  -1  -7   -5.60    5.40
 -19   1  -7   -5.90    4.90
  19  -1  -7    0.00    3.00
  19   1   7   -1.60    3.50
  -1  -3  -7   99.19    6.00
   1  -3   7   90.49    5.80
  -1   3   7  100.99    6.10
   1   3  -7   96.39    5.80
   1  -3   7   96.99    6.30
  -1  -3  -7   89.79    6.60
   1  -3  -7   97.39    6.20
   1   3   7   92.49    5.40
  -1  -3   7   86.69    5.70
  -1  -3   7   97.19    6.50
   1   3   7   91.89    5.50
  -1   3  -7   95.49    5.90
   3  -3   7   -2.70    1.60
   3   3  -7    0.90    1.30
   3   3  -7   -0.70    1.40
   3  -3   7    0.50    1.90
  -3  -3  -7    2.30    2.60
   3   3   7    2.40    1.60
  -3  -3   7    1.50    1.60
  -3  -3   7    2.80    1.80
   3  -3  -7    0.30    2.10
  -3   3  -7    0.00    1.60
   3   3   7   -1.00    1.50
   5   3  -7  164.28    8.90
   5   3  -7  150.38    8.10
   5  -3   7  145.69    8.70
  -5  -3  -7  159.08   10.90
   5   3   7  162.98    8.70
   5   3   7  168.38    8.10
   5  -3  -7  175.58    9.80
   5   3   7  178.78   12.60
  -5   3  -7  171.38    9.30
  -5   3  -7  148.49   13.00
  -5  -3   7  170.18    9.10
  -5  -3   7  150.68    8.30
   7  -3   7   -0.80    2.00
   7   3  -7   -1.30    2.00
   7   3  -7   -0.50    1.60
  -7  -3  -7    0.50    2.80
   7   3   7   -2.60    1.70
   7   3   7    0.30    1.60
   7  -3  -7    1.00    2.70
  -7  -3   7    2.10    2.10
  -7   3  -7   -0.30    3.70
  -7  -3   7   -1.20    1.80
   9  -3   7   45.30    4.60
   9  -3   7   51.79    4.90
   9   3  -7   50.89    4.40
  -9  -3  -7   51.29    7.90
   9  -3  -7   49.10    5.30
   9   3   7   47.70    4.20
  -9   3  -7   39.90    7.30
  -9  -3   7   50.29    5.90
  11   3  -7   12.50    2.90
  11  -3   7   10.40    3.30
 -11  -3  -7    3.90    3.80
 -11   3  -7   11.20    6.20
 -11  -3   7    9.70    3.80
  11  -3  -7   13.60    3.90
  11   3   7   14.20    3.40
 -13  -3  -7   12.00    5.30
  13   3  -7    4.60    2.70
  13  -3   7    4.90    3.60
 -13  -3   7   11.20    5.20
  13   3   7    9.30    3.00
  13  -3  -7    4.50    2.70
  15   3  -7    3.50    3.20
  15  -3   7    4.90    3.50
 -15  -3  -7    7.50    4.80
  15  -3   7    6.00    4.40
  15   3   7    4.10    2.70
  15  -3  -7   13.60    3.90
  17  -3   7   -0.60    3.90
  17   3  -7    0.60    2.90
 -17  -3  -7    8.10    5.40
  17  -3  -7    1.80    3.00
  17   3   7    1.90    2.70
 -17   3  -7   -2.30    4.60
  19  -3   7    4.00    4.50
  19   3  -7    1.90    3.50
 -19  -3  -7    1.40    4.70
  19   3   7   -2.80    3.60
  19  -3  -7    4.00    3.10
 -19   3  -7   -1.70    6.60
  -1  -5  -7   24.00    3.20
  -1   5   7   34.80    3.80
  -1  -5  -7   38.00    4.30
   1   5  -7   34.00    3.50
   1  -5   7   32.40    4.40
   1  -5   7   27.30    3.40
  -1  -5   7   26.60    3.20
  -1  -5   7   46.70    4.80
   1  -5  -7   35.20    3.60
   1   5   7   35.10    3.40
  -1   5  -7   31.30    4.00
  -3  -5  -7  109.39    7.50
   3  -5   7  124.29    8.00
   3  -5   7  130.59    7.50
  -3  -5  -7  119.89    8.40
  -3  -5   7  142.99    7.40
  -3  -5   7  129.19    7.70
   3   5   7  112.09    6.80
  -3   5  -7  124.99    7.60
   5   5  -7   27.90    4.00
  -5  -5  -7   37.10    4.90
  -5  -5  -7   38.90    5.70
   5  -5   7   32.60    4.70
  -5  -5   7   32.70    4.20
  -5  -5   7   25.90    3.80
   5  -5  -7   40.60    4.80
   5   5   7   35.80    3.30
   7  -5   7   76.79    4.80
  -7  -5  -7   74.89    6.50
  -7  -5  -7   80.09    8.20
   7  -5   7   71.19    5.80
   7  -5  -7   83.49    7.10
  -7   5  -7  112.09   13.90
  -7  -5   7   80.89    6.40
  -7  -5   7   74.89    5.50
   7   5   7   75.59   11.20
   7   5   7   70.99    5.00
   9  -5   7   10.80    3.10
   9   5  -7   11.40    2.70
  -9  -5  -7   16.20    4.40
  -9  -5  -7   11.10    4.60
  -9  -5   7   18.60    4.20
   9   5   7   19.80    3.20
   9  -5  -7   22.40    4.80
  -9   5  -7    8.20    5.50
  11   5  -7   18.10    3.70
  11  -5   7   13.40    3.60
 -11  -5  -7   17.30    4.80
  11   5   7   21.00    3.70
 -11  -5   7   21.30    5.40
  11  -5  -7   14.00    3.90
 -13  -5  -7    9.90    4.60
  13  -5   7    7.70    3.50
  13   5  -7   11.70    3.60
 -13  -5   7   12.60    5.60
  13   5   7    8.80    3.20
  13  -5  -7   14.40    3.80
  15  -5   7   -0.40    3.90
  15   5  -7    8.50    3.60
  15  -5   7   13.10    4.30
 -15  -5  -7    7.00    5.00
 -15  -5   7    7.40    4.80
  15  -5  -7    3.10    3.10
  15   5   7    5.30    2.70
  17   5  -7    2.20    3.20
  17  -5   7    1.80    4.50
 -17  -5  -7    1.90    4.40
  17  -5   7    0.70    4.30
  17  -5  -7    3.10    3.30
  17   5   7    4.50    3.10
  19   5   7    3.50    3.50
   1  -7   7   50.69    4.60
   1  -7   7   53.99    5.30
  -1   7   7   52.49    4.90
  -1  -7  -7   57.39    4.90
  -1   7  -7   49.99    4.90
   1   7   7   57.29    4.50
  -1  -7   7   51.69    5.20
  -1  -7   7   49.90    4.60
   1  -7  -7   48.10    4.10
  -3  -7  -7    3.70    2.10
  -3   7   7   -0.20    2.20
   3  -7   7   -2.70    1.90
  -3  -7  -7   -1.00    2.20
   3  -7   7    0.20    2.10
  -3  -7   7   -0.90    1.60
   3   7   7   -3.60    1.70
  -3  -7   7   -0.70    1.80
   5  -7   7   84.99    6.20
  -5  -7  -7  107.19    8.00
   5  -7   7   80.99    6.90
  -5  -7  -7   78.09    6.40
  -5  -7   7   90.99    6.80
   5  -7  -7   91.59    7.00
  -5  -7   7   92.09    6.00
   5   7   7   85.19    5.90
  -7  -7  -7    2.20    3.00
  -7  -7  -7    0.50    2.70
   7  -7   7    0.30    2.00
   7   7  -7    1.50    2.30
   7   7   7   -0.60    1.30
   7  -7  -7    0.50    2.60
  -7  -7   7   -1.40    2.00
  -7  -7   7   -2.50    2.10
   9  -7   7   18.50    3.80
  -9  -7  -7   26.30    5.50
  -9  -7  -7   29.80    5.10
   9  -7  -7   30.40    4.80
  -9  -7   7   22.80    3.80
  -9  -7   7   17.30    3.80
   9   7   7   27.10    3.60
  -9   7  -7   22.40    7.30
  11  -7   7    1.80    3.00
 -11  -7  -7    1.10    3.50
  11   7   7   12.10    3.00
  11  -7  -7    7.40    3.50
  13   7  -7    5.20    3.20
 -13  -7  -7    7.90    3.80
  13  -7   7    5.50    3.10
  13  -7  -7    9.50    3.80
  13   7   7    5.30    2.60
 -13  -7   7   -1.80    3.40
  15  -7   7   -0.20    6.10
 -15  -7  -7    9.30    4.30
  15  -7   7    5.90    4.40
  15   7  -7    7.10    3.60
  15  -7  -7    3.10    3.30
  15   7   7    4.10    2.70
 -15  -7   7    5.20    4.30
  17   7  -7    2.20    3.60
  17  -7   7    2.70    5.00
  17  -7   7    8.50    5.50
 -17  -7  -7    0.40    4.00
  17   7   7    2.30    3.10
  17  -7  -7    2.50    3.40
 -17  -7   7    0.40    5.10
   1  -9   7    1.60    2.10
   1  -9   7    2.60    2.00
  -1  -9  -7    1.30    3.10
  -1   9   7    6.10    2.90
   1   9   7    3.30    1.90
  -1  -9   7   -1.10    2.30
  -1  -9   7    2.00    2.00
   1  -9  -7    3.10    2.10
   3  -9   7   44.20    4.60
  -3  -9  -7   31.80    4.80
  -3  -9  -7   36.00    4.60
  -3   9   7   46.00    6.50
   3  -9   7   45.60    6.20
  -3  -9   7   42.00    4.20
   3   9   7   26.70    3.70
  -3  -9   7   35.10    5.10
   5  -9   7    9.30    3.10
   5  -9   7    5.90    2.70
  -5  -9  -7   10.60    3.30
  -5  -9  -7   10.70    3.10
   5   9   7   13.60    2.70
  -5  -9   7   11.10    3.00
  -5  -9   7    8.80    3.20
   5  -9  -7    8.40    3.60
  -7  -9  -7   28.50    5.60
   7  -9   7   19.90    3.70
   7  -9   7   21.90    4.50
  -7  -9  -7   27.20    4.50
  -7  -9   7   22.80    4.10
   7   9   7   25.10    4.00
   7  -9  -7   22.10    4.80
  -7  -9   7   26.80    4.10
  -9  -9  -7    2.70    2.70
   9  -9   7   -1.60    2.40
   9  -9  -7    3.60    3.60
  -9  -9   7   -3.20    2.30
   9   9   7    0.00    1.90
  11  -9   7   -0.70    3.00
 -11  -9  -7    2.20    3.20
  11   9   7    4.70    2.60
 -11  -9   7    1.70    2.80
  11  -9  -7    4.10    4.10
  13   9  -7   -1.70    3.60
  13  -9   7    0.70    3.40
 -13  -9  -7    1.40    3.30
 -13  -9   7   -3.80    3.40
  13  -9  -7   -0.50    3.30
  13   9   7    3.20    2.80
  15  -9   7   -6.40    3.60
  15   9  -7   -8.20    3.70
 -15  -9  -7   -0.10    4.00
 -15  -9   7    0.70    4.20
  15  -9  -7    1.60    3.20
  15   9   7   -1.10    2.30
  17   9  -7    0.00    4.00
 -17  -9  -7   -0.70    4.20
  17  -9   7   -1.90    5.00
 -17  -9   7   -1.60    4.80
  17  -9  -7    4.40    3.90
  17   9   7    1.90    2.70
  -1  11   7    5.30    3.20
   1 -11   7    2.40    2.10
  -1 -11  -7    3.20    2.40
   1 -11   7    1.40    3.10
   1 -11  -7    5.30    2.60
  -1 -11   7    0.00    2.70
   1  11   7    5.20    2.40
  -1 -11   7    4.30    2.90
   3 -11   7    6.80    4.20
  -3  11   7    3.70    3.40
  -3 -11  -7    8.60    3.60
   3 -11   7    9.60    3.40
  -3 -11   7   10.60    3.00
   3  11   7   15.60    3.60
  -5 -11  -7   19.00    4.50
  -5 -11  -7   12.90    3.60
   5 -11   7   18.20    4.00
   5  11   7   17.20    3.90
  -5 -11   7   18.90    3.70
   7 -11   7    3.10    2.90
  -7 -11  -7    7.70    3.60
   7 -11  -7    6.70    4.30
  -7 -11   7    5.70    2.80
   7  11   7    5.70    2.90
  -9 -11  -7    3.40    3.10
   9 -11   7    7.90    3.50
  -9 -11   7    5.30    2.80
   9 -11  -7    4.00    4.50
   9  11   7    4.10    2.80
  11 -11   7    6.70    3.40
 -11 -11  -7    2.80    3.10
  11 -11  -7    1.00    4.10
  11  11   7   -2.90    2.00
 -11 -11   7   -2.90    2.60
  13 -11   7    2.80    3.70
  13  11  -7    1.00    4.60
 -13 -11  -7    9.00    4.20
  13  11   7   -1.80    2.40
 -13 -11   7   -3.00    3.10
  13 -11  -7    1.00    3.40
  15  11  -7   -1.40    4.80
  15 -11   7    4.30    4.90
 -15 -11  -7    1.40    3.90
  15  11   7   -1.80    2.20
  15 -11  -7    0.40    3.50
 -15 -11   7   -1.50    3.70
  -1 -13  -7    2.50    3.00
   1 -13   7    2.60    2.30
  -1  13   7    4.80    3.90
  -1 -13   7    2.40    2.90
   1 -13  -7    3.20    2.90
   1  13   7    4.50    3.10
  -3 -13  -7    6.60    4.10
   3 -13   7    6.20    2.90
   3  13   7    3.40    2.60
  -3 -13   7    2.30    2.40
   5 -13   7   13.00    4.20
  -5 -13  -7   14.80    3.60
   5  13   7    9.50    3.30
   5 -13  -7    8.30    4.70
  -5 -13   7   11.60    3.40
   7 -13   7    5.90    3.60
  -7 -13  -7    1.00    2.90
   7 -13  -7    4.60    4.60
   7  13   7    1.70    2.70
  -7 -13   7    0.50    2.70
  -9 -13  -7   -0.80    3.20
   9 -13   7    3.00    3.40
  -9 -13   7    0.20    2.70
   9 -13  -7    1.20    4.50
   9  13   7    1.30    2.70
 -11 -13  -7    4.40    3.70
  11 -13   7   -0.70    3.50
  11 -13  -7    0.80    4.30
 -11 -13   7    2.50    3.30
  11  13   7    1.00    3.10
  13  13  -7   -9.60    5.80
 -13 -13  -7   -0.80    3.20
  13 -13   7   -5.00    4.00
  13 -13  -7   -4.30    3.60
 -13 -13   7   -0.10    3.30
  13  13   7    4.30    3.30
  -1  15   7   -2.30    3.90
   1 -15   7    2.60    2.80
   1  15   7    0.20    3.50
  -1 -15   7    2.70    2.80
  -3 -15  -7    6.70    3.40
   3 -15   7    3.50    3.20
   3  15   7    5.40    3.30
  -3 -15   7    4.70    3.00
   3 -15  -7    3.50    4.80
   5 -15   7    6.70    3.60
  -5 -15  -7    5.20    3.70
   5  15   7    2.20    3.20
   5 -15  -7   -2.80    4.80
  -5 -15   7    7.60    3.10
   7 -15   7    4.90    4.00
  -7 -15  -7    3.10    3.50
  -7 -15   7    1.30    3.20
   7  15   7    5.70    3.40
   7 -15  -7   10.20    5.70
   9 -15   7    2.40    3.80
  -9 -15  -7   -1.40    3.10
   9 -15  -7   -8.60    5.10
  -9 -15   7    1.50    2.80
   9  15   7    2.90    3.20
 -11 -15  -7    1.30    3.30
  11 -15   7    4.80    4.20
  11 -15  -7   -0.30    5.10
  11  15   7    5.50    3.50
 -11 -15   7   -3.00    2.60
   1 -17   7    1.00    3.00
  -1  17   7   -3.00    4.50
  -1 -17  -7    2.20    4.10
   1  17   7   -3.40    4.40
  -1 -17   7    2.80    3.10
   3 -17   7    1.40    3.30
  -3 -17  -7    0.70    3.80
  -3 -17   7    6.00    3.40
   3 -17  -7   -6.10    4.90
   3  17   7   -0.10    4.00
   5 -17   7    1.30    3.60
  -5 -17  -7   -3.70    3.00
  -5 -17   7    8.30    3.60
   5  17   7    0.90    3.60
   5 -17  -7   -1.40    5.40
   7 -17   7    0.60    3.90
  -7 -17  -7    0.50    3.10
   7  17   7   -0.10    3.30
  -7 -17   7    2.70    3.00
   7 -17  -7   -9.40    5.60
   9 -17   7    1.90    4.20
  -9 -17  -7    2.10    4.00
   9  17   7    1.20    3.80
  -9 -17   7    1.60    3.50
   9 -17  -7    5.60    5.90
   1 -19   7   -2.00    3.10
   1  19   7    0.10    5.60
  -1 -19   7    2.40    3.10
   1 -19  -7    1.50    6.40
   3 -19   7   -0.40    3.70
   3 -19  -7    2.20    6.40
   3  19   7    3.30    5.40
  -3 -19   7   -1.20    2.90
  -5 -19  -7    3.40    3.80
   5 -19   7   -0.80    4.10
   5  19   7    9.60    5.50
  -5 -19   7    0.10    3.20
   0   0   8 2765.82  118.59
   0   0  -8 3034.60  118.19
   0   0   8 2941.21  118.29
   0   0   8 3048.99  117.89
   2   0   8 1456.65   62.29
   2   0   8 1488.65   61.79
  -2   0  -8 1580.44   65.99
   2   0  -8 1570.14   61.99
  -2   0   8 1513.95   62.49
   2   0  -8 1601.84   62.49
  -4   0  -8 1873.41   80.09
   4   0   8 1898.21   75.49
   4   0  -8 1905.81   76.79
  -4   0   8 1885.51   76.09
   4   0   8 1846.82   76.39
  -6   0   8  559.24   23.60
  -6   0  -8  589.44   28.80
  -6   0   8  543.25   24.00
   6   0  -8  541.15   24.90
   6   0   8  566.64   24.70
   8   0   8  657.03   28.50
   8   0  -8  650.93   28.20
  -8   0  -8  635.04   32.40
  -8   0   8  633.04   27.60
 -10   0   8  138.89    8.80
  10   0  -8  143.19    8.60
 -10   0  -8  146.29   14.10
  10   0   8  137.39    9.10
  12   0   8  179.58   10.80
  12   0  -8  217.68   11.40
  12   0   8  213.88   12.10
  14   0  -8   50.39    5.50
  14   0   8   35.90    5.10
 -16   0  -8   71.09    9.10
  16   0   8   81.29    7.60
  16   0  -8   75.49    6.70
  18   0  -8    7.00    3.40
 -18   0  -8   10.20    5.50
  18   0   8   16.80    5.40
   0  -2  -8 1328.27   54.19
   0  -2   8 1357.46   54.99
   0  -2   8 1417.36   54.59
   0   2   8 1275.47   54.09
   0  -2  -8 1247.48   55.69
   0   2   8 1335.17   53.69
   2  -2   8  633.64   28.50
  -2  -2  -8  691.23   30.80
  -2  -2  -8  675.23   28.80
   2   2  -8  649.43   28.30
  -2   2   8  677.33   29.10
   2   2  -8  667.13   28.20
   2   2   8  670.13   27.90
   2   2   8  692.93   28.20
  -2   2  -8  679.73   28.90
  -2  -2   8  646.54   28.90
   2  -2  -8  679.43   29.60
  -2  -2   8  651.83   28.30
   4  -2   8 1188.18   48.50
   4   2  -8 1108.69   48.10
  -4  -2  -8 1230.38   51.39
   4  -2  -8 1188.68   48.70
  -4  -2   8 1211.18   48.00
  -4  -2   8 1164.48   48.50
   4   2   8 1190.58   48.20
  -4   2  -8 1082.89   52.69
   4   2   8 1135.39   47.50
   6   2  -8  454.15   21.30
   6  -2   8  523.45   22.00
  -6  -2  -8  502.05   25.10
  -6  -2   8  469.15   21.80
   6   2   8  502.45   21.00
  -6   2  -8  475.15   26.30
   6  -2  -8  487.05   22.40
   6   2   8  472.25   21.80
  -8  -2  -8  705.13   33.90
   8  -2   8  726.13   30.60
   8   2  -8  749.82   30.10
   8  -2   8  640.74   30.30
   8   2   8  699.03   30.70
  -8   2  -8  704.53   35.40
   8   2   8  684.53   29.60
   8  -2  -8  707.03   31.00
  -8  -2   8  679.13   30.50
  10  -2   8  196.58   10.90
  10   2  -8  190.88   10.20
 -10  -2  -8  197.58   15.00
  10   2   8  187.18   11.10
  10  -2  -8  192.88   10.80
 -10  -2   8  192.38   11.30
  10   2   8  195.58    9.90
 -10   2  -8  159.48   15.10
  12  -2   8  252.07   14.10
  12   2  -8  264.07   13.60
 -12  -2   8  260.87   15.10
  12  -2  -8  266.57   13.60
 -14  -2  -8   52.19    8.30
  14   2  -8   46.40    5.80
  14  -2   8   50.49    6.10
  14  -2   8   52.99    6.30
  14   2   8   51.19    5.90
  14  -2  -8   51.79    5.50
  16  -2   8   69.19    7.60
  16   2  -8   66.19    6.50
 -16  -2  -8   72.79    9.20
  16  -2  -8   72.49    6.50
  16   2   8   74.59    7.10
 -18  -2  -8   15.70    5.90
  18   2  -8   14.80    4.00
  18  -2   8    7.90    4.40
  18   2   8   17.40    4.70
  18  -2  -8   13.90    3.90
 -18   2  -8    0.80    5.10
   0  -4  -8 1908.21   82.69
   0  -4  -8 2014.60   81.89
   0   4  -8 2193.68   85.19
   0  -4   8 1991.80   82.79
   0  -4   8 2059.89   82.39
   0   4   8 2011.90   82.09
   2  -4   8 1158.38   54.09
   2  -4   8 1364.26   55.69
  -2   4   8 1396.06   56.09
  -2  -4  -8 1382.66   56.79
   2  -4   8 1373.86   56.19
  -2   4  -8 1322.97   55.59
   2   4   8 1388.76   55.09
  -2  -4   8 1339.07   55.99
   2   4   8 1356.16   54.89
  -2  -4   8 1345.17   55.29
   2  -4  -8 1384.46   54.89
   4  -4   8 1262.37   51.89
  -4  -4  -8 1261.27   52.99
   4   4  -8 1240.78   50.99
   4  -4   8 1236.68   51.29
  -4  -4   8 1227.48   51.39
   4   4   8 1161.38   54.89
  -4  -4   8 1271.67   50.89
   4  -4  -8 1224.08   51.29
   4   4   8 1226.48   50.99
   4   4   8 1199.08   50.19
   6  -4   8  554.74   24.10
   6  -4   8  504.05   22.40
  -6  -4  -8  565.54   26.50
  -6  -4   8  527.25   24.30
   6  -4  -8  520.05   24.50
  -6   4  -8  562.74   29.30
   6   4   8  507.95   23.10
  -6  -4   8  538.45   23.70
   6   4   8  585.14   28.60
   6   4   8  537.65   24.20
  -8  -4  -8  437.56   22.70
   8  -4   8  416.16   19.80
  -8  -4  -8  419.36   21.40
   8   4  -8  402.96   20.90
   8   4  -8  436.36   19.20
   8  -4   8  457.65   19.10
   8  -4  -8  411.06   20.30
  -8  -4   8  422.96   19.60
  -8   4  -8  415.76   24.70
  -8  -4   8  419.76   20.30
   8   4   8  428.96   19.00
  10   4  -8  151.18    8.50
 -10  -4  -8  158.08   11.10
  10  -4   8  144.79    9.30
 -10  -4   8  145.59   10.20
  10   4   8  147.09    8.60
 -10   4  -8  160.28   16.10
  10  -4  -8  148.69    9.60
  12   4  -8  145.59    8.70
  12  -4   8  139.99    9.50
 -12  -4  -8  138.99   11.30
 -12  -4   8  139.89   10.80
  12  -4  -8  141.89    9.30
  12   4   8  144.19    8.60
  14   4  -8   48.80    5.90
  14  -4   8   54.69    7.00
  14  -4   8   46.90    6.50
 -14  -4  -8   40.10    7.00
  14  -4  -8   55.99    6.00
  14   4   8   45.80    5.40
  16   4  -8   47.10    6.00
  16  -4   8   48.20    7.20
  16  -4   8   67.29    8.50
 -16  -4  -8   49.30    8.40
  16   4   8   52.49    5.90
  16  -4  -8   60.89    6.30
 -18  -4  -8   10.00    5.40
  18   4  -8    7.60    3.60
  18  -4   8   12.90    5.10
 -18   4  -8   11.30    6.10
  18  -4  -8   14.70    3.90
  18   4   8   18.60    4.50
   0  -6   8  484.55   22.20
   0   6  -8  470.75   21.70
   0  -6   8  505.15   21.80
   0  -6  -8  478.75   21.10
   0  -6  -8  469.85   21.60
   0   6   8  478.15   21.50
  -2  -6  -8  495.65   22.50
   2  -6   8  493.45   22.70
  -2   6   8  515.15   23.20
  -2  -6  -8  524.65   23.60
   2  -6   8  511.55   23.40
  -2  -6   8  482.15   22.60
   2   6   8  504.35   22.30
  -2  -6   8  533.15   23.30
   4  -6   8  457.15   21.10
   4  -6   8  472.45   21.90
  -4  -6  -8  483.75   22.50
  -4  -6  -8  435.56   21.30
  -4  -6   8  485.35   21.00
  -4  -6   8  474.95   21.50
   4   6   8  447.46   20.50
   4  -6  -8  458.65   21.40
  -6  -6  -8  414.76   19.60
  -6  -6  -8  391.66   20.40
   6  -6   8  393.76   18.60
   6  -6   8  382.16   19.20
  -6  -6   8  419.06   19.20
  -6  -6   8  420.26   18.40
   6   6   8  414.06   18.00
   6  -6  -8  360.46   19.20
  -8  -6  -8  305.07   17.70
  -8  -6  -8  290.67   16.10
   8  -6   8  312.07   15.20
   8  -6  -8  313.77   16.00
   8   6   8  294.67   14.40
  -8  -6   8  313.67   15.80
  -8   6  -8  299.57   20.40
  10  -6   8  161.48   11.20
 -10  -6  -8  186.28   12.10
 -10  -6   8  196.68   11.90
  10  -6  -8  179.88   11.10
  10   6   8  186.78   10.00
 -12  -6  -8  124.19   10.30
  12   6  -8  118.29    8.20
  12  -6   8  128.69    8.80
  12   6   8  114.39    7.60
  12  -6  -8  115.59    8.30
  14  -6   8   55.39    6.90
  14   6  -8   61.49    6.50
 -14  -6  -8   66.79    8.60
  14   6   8   58.29    5.90
  14  -6  -8   68.59    6.60
 -14  -6   8   61.49    7.80
  16  -6   8   32.50    6.70
  16  -6   8   33.70    6.90
 -16  -6  -8   27.30    6.30
  16   6  -8   34.20    5.70
  16  -6  -8   29.30    5.00
  16   6   8   27.80    5.00
 -16  -6   8   14.00    5.80
 -18  -6  -8   10.10    5.00
  18  -6   8    8.20    5.70
  18   6  -8    4.20    3.60
  18  -6   8   12.40    6.10
  18   6   8   12.50    3.40
  18  -6  -8   21.70    4.80
   0  -8   8  720.93   31.30
   0  -8   8  701.43   31.80
   0  -8  -8  713.93   30.90
   0   8   8  747.23   31.40
   2  -8   8  782.62   34.40
  -2   8   8  810.72   34.50
   2  -8   8  737.73   33.70
  -2  -8  -8  791.42   34.30
  -2  -8   8  791.62   33.70
   2   8   8  793.22   33.50
  -2  -8   8  776.32   34.20
  -4  -8  -8  422.26   20.30
   4  -8   8  424.46   20.10
   4  -8   8  422.86   20.60
  -4  -8  -8  463.45   21.60
  -4  -8   8  442.26   20.60
  -4  -8   8  398.16   19.60
   4  -8  -8  433.76   20.50
   4   8   8  457.65   19.70
   6  -8   8  323.07   16.40
  -6  -8  -8  351.46   17.10
   6  -8   8  327.37   17.30
  -6  -8  -8  349.47   18.30
   6  -8  -8  346.37   17.30
  -6  -8   8  344.17   16.20
  -6  -8   8  322.87   16.80
   6   8   8  345.17   15.80
   8  -8   8  137.59    8.80
  -8  -8  -8  138.79    9.50
  -8  -8   8  147.99    8.90
   8   8   8  133.39    8.20
   8  -8  -8  140.49   10.20
  -8  -8   8  135.49   10.00
 -10  -8  -8  114.59    9.30
  10  -8   8  119.29    8.20
  10   8   8  123.19    7.60
  10  -8  -8  114.79    8.90
 -10  -8   8  115.99    8.30
  12   8  -8   53.49    6.00
 -12  -8  -8   55.19    7.80
  12  -8   8   46.30    6.00
  12  -8  -8   63.79    6.80
  12   8   8   51.29    5.20
 -12  -8   8   48.80    6.40
  14   8  -8   51.99    6.60
 -14  -8  -8   48.70    7.10
  14  -8   8   37.30    6.00
  14  -8  -8   51.09    6.50
  14   8   8   38.50    5.10
 -14  -8   8   58.19    7.50
 -16  -8  -8    9.40    4.30
  16  -8   8   20.90    5.40
  16   8  -8   21.50    5.10
 -16  -8   8   14.20    5.60
  16   8   8   22.90    4.60
  16  -8  -8   23.00    4.80
   0 -10   8  106.09    8.30
   0 -10  -8  105.49    7.60
   0  10   8  119.09    7.90
   0 -10   8  120.19    7.40
   2 -10   8  173.88   11.40
   2 -10   8  197.08   10.90
  -2  10   8  201.48   11.80
  -2 -10  -8  193.48   11.10
   2  10   8  199.58   10.60
   2 -10  -8  209.78    9.90
  -2 -10   8  184.28   11.40
  -2 -10   8  188.28   10.60
  -4 -10  -8  134.69    9.70
   4 -10   8  140.59    9.00
  -4 -10   8  149.59    8.60
   4 -10  -8  141.89    9.60
   4  10   8  149.29    8.60
   6 -10   8  196.48   11.20
  -6 -10  -8  204.08   11.80
  -6 -10  -8  194.78   12.80
  -6 -10   8  185.88   10.90
   6 -10  -8  196.38   12.20
   6  10   8  200.38   10.70
  -8 -10  -8  114.29    8.70
   8 -10   8  108.89    8.00
  -8 -10   8  108.59    7.80
   8 -10  -8  109.79    9.40
   8  10   8  115.49    7.90
  10 -10   8  109.99    8.30
 -10 -10  -8  100.19    8.80
 -10 -10   8  107.29    8.10
  10  10   8  117.29    7.60
  10 -10  -8  114.79    9.10
 -12 -10  -8   41.20    6.60
  12  10  -8   71.39    7.60
  12 -10   8   55.69    7.10
  12 -10  -8   42.40    6.10
 -12 -10   8   49.99    6.30
  12  10   8   45.40    5.10
 -14 -10  -8   45.80    6.80
  14  10  -8   45.40    6.80
  14 -10   8   47.30    7.20
 -14 -10   8   53.39    7.10
  14 -10  -8   50.19    6.50
  14  10   8   32.00    4.70
 -16 -10  -8    8.70    4.50
  16 -10   8    5.90    5.30
  16  10  -8   15.60    5.30
 -16 -10   8   22.30    5.40
  16  10   8   12.90    4.10
  16 -10  -8    9.30    4.50
   0 -12   8  222.28   12.50
   0  12   8  246.38   13.50
   0 -12  -8  245.68   12.80
  -2 -12  -8  306.97   15.40
  -2  12   8  296.77   16.00
   2 -12   8  279.77   14.80
   2  12   8  267.37   14.70
  -2 -12   8  283.77   14.80
   4 -12   8  129.49    9.10
  -4 -12  -8  162.88   11.00
   4  12   8  157.38    9.50
   4 -12  -8  146.09   10.30
  -4 -12   8  155.98    9.40
  -6 -12  -8  119.19    8.70
   6 -12   8  120.09    8.40
   6  12   8  123.49    8.20
   6 -12  -8  118.09    9.80
  -6 -12   8  121.99    8.30
  -8 -12  -8   49.90    6.10
   8 -12   8   52.89    5.80
   8 -12  -8   45.80    7.10
   8  12   8   48.20    5.50
  -8 -12   8   52.09    5.80
 -10 -12  -8   51.39    6.50
  10 -12   8   47.70    6.00
  10 -12  -8   60.79    7.70
 -10 -12   8   45.10    5.70
  10  12   8   44.40    5.50
 -12 -12  -8   17.10    4.40
  12 -12   8   18.10    4.90
  12  12  -8   29.30    9.50
  12 -12  -8   26.80    5.60
 -12 -12   8   15.80    4.30
  12  12   8   26.30    4.60
  14  12  -8   25.00    7.00
 -14 -12  -8   17.70    4.60
  14 -12   8   26.00    6.00
  14  12   8   22.50    4.40
 -14 -12   8   24.40    5.40
  14 -12  -8   17.80    4.80
   0 -14   8   41.90    5.70
   0  14   8   23.30    5.20
  -2  14   8   65.99    8.90
   2 -14   8   45.40    5.70
   2  14   8   54.59    7.00
  -2 -14   8   44.80    5.60
  -4 -14  -8   46.10    5.80
   4 -14   8   52.09    6.70
   4 -14  -8   43.20    6.70
   4  14   8   43.50    5.50
  -4 -14   8   43.00    5.30
  -6 -14  -8   67.89    6.90
   6 -14   8   59.69    6.50
   6  14   8   66.59    6.50
  -6 -14   8   53.49    5.60
   8 -14   8   41.70    6.20
  -8 -14  -8   46.50    6.10
  -8 -14   8   51.09    6.00
   8 -14  -8   38.70    7.90
   8  14   8   49.50    6.20
 -10 -14  -8   44.50    6.10
  10 -14   8   39.30    6.10
 -10 -14   8   40.30    6.00
  10  14   8   35.00    5.00
  10 -14  -8   39.50    7.00
  12 -14   8   16.90    4.90
 -12 -14  -8   18.50    4.80
  12 -14  -8   26.50    6.10
  12  14   8   25.20    4.80
 -12 -14   8   18.70    4.60
   0 -16   8   80.09    7.00
   0  16   8   82.19    9.20
  -2 -16  -8   70.29    7.10
   2 -16   8   75.79    7.30
   2  16   8   73.09    8.20
  -2 -16   8   76.39    6.60
   4 -16   8   57.49    6.70
  -4 -16  -8   63.49    6.70
   4 -16  -8   31.70    6.70
   4  16   8   57.09    7.10
  -4 -16   8   49.10    6.20
   6 -16   8   25.90    5.00
  -6 -16  -8   27.60    5.10
   6 -16  -8   17.40    6.30
  -6 -16   8   25.30    4.50
   6  16   8   34.00    5.40
   8 -16   8   21.70    4.90
  -8 -16  -8   12.20    4.50
   8  16   8   23.90    5.00
   8 -16  -8   12.60    6.70
  -8 -16   8   14.60    3.90
 -10 -16  -8   14.40    4.50
  10 -16   8   16.80    5.30
  10 -16  -8   11.20    5.80
 -10 -16   8    9.00    3.90
  10  16   8   14.80    4.50
   0 -18   8    2.40    3.00
   0  18   8   12.90    5.70
   2 -18   8    6.60    3.40
   2  18   8   14.70    6.10
  -2 -18   8   11.30    3.60
   2 -18  -8   19.10    6.30
  -4 -18  -8    9.50    4.70
   4 -18   8   15.50    5.00
   4  18   8   18.00    5.30
   4 -18  -8    0.90    5.60
  -4 -18   8   15.60    4.40
  -6 -18  -8   18.30    4.70
   6 -18   8   11.30    4.20
   6  18   8   12.70    4.60
   6 -18  -8    5.70    6.00
  -6 -18   8   19.60    4.60
   1   1  -9    0.40    1.40
  -1   1   9    1.10    2.10
   1  -1   9    0.90    1.60
   1   1  -9    4.60    2.30
   1  -1   9   -1.60    1.60
  -1  -1  -9   -1.20    1.50
  -1  -1  -9   -2.10    3.00
   1   1   9   -1.70    1.50
   1  -1  -9    1.50    3.60
   1   1   9    0.30    1.60
  -1  -1   9    2.10    2.00
  -1   1  -9   -0.50    1.60
  -1  -1   9    4.00    2.00
  -3  -1  -9   49.80    7.60
   3   1  -9   43.70    5.00
   3  -1   9   50.89    3.60
  -3   1   9   40.20    3.90
   3  -1   9   46.20    4.40
  -3   1   9   37.90    3.80
   3   1   9   40.90    3.80
   3  -1  -9   48.00    5.00
  -3  -1   9   49.00    4.60
  -3  -1   9   31.90    3.90
   3   1   9   47.00    3.90
  -3   1  -9   28.20    6.00
  -5   1   9    9.90    2.20
   5  -1   9    6.90    2.50
  -5  -1  -9   12.80    5.50
   5   1  -9    9.60    3.00
   5  -1  -9   14.40    3.80
  -5   1  -9    5.90    4.20
  -5  -1   9   13.60    3.00
  -5  -1   9   11.90    3.00
   5   1   9   12.20    2.90
  -7  -1  -9   29.10    7.10
   7  -1   9   19.60    3.70
   7   1  -9   18.20    3.40
  -7   1  -9   26.60    7.80
  -7  -1   9   22.70    3.60
  -7  -1   9   20.50    3.60
   7   1   9   27.90    3.20
   7   1   9   26.60    4.00
   7  -1  -9   20.50    4.10
   9   1  -9    0.20    2.30
  -9  -1  -9    1.40    5.50
   9  -1   9    0.40    2.20
   9   1  -9    4.30    2.90
   9  -1  -9   -0.80    2.40
   9   1   9    0.60    2.40
   9   1   9   -1.80    1.90
  -9   1  -9    0.00    4.00
  -9  -1   9   -1.30    2.60
  11   1  -9    1.00    2.40
  11  -1   9   -1.50    2.70
 -11  -1   9    0.60    3.80
  11   1   9   -2.40    2.30
  11  -1  -9    5.50    3.20
  11   1   9    0.00    2.60
  13  -1   9   -0.10    2.90
  13   1  -9    0.30    2.70
  13  -1   9    2.20    3.20
  13   1   9    2.90    3.40
  13  -1  -9   -2.00    2.40
  13   1   9    0.40    2.70
  15  -1   9   -0.10    3.40
  15   1  -9    1.10    2.60
  15  -1   9    0.90    3.80
 -15  -1  -9   -2.20    4.40
  15  -1  -9   -2.90    2.90
  15   1   9   -1.80    2.90
  17   1  -9    1.20    2.90
 -17  -1  -9    0.60    4.20
  17  -1   9   -7.60    3.80
  17  -1  -9   -0.60    3.10
  17   1   9    0.60    3.30
 -17   1  -9    2.80    5.00
   1   3  -9   41.10    4.30
   1  -3   9   32.90    5.00
   1  -3   9   33.60    4.20
   1   3  -9   29.40    3.60
  -1  -3  -9   24.40    4.50
  -1   3   9   24.70    4.10
  -1  -3   9   24.20    4.00
   1   3   9   24.20    3.00
  -1  -3   9   30.40    3.90
   1  -3  -9   31.00    4.80
   1   3   9   28.70    3.60
  -3  -3  -9    6.00    3.20
   3   3  -9    4.30    1.70
   3  -3   9    2.70    1.50
  -3  -3  -9    4.50    2.40
   3  -3   9    2.60    1.90
   3  -3   9    4.30    2.30
   3  -3  -9   12.30    2.60
  -3  -3   9    5.00    2.00
   3   3   9    8.30    2.20
  -3  -3   9    6.30    2.80
   3  -3  -9    8.30    2.40
  -5  -3  -9   52.39    7.60
   5  -3   9   52.09    4.90
  -5  -3   9   52.79    5.70
   5   3   9   53.29    4.30
  -5  -3   9   58.69    5.20
   5   3   9   62.09    5.10
  -5   3  -9   70.49   11.40
   5  -3  -9   47.20    5.80
   7  -3   9    4.60    2.10
   7  -3   9    3.40    2.40
  -7  -3  -9    6.40    3.60
   7   3   9    7.00    1.90
  -7  -3   9    6.70    2.70
  -7   3  -9    1.40    4.60
   7   3   9    5.90    2.30
   7  -3  -9    5.40    3.10
  -9  -3  -9   14.00    6.30
   9   3  -9   13.10    3.00
   9  -3   9   14.60    3.60
  -9  -3   9   23.90    6.70
  -9   3  -9   13.20    6.70
   9  -3  -9   21.20    4.70
   9   3   9   25.30    4.60
  -9  -3   9   20.80    4.30
   9   3   9   10.60    2.60
  11  -3   9    3.20    3.20
  11   3  -9    0.30    2.60
 -11  -3  -9    0.20    4.00
  11  -3  -9    7.90    3.00
  11   3   9    3.60    4.40
 -11  -3   9   -2.10    4.30
  13  -3   9    4.80    3.60
 -13  -3  -9    0.50    4.10
  13   3  -9    1.70    2.80
  13   3   9    2.10    2.70
  13  -3  -9    4.50    2.90
  15  -3   9    0.20    3.10
 -15  -3  -9    3.40    4.30
  15  -3   9    4.90    4.50
  15   3  -9   -1.10    2.90
  15  -3  -9    2.60    3.10
  15   3   9    0.90    2.80
 -17  -3  -9    6.20    5.30
  17   3  -9    5.70    3.40
  17  -3   9    0.80    4.80
  17  -3  -9    0.90    3.00
  17   3   9    5.40    3.40
   1  -5   9   12.40    3.20
  -1  -5  -9    6.80    2.90
   1  -5   9   16.20    3.90
  -1   5   9   17.80    3.70
  -1  -5   9    8.20    3.30
   1  -5  -9    8.60    2.70
  -1  -5   9    7.80    2.80
   1   5   9    9.30    2.30
   3  -5   9   59.99    6.10
   3   5  -9   56.59    4.80
   3  -5   9   59.69    5.00
  -3  -5  -9   55.29    6.30
   3   5   9   53.29    4.50
  -3  -5   9   58.59    5.10
  -3  -5   9   66.79    6.10
   5  -5   9    0.20    2.00
   5  -5   9    1.40    2.20
  -5  -5  -9    5.00    2.70
  -5  -5  -9    0.20    2.60
   5   5   9    2.00    1.80
  -5  -5   9   -0.10    2.70
   5  -5  -9   -0.10    2.60
  -5  -5   9    2.60    2.40
   7   5  -9   31.50    4.00
  -7  -5  -9   31.80    5.50
  -7  -5  -9   39.00    5.80
   7  -5   9   26.60    4.10
   7   5   9   39.90    3.90
   7  -5  -9   47.90    6.70
  -7   5  -9   27.80    7.10
  -7  -5   9   38.80    5.70
  -9  -5  -9    5.80    3.40
   9  -5   9    4.50    3.00
   9   5   9    6.50    2.50
  -9  -5   9    0.60    2.90
  11  -5   9    4.10    3.10
 -11  -5  -9    7.90    4.20
  11   5   9    9.40    3.20
  11  -5  -9    8.50    3.90
 -11  -5   9    7.90    4.70
  13   5  -9   12.80    4.00
  13  -5   9   -0.10    2.90
 -13  -5  -9   -0.50    3.80
  13  -5  -9    1.30    3.40
  13   5   9    3.10    2.40
 -15  -5  -9    7.90    5.10
  15   5  -9    3.00    3.30
  15  -5   9    1.20    4.50
  15  -5   9    3.50    3.70
  15  -5  -9    6.10    3.50
  15   5   9   -0.70    2.30
  17   5  -9    3.10    3.70
 -17  -5  -9    4.50    4.50
  17  -5   9    7.90    5.20
  17  -5   9    1.30    6.20
  17  -5  -9    2.40    3.50
  17   5   9    2.60    2.80
   1  -7   9   24.20    4.50
  -1  -7  -9   15.20    3.60
   1  -7   9   24.00    4.00
  -1   7   9   15.90    3.70
  -1  -7   9   16.90    3.60
  -1  -7   9   22.10    3.70
   1  -7  -9   14.50    2.90
   1   7   9   19.40    3.40
  -3   7   9    8.20    3.40
   3  -7   9    3.50    2.80
  -3  -7  -9    6.00    3.00
   3  -7   9    1.30    2.20
   3   7   9   10.00    2.70
  -3  -7   9    1.80    2.90
  -3  -7   9    6.50    2.70
   5  -7   9   32.20    5.30
  -5  -7  -9   35.90    6.00
   5  -7   9   41.70    5.40
  -5  -7  -9   40.00    5.50
   5  -7  -9   30.10    5.30
  -5  -7   9   32.70    4.70
   5   7   9   31.00    3.80
  -5  -7   9   38.50    5.20
  -7  -7  -9    2.00    3.70
   7  -7   9   -0.70    2.20
  -7  -7  -9    3.40    2.80
   7   7   9    6.30    2.50
  -7  -7   9    6.50    3.70
  -7  -7   9    0.30    2.60
   7  -7  -9    5.40    3.00
   9  -7   9    6.70    3.10
  -9  -7  -9    6.30    3.70
   9   7   9    7.60    2.70
  -9  -7   9   12.20    5.00
   9  -7  -9    7.10    3.90
 -11  -7  -9    4.30    3.70
  11  -7   9   -2.40    2.50
  11  -7  -9    3.30    3.10
 -11  -7   9   -1.40    3.40
  11   7   9    0.00    2.30
 -13  -7  -9    0.60    4.10
  13   7  -9    0.00    3.30
  13  -7   9   -1.60    3.30
 -13  -7   9    8.40    4.60
  13   7   9    3.00    2.30
  13  -7  -9    8.20    3.90
 -15  -7  -9    3.00    4.00
  15   7  -9    6.50    3.80
  15  -7   9   -1.00    3.50
 -15  -7   9    2.40    5.40
  15  -7  -9    2.70    3.30
  15   7   9   -0.70    2.50
 -17  -7  -9    3.10    3.70
  17   7  -9   -0.20    4.10
  17  -7   9    0.10    3.80
  17   7   9    0.10    2.40
 -17  -7   9   -8.80    5.80
  17  -7  -9    3.60    3.60
   1  -9   9    4.90    2.80
  -1   9   9    0.90    2.40
   1  -9   9    0.80    3.20
  -1  -9  -9    2.20    2.70
  -1  -9   9   -0.20    1.90
   1   9   9    0.30    2.00
  -1  -9   9   -2.30    2.50
   1  -9  -9   -1.40    2.20
   3  -9   9   14.70    3.70
   3  -9   9   12.00    3.60
  -3  -9  -9   17.30    4.00
  -3   9   9   17.40    4.30
   3   9   9   14.90    3.40
  -3  -9   9   14.20    3.40
  -3  -9   9   14.00    3.80
   5  -9   9    3.20    2.60
  -5  -9  -9    7.10    3.00
  -5  -9  -9    4.80    3.20
  -5  -9   9    7.10    3.00
  -5  -9   9    3.70    3.50
   7  -9   9    8.40    3.30
  -7  -9  -9   15.60    3.80
   7   9   9   12.90    3.10
   7  -9  -9   10.90    3.90
  -7  -9   9   13.40    3.60
  -9  -9  -9   -2.00    2.90
   9  -9   9    0.60    2.70
   9   9   9   -0.20    2.50
   9  -9  -9   -2.40    3.60
  -9  -9   9   -3.60    2.80
 -11  -9  -9    0.90    3.00
  11  -9   9   -2.30    2.60
  11   9   9    1.10    2.20
  11  -9  -9    1.60    3.50
 -11  -9   9    4.20    3.50
  13  -9   9    0.60    3.30
 -13  -9  -9    3.80    3.80
  13   9  -9   -2.00    4.00
 -13  -9   9    0.40    4.10
  13   9   9   -2.10    2.30
  13  -9  -9    3.10    3.20
  15   9  -9    4.90    4.40
  15  -9   9    2.40    3.60
 -15  -9  -9   -2.00    4.30
  15  -9  -9    1.00    3.40
  15   9   9    1.40    2.40
 -15  -9   9    4.60    5.00
  -1 -11  -9    1.90    3.10
  -1  11   9    1.20    3.20
   1 -11   9   -0.20    2.60
   1 -11  -9   -0.70    2.70
   1  11   9    0.30    2.60
  -1 -11   9    4.90    2.50
  -3 -11  -9    0.80    3.40
   3 -11   9    2.50    2.80
  -3 -11   9    3.90    2.80
   3  11   9    3.00    2.30
  -5 -11  -9    9.90    4.60
   5 -11   9    7.80    3.30
  -5 -11   9    3.20    2.90
   5 -11  -9   -0.50    4.00
   5  11   9    5.00    2.80
  -7 -11  -9    0.80    3.00
   7 -11   9    2.40    3.10
  -7 -11   9   -0.60    2.60
   7 -11  -9    2.10    4.10
   7  11   9    1.90    2.20
   9 -11   9   -4.70    2.70
  -9 -11  -9    1.50    3.40
   9 -11  -9   -1.80    3.70
  -9 -11   9    4.10    2.90
   9  11   9    0.10    2.70
 -11 -11  -9    1.20    3.20
  11 -11   9    1.60    3.00
  11  11   9   -2.70    2.80
  11 -11  -9    0.20    3.60
 -11 -11   9   -3.80    3.60
  13 -11   9   -4.50    3.30
 -13 -11  -9   -0.90    3.60
  13  11  -9  -13.30    5.10
 -13 -11   9   -3.90    3.40
  13  11   9    4.40    3.20
  13 -11  -9    2.00    3.50
  15  11  -9   -5.30    5.80
 -15 -11  -9   -1.20    3.20
  15 -11   9   -4.00    3.70
 -15 -11   9   -1.50    4.40
  15 -11  -9   -1.00    3.70
  15  11   9   -3.60    2.60
   1 -13   9    1.00    2.50
  -1  13   9    1.60    3.70
   1  13   9    1.90    3.10
  -1 -13   9   -0.60    2.20
   3 -13   9    6.30    3.30
  -3 -13  -9   -3.60    4.00
   3  13   9    4.50    2.80
  -3 -13   9   -1.30    2.50
  -5 -13  -9    5.90    3.60
   5 -13   9    7.90    3.50
   5 -13  -9    3.80    4.70
   5  13   9    2.00    2.60
  -5 -13   9    5.60    3.00
  -7 -13  -9    4.10    3.80
   7 -13   9    1.00    3.30
  -7 -13   9    1.70    3.00
   7 -13  -9   -3.40    4.10
   7  13   9    1.20    2.50
   9 -13   9    0.40    3.50
  -9 -13  -9    4.50    3.70
   9  13   9    0.50    2.90
  -9 -13   9    0.50    3.00
   9 -13  -9   -3.60    4.60
 -11 -13  -9   -4.20    3.00
  11 -13   9    1.50    3.00
 -11 -13   9   -0.50    3.00
  11 -13  -9    4.30    4.50
  11  13   9   -2.10    2.60
  13 -13   9    4.80    4.30
 -13 -13  -9   -4.80    3.40
  13 -13  -9   -0.30    4.20
  13  13   9   -4.90    2.70
 -13 -13   9    4.50    3.70
  -1  15   9   -1.50    3.70
   1 -15   9    0.50    2.80
  -1 -15   9    1.90    2.70
   1  15   9   -3.40    3.80
   3 -15   9    4.40    3.40
  -3 -15  -9    3.40    4.10
   3  15   9    3.10    3.60
  -3 -15   9    1.80    3.00
   3 -15  -9    7.10    5.30
  -5 -15  -9    5.20    4.50
   5 -15   9   -0.10    3.10
   5 -15  -9    5.10    4.90
   5  15   9    3.00    3.00
  -5 -15   9   -2.60    2.60
   7 -15   9    0.20    3.80
  -7 -15  -9    1.60    3.70
   7 -15  -9   -3.50    4.60
   7  15   9    4.40    3.20
  -7 -15   9    1.00    2.80
   9 -15   9   -2.30    3.60
  -9 -15  -9   -1.90    3.40
  -9 -15   9   -1.20    3.00
   9  15   9    0.40    3.00
   9 -15  -9    5.80    6.00
 -11 -15  -9    3.00    3.50
  11 -15   9    3.80    4.70
  11  15   9    5.00    3.40
 -11 -15   9   -4.80    3.30
  11 -15  -9    1.10    5.00
   1 -17   9    0.40    3.40
  -1 -17   9    1.00    2.80
   1  17   9   -7.80    3.50
   3 -17   9    2.60    3.30
   3  17   9    4.60    4.30
  -3 -17   9    4.20    3.40
   3 -17  -9    2.50    5.20
  -5 -17  -9    5.00    4.20
   5 -17   9    1.90    3.30
   5 -17  -9    0.40    5.90
   5  17   9    0.40    3.70
  -5 -17   9    0.30    3.30
   7 -17   9   -2.60    3.90
  -7 -17  -9   -0.70    4.30
   7  17   9    2.40    3.50
  -7 -17   9    3.70    3.40
   7 -17  -9    5.00    6.40
   0   0 -10  207.98   11.30
   0   0  10  260.67   12.10
   2   0 -10   84.49    6.10
  -2   0 -10   89.69   10.40
  -2   0  10   77.29    5.90
  -2   0 -10   75.29    5.90
   4   0  10  189.08   10.20
   4   0 -10  185.78   11.40
  -4   0 -10  171.58   13.80
  -4   0  10  200.48    9.80
  -4   0  10  188.78   10.10
  -6   0  10   57.19    5.30
  -6   0 -10   86.99   10.90
   8   0 -10  141.59    8.90
  -8   0 -10  132.99   13.70
   8   0  10  141.49    8.80
  -8   0  10  134.79    8.70
  10   0 -10   72.09    6.60
  12   0  10   88.69    8.90
  12   0  10   77.09    7.00
  12   0 -10   84.09    7.00
  14   0  10   20.60    4.50
  14   0 -10   16.70    3.90
  14   0  10   19.10    5.00
  16   0 -10   33.70    5.00
 -16   0 -10   39.60    7.80
  16   0  10   40.80    6.80
  18   0 -10    4.70    3.10
 -18   0 -10    7.00    5.10
  18   0  10    4.50    4.70
   0  -2  10   43.00    5.10
   0  -2 -10   56.49    8.00
   0  -2  10   41.40    4.70
   0   2  10   39.20    4.60
   0   2 -10   41.90    4.20
   0   2 -10   51.39    4.60
   2   2 -10    9.80    2.50
   2  -2  10   13.20    3.00
  -2  -2 -10    7.70    4.00
  -2   2  10    4.20    2.60
   2   2  10    8.50    2.30
   2  -2 -10    9.30    4.10
  -2  -2  10    9.00    3.00
   2   2  10    8.70    2.30
  -2  -2  10    8.50    2.70
   4  -2  10   88.09    5.40
  -4  -2 -10  101.19    7.20
  -4  -2 -10   94.89    9.80
   4  -2  10   96.79    6.50
   4  -2 -10   85.59    7.10
   4  -2 -10   84.29    8.40
   4   2  10   89.09    6.10
   4   2  10   83.89    5.60
  -4   2 -10   87.29   11.30
   6  -2  10   51.09    4.50
   6  -2  10   63.89    5.60
  -6  -2 -10   57.89    8.70
   6   2  10   65.39    4.70
   6  -2 -10   54.89    6.30
   6   2  10   54.19    5.30
  -6   2 -10   54.99   10.30
   8   2 -10  149.09    8.70
   8  -2  10  147.89    9.10
   8   2 -10  150.38   12.50
   8  -2  10  139.59    8.40
  -8  -2 -10  144.69   13.30
   8   2  10  155.18    9.40
   8  -2 -10  142.49    9.40
  -8  -2  10  146.99    9.70
   8   2  10  135.19    8.00
  -8   2 -10  141.59   15.20
  10  -2  10   52.69    5.90
  10   2 -10   65.49    5.80
  10   2  10   72.79    6.70
  10   2  10   76.79    6.00
 -10  -2  10   65.99    8.20
  10  -2 -10   62.49    6.70
  12   2 -10   87.69    7.00
  12  -2  10   91.79    7.70
  12  -2 -10   89.49    7.30
  12   2  10   78.89    7.40
  12   2  10   86.69    6.80
  14  -2  10   18.70    4.30
  14   2 -10   17.60    3.90
  14  -2  10   31.90    6.00
 -14  -2 -10   10.30    5.10
  14   2  10   31.70    5.20
  14  -2 -10   23.80    4.30
  16  -2  10   26.40    5.40
  16  -2  10   22.40    5.70
 -16  -2 -10   15.70    5.90
  16   2 -10   24.10    4.30
  16   2  10   41.90    6.00
  16  -2 -10   25.30    4.50
  18   2 -10    6.00    3.80
 -18  -2 -10    6.70    5.10
  18  -2  10    2.10    4.80
 -18   2 -10   11.10    6.00
  18   2  10    2.40    4.00
  18  -2 -10   10.00    3.90
   0   4  10  179.88   10.10
   0  -4  10  199.88   11.20
   0   4  10  188.28    9.40
   0  -4 -10  176.38   11.00
   0  -4  10  181.58   10.40
   2  -4  10  117.89    8.30
   2  -4  10  102.79    7.50
  -2   4  10  108.79    8.10
  -2  -4 -10  132.09    9.10
  -2  -4  10  109.89    7.60
  -2  -4  10  126.59    8.70
   2  -4 -10  123.69    7.90
   2   4  10  114.49    7.00
   2   4  10  131.89    7.30
   4  -4  10  133.59    8.40
   4  -4  10  139.79    9.10
  -4  -4 -10  138.89   10.60
   4   4  10  138.19    8.20
  -4  -4  10  124.49    8.20
   4  -4 -10  131.69    8.90
   4   4  10  139.29    7.80
  -4  -4  10  151.08    9.70
   6   4 -10   79.59    6.50
   6  -4  10   72.89    6.30
  -6  -4 -10  104.89    9.80
   6   4 -10   67.49    5.50
   6  -4 -10   93.69    7.30
   6   4  10   95.19    5.80
  -6  -4  10   63.69    7.80
  -6   4 -10  114.29   13.00
  -6  -4  10   87.99    7.70
   6   4  10   97.79    6.90
  -8  -4 -10   90.89   10.60
   8  -4  10   95.79    7.20
   8   4  10   88.69    6.00
   8  -4 -10   94.39    7.80
  -8  -4  10   89.69    8.60
 -10  -4 -10   57.59    7.50
  10  -4  10   45.80    5.80
  10   4  10   64.29    5.50
 -10  -4  10   56.49    8.40
  10  -4 -10   68.99    6.70
  12   4 -10   57.89    6.00
  12  -4  10   52.89    6.30
 -12  -4 -10   45.90    7.30
  12   4  10   58.59    5.60
  12  -4 -10   59.99    6.30
  14  -4  10   24.30    5.40
  14   4 -10   24.50    4.50
 -14  -4 -10   16.00    4.90
  14  -4 -10   17.00    3.70
  14   4  10   33.00    5.20
  16  -4  10   22.00    6.30
 -16  -4 -10   18.20    5.80
  16  -4  10   21.50    4.90
  16   4 -10   22.80    5.00
  16  -4 -10   33.50    5.20
  16   4  10   17.00    3.90
   0   6  10   18.80    3.40
   0  -6 -10   17.30    3.70
   0  -6  10   26.20    4.40
   0  -6  10   20.80    4.00
   2  -6  10   37.00    4.60
  -2  -6 -10   39.50    5.80
   2  -6  10   39.10    5.70
  -2   6  10   38.90    5.40
  -2  -6 -10   44.40    4.90
  -2  -6  10   35.10    4.60
  -2  -6  10   29.40    4.90
   2   6  10   44.50    4.30
   4  -6  10   56.99    6.20
  -4  -6 -10   40.60    5.20
  -4  -6 -10   50.89    6.70
   4  -6  10   54.39    5.50
   4   6  10   58.69    4.80
  -4  -6  10   57.89    6.80
   4  -6 -10   50.49    5.90
  -4  -6  10   53.79    5.40
   6  -6  10   84.69    6.90
  -6  -6 -10   98.69    9.20
  -6  -6 -10  103.09    7.80
   6  -6 -10  103.89    8.30
   6   6  10   87.09    6.20
  -6  -6  10   89.29    8.20
  -8  -6 -10   69.29    8.20
   8  -6  10   84.49    6.70
   8   6  10   77.29    6.70
   8  -6 -10   95.59    8.30
  -8  -6  10   80.09    8.50
 -10  -6 -10   78.39    8.00
  10  -6  10   74.59    6.90
  10  -6 -10   81.39    7.80
 -10  -6  10   77.59    9.80
  10   6  10   82.29    6.00
  12   6 -10   50.59    5.90
 -12  -6 -10   35.40    6.30
  12  -6  10   44.80    5.90
  12  -6 -10   61.79    6.60
 -12  -6  10   41.10    6.60
  12   6  10   48.80    6.00
  14  -6  10   26.60    5.20
  14   6 -10   41.00    5.70
 -14  -6 -10   24.90    6.50
  14   6  10   31.60    4.60
 -14  -6  10   32.80    7.30
  14  -6 -10   33.00    5.30
  16  -6  10   19.50    5.60
 -16  -6 -10   11.00    5.50
  16   6 -10   20.60    4.90
  16  -6 -10   24.60    4.80
  16   6  10   21.80    4.60
   0  -8  10  103.89    8.70
   0  -8 -10  114.19    8.00
   0  -8  10  124.79    8.00
   0   8  10  116.39    8.00
  -2  -8 -10  175.48   11.10
   2  -8  10  142.99   10.30
  -2   8  10  172.18   10.40
   2  -8  10  160.28    9.70
   2   8  10  137.49    8.90
  -2  -8  10  165.28    9.50
  -2  -8  10  152.68   10.40
  -4  -8 -10   77.39    8.00
   4  -8  10   77.39    6.50
   4  -8 -10   81.09    7.10
  -4  -8  10   89.19    8.40
   4   8  10   92.39    6.40
  -4  -8  10   86.89    7.00
   6  -8  10   79.39    6.90
  -6  -8 -10  115.09    9.70
  -6  -8 -10   99.39    7.90
   6   8  10   99.39    6.60
  -6  -8  10   97.79    7.50
   6  -8 -10  100.89    8.70
  -6  -8  10   84.99    9.00
  -8  -8 -10   49.70    6.50
   8  -8  10   37.10    5.00
   8   8  10   49.20    5.10
   8  -8 -10   57.79    7.80
  -8  -8  10   38.60    5.80
 -10  -8 -10   62.39    7.30
  10  -8  10   61.39    6.20
 -10  -8  10   52.79    6.60
  10  -8 -10   53.69    6.90
  10   8  10   59.99    5.80
  12   8 -10   31.10    5.10
  12  -8  10   23.20    4.50
 -12  -8 -10   31.50    6.10
  12   8  10   27.50    4.20
 -12  -8  10   25.20    5.30
  12  -8 -10   32.70    5.90
  14   8 -10   28.80    5.40
 -14  -8 -10   20.90    5.50
  14  -8  10   21.20    5.30
 -14  -8  10   29.00    7.30
  14   8  10   29.80    4.90
  14  -8 -10   37.10    5.80
  16  -8  10   16.40    5.60
  16   8 -10    4.40    4.60
 -16  -8 -10    4.90    4.00
  16  -8 -10    7.30    4.20
 -16  -8  10   12.80    6.80
  16   8  10    9.00    3.40
   0 -10 -10   21.90    4.50
   0  10  10   19.40    4.20
   0 -10  10   22.00    4.00
  -2 -10 -10   53.99    6.90
   2 -10  10   49.70    5.70
  -2  10  10   59.89    7.80
   2  10  10   48.50    5.40
  -2 -10  10   51.69    5.50
   4 -10  10   39.80    5.70
  -4 -10 -10   40.60    6.40
  -4 -10  10   47.90    5.70
   4 -10 -10   48.30    6.60
   4  10  10   36.50    4.90
  -6 -10 -10   60.89    7.10
   6 -10  10   71.09    6.70
   6  10  10   67.59    6.00
  -6 -10  10   73.09    6.70
   6 -10 -10   65.19    8.00
  -8 -10 -10   48.00    6.50
   8 -10  10   53.99    5.80
   8 -10 -10   55.79    7.80
   8  10  10   38.50    4.90
  -8 -10  10   33.00    5.20
  10 -10  10   48.10    5.90
 -10 -10 -10   51.49    6.80
  10 -10 -10   51.19    7.00
 -10 -10  10   49.80    6.60
  10  10  10   51.89    5.50
  12 -10  10   25.10    5.40
  12  10 -10   28.00    6.40
 -12 -10 -10   32.90    6.10
  12  10  10   26.20    4.50
 -12 -10  10   26.30    5.50
  12 -10 -10   27.60    5.70
  14 -10  10   19.10    5.00
  14  10 -10   27.00    6.80
 -14 -10 -10   26.20    6.00
  14  10  10   30.40    5.20
  14 -10 -10   29.30    5.90
 -14 -10  10   31.90    6.20
   0 -12  10   76.69    6.70
   0  12  10   84.29    7.80
   2 -12  10   92.39    7.70
  -2  12  10   84.39    8.50
   2  12  10   95.69    7.60
  -2 -12  10   94.29    7.40
   4 -12  10   52.99    6.20
  -4 -12 -10   61.39    8.80
   4  12  10   57.09    5.80
  -4 -12  10   51.29    6.10
   4 -12 -10   67.19    8.00
   6 -12  10   53.59    6.30
  -6 -12 -10   55.99    7.00
  -6 -12  10   53.49    6.00
   6 -12 -10   38.70    6.40
   6  12  10   56.49    6.00
   8 -12  10   22.50    4.60
  -8 -12 -10   36.10    5.90
   8  12  10   35.10    5.30
  -8 -12  10   35.30    5.60
   8 -12 -10   31.50    6.50
 -10 -12 -10   25.70    5.30
  10 -12  10   24.00    4.70
 -10 -12  10   27.50    5.40
  10  12  10   22.00    4.10
  10 -12 -10   24.60    5.80
  12 -12  10   18.20    4.70
 -12 -12 -10   12.00    4.20
  12 -12 -10   21.00    5.80
  12  12  10   19.40    4.20
 -12 -12  10   16.10    5.00
   0 -14  10   20.50    4.60
   0  14  10   21.00    5.10
   2 -14  10   22.80    4.60
  -2  14  10    9.10    4.40
  -2 -14  10   13.30    3.40
   2  14  10   17.30    4.20
   4 -14  10   27.20    4.90
  -4 -14 -10   21.70    5.40
   4 -14 -10   27.30    6.60
  -4 -14  10   21.10    4.50
   4  14  10   15.30    3.80
  -6 -14 -10   35.70    5.90
   6 -14  10   40.00    6.10
   6 -14 -10   22.20    5.70
   6  14  10   26.50    4.80
  -6 -14  10   30.60    5.40
   8 -14  10   20.00    4.60
  -8 -14 -10   14.70    4.60
   8  14  10   20.10    4.20
  -8 -14  10   20.60    4.60
   8 -14 -10   24.10    6.70
  10 -14  10   18.10    4.50
 -10 -14 -10   26.30    5.50
 -10 -14  10   26.50    5.40
  10  14  10   14.60    3.80
  10 -14 -10   17.60    5.60
   0  16  10   33.30    6.80
   0 -16  10   39.70    5.70
   2 -16  10   44.00    6.20
   2 -16 -10   35.10    7.20
  -2 -16  10   24.70    4.40
   2  16  10   35.60    6.00
   4 -16  10   21.00    5.00
  -4 -16 -10   28.70    5.70
  -4 -16  10   30.70    5.50
   4 -16 -10   16.50    6.20
   4  16  10   23.60    4.80
  -6 -16 -10   22.80    5.90
   6 -16  10   26.10    5.40
   6  16  10   25.20    5.10
   6 -16 -10   16.90    6.80
  -6 -16  10   23.50    5.40
  -8 -16 -10   11.80    4.80
   8 -16  10   11.00    4.10
   8 -16 -10    3.80    6.70
  -8 -16  10   13.90    4.30
   8  16  10    3.20    3.30
   0  18  10    9.70    5.90
   0 -18  10    5.80    3.90
   2 -18  10    7.10    4.10
   2  18  10    1.10    4.60
  -2 -18  10    0.90    3.10
   2 -18 -10    9.20    6.40
  -1  -1 -11    1.80    4.30
   1  -1  11    0.10    2.10
  -1  -1  11   -1.10    2.10
   1   1  11   -0.20    2.30
  -1  -1  11    1.90    2.20
   1  -1 -11   -0.30    2.00
   1  -1 -11    0.00    4.60
   1   1  11    2.20    2.40
  -3   1  11   15.30    3.10
   3  -1  11   11.00    2.90
  -3  -1 -11   12.70    5.20
   3   1  11   10.70    2.80
  -3  -1  11   11.90    3.90
   3  -1 -11    8.60    3.50
   3   1  11    9.60    2.70
  -3   1 -11   23.70    7.30
   5  -1  11    4.50    2.40
   5  -1  11    2.50    2.20
  -5  -1 -11    0.20    4.10
   5  -1 -11    1.90    3.40
   5   1  11    4.70    2.20
   5   1  11    4.30    2.50
  -5   1 -11    2.70    4.50
  -5  -1  11    5.80    3.40
  -5  -1  11    4.20    2.70
   7   1 -11    8.50    3.20
   7   1 -11    7.80    3.30
  -7  -1 -11    4.50    4.80
   7  -1  11    4.10    2.60
   7   1  11    4.80    2.70
   7   1  11   10.40    4.00
  -7   1 -11    4.10    6.30
   7  -1 -11    8.30    3.70
  -7  -1  11   10.80    3.80
   9   1 -11    1.10    3.10
   9  -1  11    1.50    2.40
   9  -1 -11   -2.20    2.90
   9   1  11    1.50    3.10
  -9  -1  11    1.10    4.00
  11   1 -11   -1.20    2.90
  11  -1  11   -0.50    2.90
  11  -1 -11   -1.40    2.90
  11   1  11   -2.50    2.40
  11   1  11    2.10    3.40
  13   1 -11   -4.80    3.10
  13  -1  11   -2.10    2.80
  13   1  11    3.10    3.60
  13  -1 -11   -2.60    3.00
  13   1  11    0.90    3.10
  15  -1  11    4.00    3.90
 -15  -1 -11   -1.10    4.00
  15  -1  11    3.40    4.60
  15   1 -11   -1.20    3.20
  15   1  11   -4.80    3.10
  15  -1 -11    1.60    3.30
 -17  -1 -11   -3.10    5.00
  17  -1  11    1.00    4.80
  17   1 -11   -2.70    3.60
  17  -1 -11    0.50    2.90
  17   1  11   -0.80    3.80
 -17   1 -11    0.70    4.80
  -1  -3 -11   17.40    5.10
  -1   3  11   13.00    2.70
   1  -3  11   13.80    3.90
  -1   3  11    7.50    3.00
  -1  -3  11    9.70    3.10
  -1  -3  11    6.60    2.90
   1   3  11   11.50    2.80
   1  -3 -11   14.00    4.70
   3  -3  11   -1.80    2.30
  -3  -3 -11   -0.90    3.30
  -3  -3  11    3.30    2.90
   3   3  11    1.00    1.90
  -3  -3  11    2.20    2.60
   3  -3 -11   -1.30    3.30
   3  -3 -11    2.70    3.00
   3   3  11    3.50    2.30
   3  -3 -11    0.40    1.70
   5   3 -11   14.50    3.10
  -5  -3 -11   15.90    5.30
   5   3 -11   22.70    4.00
   5  -3  11   24.10    4.40
   5   3  11   16.10    3.70
  -5  -3  11   17.30    3.90
  -5   3 -11   21.00    7.80
   5   3  11   25.00    3.50
  -5  -3  11   21.50    4.50
   5  -3 -11   25.80    4.80
  -7  -3 -11    3.30    4.30
   7  -3  11    0.30    2.40
   7  -3 -11    6.70    3.50
   7   3  11    1.40    2.30
  -7  -3  11    2.30    3.60
   9  -3  11    9.20    3.50
   9  -3 -11    4.50    3.30
   9   3  11    3.50    2.20
   9   3  11    7.30    3.60
  -9  -3  11    0.60    4.10
  11  -3  11    2.40    3.10
  11   3 -11    1.90    3.00
  11  -3 -11   -0.20    2.90
  11   3  11    2.40    2.70
  13  -3  11    0.40    3.20
 -13  -3 -11    5.60    4.20
  13   3 -11   -2.00    3.10
  13  -3 -11    2.30    3.50
  13   3  11    4.50    3.20
  15  -3  11    3.80    3.80
  15   3 -11   -8.30    3.10
  15  -3  11   -6.30    5.20
 -15  -3 -11   -2.60    4.10
  15   3  11    0.90    3.00
  15  -3 -11   -2.00    3.10
  17  -3  11   -5.50    3.50
 -17  -3 -11   -1.10    4.80
  17   3 -11    3.10    3.60
  17  -3  11   -3.20    5.90
  17  -3 -11    1.30    3.50
  17   3  11    3.40    3.70
  -1  -5 -11    0.40    3.00
   1  -5  11   -1.40    2.50
  -1  -5 -11    3.30    2.90
  -1   5  11    2.80    2.90
   1  -5  11    4.40    2.80
  -1  -5  11    1.20    2.50
   1   5  11    2.50    2.30
   1  -5 -11    3.40    3.00
  -1  -5  11    4.80    2.90
  -3  -5 -11   12.20    4.20
   3  -5  11   24.30    5.00
   3  -5  11   20.80    4.30
  -3  -5 -11   20.70    5.30
  -3  -5  11   19.60    4.20
   3   5  11   22.20    3.80
   3  -5 -11   17.90    4.30
  -3  -5  11   27.10    5.30
   5  -5  11    1.60    2.60
  -5  -5  11   -0.30    3.50
   5   5  11    3.60    2.40
   5  -5 -11    6.50    3.70
   7  -5  11   11.00    3.40
  -7  -5 -11    9.70    5.70
  -7  -5 -11   13.40    4.20
   7  -5 -11   14.90    6.30
   7   5  11   13.60    3.30
  -7  -5  11   19.20    5.80
  -9  -5 -11   -0.50    3.40
   9  -5  11   -2.00    2.70
  -9  -5  11    2.20    4.60
   9  -5 -11    1.30    3.40
   9   5  11    0.00    2.30
  11   5 -11    3.70    3.30
 -11  -5 -11    3.30    4.30
  11  -5  11    1.30    3.20
  11   5  11    3.00    2.40
  11  -5 -11    0.40    3.20
  13  -5  11    1.10    3.10
 -13  -5 -11   -0.30    3.70
  13   5 -11    1.10    3.40
  13  -5 -11   -2.20    3.00
  13   5  11    2.50    2.50
  15   5 -11   -3.30    3.60
 -15  -5 -11    2.60    4.80
  15  -5  11    0.00    3.80
  15  -5 -11    0.10    3.70
  15   5  11   -0.60    3.10
  17   5 -11   -2.40    4.20
  17  -5  11    1.20    3.90
 -17  -5 -11    4.40    5.10
  17   5  11   -1.10    3.40
  17  -5 -11   -1.50    3.20
  -1   7  11    1.40    2.70
   1  -7  11   -0.10    2.80
   1  -7  11    2.40    3.40
  -1  -7 -11    3.30    3.50
  -1  -7  11    6.80    3.20
   1   7  11   11.90    3.30
   1  -7 -11    4.90    3.40
  -1  -7  11    5.40    3.00
  -3  -7 -11   -2.80    3.10
   3  -7  11   -1.20    2.30
   3  -7  11    4.70    5.40
  -3  -7  11   -1.40    3.70
   3   7  11    1.10    2.00
  -3  -7  11    1.20    2.50
  -5  -7 -11    8.00    3.30
  -5  -7 -11   13.40    4.60
   5  -7  11    9.90    3.60
  -5  -7  11    8.70    4.10
  -5  -7  11   15.50    3.80
   5  -7 -11   13.60    4.40
  -7  -7 -11    0.60    3.60
   7  -7  11   -0.40    2.80
   7  -7 -11    1.00    3.50
  -7  -7  11   -0.80    4.10
   7   7  11    0.70    2.20
  -9  -7 -11    4.70    3.90
   9  -7  11    1.20    2.60
   9  -7 -11    3.00    4.10
  -9  -7  11    0.10    3.90
   9   7  11    5.10    2.80
  11   7 -11    0.70    3.70
 -11  -7 -11    2.70    4.50
  11  -7  11    3.00    3.00
 -11  -7  11   -1.20    4.40
  11   7  11   -1.10    2.70
  11  -7 -11    1.50    3.70
 -13  -7 -11    0.90    4.30
  13  -7  11    2.20    3.30
  13   7 -11    2.70    3.80
 -13  -7  11   -8.40    4.90
  13   7  11   -0.60    2.80
  13  -7 -11   -2.80    3.10
  15   7 -11   -1.70    4.10
 -15  -7 -11    3.90    4.30
  15  -7  11    3.20    4.10
  15  -7 -11    0.40    3.40
 -15  -7  11   -1.00    6.60
  15   7  11   -3.20    2.50
  -1   9  11    4.50    3.30
  -1  -9 -11   -0.40    3.30
   1  -9  11    3.30    2.90
   1   9  11    1.00    3.00
   1  -9 -11   -1.80    3.40
  -1  -9  11    0.70    2.80
  -3  -9 -11    4.10    3.70
   3  -9  11    1.00    2.50
  -3  -9  11    2.30    3.00
   3   9  11    3.90    2.40
   5  -9  11   -0.20    2.80
  -5  -9 -11   -3.10    4.00
   5   9  11    2.70    2.70
   5  -9 -11    3.60    4.00
  -5  -9  11    1.20    3.20
   7  -9  11   -2.40    2.40
  -7  -9 -11    9.00    4.00
   7  -9 -11    1.60    3.60
  -7  -9  11    6.10    3.80
   7   9  11    5.40    2.70
   9  -9  11    0.00    2.90
  -9  -9 -11   -3.40    3.30
  -9  -9  11   -1.00    3.70
   9  -9 -11   -0.20    3.90
   9   9  11    1.30    2.20
  11  -9  11    1.10    3.20
 -11  -9 -11    0.00    3.30
  11  -9 -11   -3.20    3.00
 -11  -9  11    3.50    4.10
  11   9  11   -0.10    2.80
 -13  -9 -11   -3.20    3.20
  13  -9  11    0.70    3.10
  13   9 -11    2.90    5.20
 -13  -9  11    0.70    4.80
  13   9  11   -0.10    3.10
  13  -9 -11    2.80    3.80
  15  -9  11    0.50    3.40
  15   9 -11    2.40    5.60
 -15  -9 -11   -1.90    3.80
  15  -9 -11   -0.60    3.70
  15   9  11   -1.00    3.00
 -15  -9  11   10.40    6.10
   1 -11  11   -1.90    2.70
  -1  11  11    4.30    3.50
  -1 -11  11   -4.00    2.40
   1  11  11    3.20    3.40
  -3 -11 -11    2.10    4.90
   3 -11  11    0.20    3.00
   3  11  11    1.40    2.40
  -3 -11  11    5.40    3.20
   5 -11  11    3.20    3.20
  -5 -11 -11    6.50    3.90
   5  11  11    2.20    2.40
   5 -11 -11    4.80    4.30
  -5 -11  11    3.30    3.30
  -7 -11 -11    0.10    3.90
   7 -11  11    1.60    3.10
  -7 -11  11    3.50    3.70
   7  11  11    1.30    2.70
   7 -11 -11   -0.60    4.00
  -9 -11 -11    5.00    3.90
   9 -11  11    1.20    3.10
   9  11  11    2.10    3.10
  -9 -11  11    1.10    3.60
   9 -11 -11   -2.20    4.20
 -11 -11 -11    4.50    3.90
  11 -11  11    1.20    3.70
  11 -11 -11   -6.50    4.00
 -11 -11  11    3.00    3.90
  11  11  11    0.70    2.70
 -13 -11 -11   -0.20    4.10
  13 -11  11   -1.30    3.10
  13  11  11   -3.60    2.90
  13 -11 -11   -2.70    4.20
 -13 -11  11    0.10    4.60
   1 -13  11    1.50    2.70
  -1  13  11    0.70    3.40
   1  13  11    3.50    3.40
  -1 -13  11   -2.50    2.60
   3 -13  11    0.30    2.90
  -3 -13  11    0.00    2.80
   3  13  11    3.10    2.60
   3 -13 -11    1.20    4.40
   5 -13  11    0.10    3.20
  -5 -13 -11   -2.40    4.10
  -5 -13  11    4.40    3.30
   5 -13 -11    0.50    4.30
   5  13  11    0.00    2.60
  -7 -13 -11   -1.50    3.70
   7 -13  11    1.60    3.10
  -7 -13  11    2.70    3.30
   7 -13 -11    2.50    4.80
   7  13  11   -1.20    2.80
  -9 -13 -11    3.00    3.90
   9 -13  11    6.30    3.60
   9 -13 -11   -1.40    4.80
   9  13  11    4.50    3.10
  -9 -13  11    2.20    3.70
  11 -13  11    4.20    3.70
 -11 -13 -11    1.30    3.80
 -11 -13  11    0.40    3.70
  11 -13 -11   -1.30    4.70
  11  13  11    0.40    3.10
  -1  15  11   -0.10    3.80
   1 -15  11    1.10    3.20
  -1 -15  11   -2.60    3.00
   1  15  11    5.40    3.80
   3 -15  11   -1.00    2.90
   3  15  11    1.00    3.70
  -3 -15  11    1.90    3.10
   3 -15 -11    5.10    5.20
  -5 -15 -11  -10.00    4.60
   5 -15  11   -0.60    3.00
  -5 -15  11    4.30    3.60
   5 -15 -11    0.30    5.30
   5  15  11    0.10    2.90
  -7 -15 -11    6.50    4.60
   7 -15  11    4.50    3.40
   7  15  11   -2.20    3.00
  -7 -15  11    1.30    3.50
   7 -15 -11    8.30    5.50
  -9 -15 -11   -0.50    3.80
   9 -15  11   -1.80    3.90
   9 -15 -11    1.40    5.60
   9  15  11    1.60    3.30
  -9 -15  11   -0.90    3.60
   1 -17  11    2.30    3.40
   1  17  11   -0.10    4.00
  -1 -17  11    3.40    3.50
   3 -17  11    0.70    3.30
   3 -17 -11   -1.80    5.80
  -3 -17  11    3.90    3.30
   3  17  11   -4.50    3.80
   5 -17  11    1.90    3.50
   5 -17 -11   -7.80    6.10
   5  17  11    5.90    4.10
  -5 -17  11    0.10    3.20
   0   0  12  896.71   38.30
   0   0 -12  833.92   41.50
   0   0  12  899.41   37.40
   2   0  12  601.44   25.50
   2   0  12  552.54   25.30
  -2   0 -12  593.84   30.20
  -2   0  12  525.05   26.90
  -4   0 -12  569.44   30.60
   4   0  12  539.55   25.20
  -4   0  12  617.44   26.40
   4   0  12  591.74   26.00
  -6   0 -12  246.48   19.00
   6   0  12  279.97   14.30
  -6   0  12  277.27   14.20
   8   0  12  236.48   12.90
   8   0 -12  220.08   12.90
  10   0 -12   85.09    7.70
  10   0  12   96.09    8.00
  12   0 -12   89.29    8.00
  12   0  12   75.19    7.50
  14   0  12   20.00    5.00
  14   0 -12   27.40    5.10
  14   0  12   22.10    5.10
 -16   0 -12   16.30    6.10
  16   0  12   18.40    5.30
  16   0 -12   26.70    5.90
   0  -2  12  635.54   28.30
   0  -2  12  575.74   27.10
   0  -2 -12  599.34   29.30
   0   2  12  582.34   25.70
   0   2  12  543.15   26.60
   2  -2  12  400.26   18.90
   2  -2  12  377.26   18.50
  -2  -2 -12  407.56   22.10
  -2  -2 -12  361.76   19.40
   2   2 -12  352.76   18.00
  -2   2 -12  371.16   24.00
  -2  -2  12  406.16   19.10
   2  -2 -12  411.76   21.10
  -2  -2  12  432.76   19.70
   2  -2 -12  404.86   18.90
  -4  -2 -12  475.55   26.40
   4  -2  12  503.75   22.20
  -4   2 -12  457.15   27.80
   4  -2 -12  485.35   24.40
   4  -2 -12  460.15   22.70
  -4  -2  12  458.45   22.70
  -4  -2  12  490.05   22.20
  -6  -2 -12  246.38   17.50
   6  -2  12  271.57   13.70
   6  -2 -12  245.88   14.40
  -6  -2  12  249.58   14.10
   6   2  12  230.98   13.30
   6   2  12  253.77   13.10
  -6   2 -12  289.77   26.60
   8  -2  12  237.48   13.50
   8   2  12  243.28   13.50
  -8  -2  12  249.97   14.60
  10   2 -12  123.29   10.30
  10  -2  12   88.19    7.60
  10   2  12   94.59    7.30
  10  -2 -12  100.09    8.30
  10   2  12  112.39    8.50
  12   2 -12   91.39    7.80
  12  -2  12   89.99    8.10
  12   2  12   87.59    8.30
  12   2  12   95.69    7.70
  12  -2 -12   94.89    8.00
 -14  -2 -12   19.10    6.10
  14   2 -12   29.90    5.10
  14  -2  12   19.90    5.00
  14  -2  12   36.40    6.70
  14   2  12   39.10    6.20
  14  -2 -12   27.80    5.00
 -16  -2 -12   17.90    5.90
  16  -2  12   27.40    6.80
  16   2 -12   17.00    4.40
  16  -2  12   11.20    4.40
  16   2  12   40.30    6.90
  16  -2 -12   19.00    4.80
   0  -4  12  579.74   27.30
   0   4  12  651.43   27.80
   0  -4 -12  637.44   27.20
   0  -4  12  566.54   28.10
   0  -4 -12  615.64   28.80
   2  -4  12  487.55   22.90
  -2  -4 -12  480.65   24.60
   2  -4  12  503.65   23.60
  -2  -4  12  464.45   23.30
   2   4  12  489.75   22.20
   2  -4 -12  500.35   23.30
   4  -4  12  416.36   18.90
  -4  -4 -12  314.97   25.40
  -4  -4  12  383.06   19.50
   4   4  12  376.26   17.80
  -4   4 -12  353.86   24.60
   4  -4 -12  414.66   19.30
   6  -4  12  229.48   13.00
  -6  -4 -12  223.38   16.00
   6   4  12  226.98   12.80
   6   4  12  231.58   12.00
   6  -4 -12  245.68   13.80
  -6  -4  12  246.48   14.50
   8  -4  12  139.69    9.80
   8   4  12  162.08   10.50
  -8  -4  12  180.68   12.70
   8  -4 -12  166.18   11.30
   8   4  12  154.68    9.20
 -10  -4 -12   86.79    8.90
  10  -4  12   78.19    7.40
  10   4  12   82.59    7.00
  10  -4 -12   91.89    8.40
 -12  -4 -12   41.40    7.20
  12  -4  12   59.39    6.60
  12   4 -12   52.59    6.70
  12   4  12   54.29    6.10
  12  -4 -12   59.39    7.00
  14   4 -12   28.10    5.10
  14  -4  12   28.50    5.70
 -14  -4 -12   16.60    5.00
  14   4  12   24.40    4.60
  14  -4 -12   32.10    5.30
  16   4 -12   17.70    4.90
  16  -4  12   14.80    4.40
 -16  -4 -12   19.90    5.80
  16   4  12   15.00    4.40
  16  -4 -12   16.30    4.20
   0  -6  12  256.57   15.20
   0  -6 -12  262.97   14.90
   0   6  12  269.87   14.20
   0  -6  12  257.17   14.10
   2  -6  12  260.77   15.20
   2  -6  12  283.27   14.10
  -2  -6 -12  258.37   15.20
  -2   6  12  225.98   14.20
   2   6  12  253.17   13.30
   2  -6 -12  277.57   13.70
  -2  -6  12  227.08   14.50
  -2  -6  12  269.97   14.20
  -4  -6 -12  188.38   13.30
  -4  -6 -12  197.28   13.40
   4  -6  12  208.98   11.80
  -4  -6  12  208.98   13.30
   4   6  12  198.28   10.80
  -6  -6 -12  175.28   13.40
   6  -6  12  177.88   10.90
  -6  -6 -12  175.28   11.60
   6  -6 -12  184.18   12.20
  -6  -6  12  170.88   13.00
   6   6  12  192.38   10.30
   8  -6  12  125.39    8.50
  -8  -6 -12  111.99    9.50
  -8  -6  12  107.19   11.40
   8   6  12  117.49    7.80
   8  -6 -12  109.19    9.70
  10  -6  12   83.59    7.40
 -10  -6 -12   86.99    8.70
  10  -6 -12   93.49    8.50
 -10  -6  12   86.19    9.60
  10   6  12   79.19    6.80
  12  -6  12   45.40    5.90
 -12  -6 -12   54.19    8.00
  12   6 -12   48.20    6.10
  12   6  12   51.19    6.10
 -12  -6  12   53.79    8.70
  12  -6 -12   45.20    6.20
  14  -6  12   29.40    5.70
 -14  -6 -12   27.50    7.40
  14   6 -12   27.00    5.80
  14  -6 -12   35.90    6.20
  14   6  12   33.80    5.20
 -16  -6 -12    8.10    5.50
  16   6 -12   11.30    4.80
   0  -8 -12  260.67   14.60
   0   8  12  248.38   14.10
   0  -8  12  256.87   14.10
  -2  -8 -12  262.47   15.70
   2  -8  12  236.38   13.90
  -2   8  12  271.17   15.20
   2   8  12  259.57   13.90
  -2  -8  12  290.07   14.70
  -4  -8 -12  163.08   12.10
   4  -8  12  161.08   10.20
   4  -8 -12  157.98   10.90
   4   8  12  151.78    9.40
  -4  -8  12  158.08   10.50
   6  -8  12  129.19    9.10
  -6  -8 -12  130.79   10.00
   6   8  12  125.79    8.40
  -6  -8  12  130.89    9.60
   6  -8 -12  128.79   10.20
   8  -8  12   61.69    6.50
  -8  -8 -12   65.09    7.60
  -8  -8  12   72.29    8.20
   8   8  12   69.69    6.00
   8  -8 -12   54.59    7.60
 -10  -8 -12   49.99    7.20
  10  -8  12   46.50    5.80
 -10  -8  12   62.49    8.10
  10   8  12   50.89    5.70
  10  -8 -12   40.60    6.30
  12  -8  12   21.50    4.60
 -12  -8 -12   25.40    6.00
  12   8 -12   33.70    5.80
  12  -8 -12   33.00    6.40
 -12  -8  12   31.40    7.00
  12   8  12   35.10    5.20
  14  -8  12   20.10    5.10
  14   8 -12   18.10    5.60
 -14  -8 -12   23.00    6.00
  14  -8 -12   18.10    4.70
 -14  -8  12   35.60    8.30
  14   8  12   24.80    5.10
   0  10  12   88.09    7.90
   0 -10  12   91.49    7.80
   2 -10  12  110.49    8.50
  -2  10  12  110.69    9.20
   2  10  12  103.49    8.10
  -2 -10  12  105.29    8.40
   4 -10  12   83.39    7.00
  -4 -10 -12   78.49   10.10
  -4 -10  12   80.39    7.10
   4 -10 -12   68.49    8.00
   4  10  12   74.59    6.40
   6 -10  12   86.49    7.10
  -6 -10 -12   81.59    8.30
  -6 -10  12   88.99    8.00
   6  10  12   89.39    7.10
   6 -10 -12   91.99    9.50
  -8 -10 -12   62.59    7.80
   8 -10  12   46.70    6.10
  -8 -10  12   60.99    7.60
   8 -10 -12   56.39    8.00
   8  10  12   49.40    5.90
  10 -10  12   45.50    6.00
 -10 -10 -12   56.09    7.10
  10  10  12   45.80    5.30
 -10 -10  12   47.40    7.30
  10 -10 -12   45.30    7.40
  12 -10  12   13.50    3.90
 -12 -10 -12   12.40    4.40
 -12 -10  12   21.20    6.30
  12  10  12   15.30    3.80
  12 -10 -12   17.50    5.30
   0 -12  12   96.39    7.90
   0  12  12   84.49    8.50
  -2  12  12  103.99    9.20
   2 -12  12   89.69    7.80
  -2 -12  12  100.49    8.20
   2  12  12  106.09    8.40
   4 -12  12   62.99    6.30
  -4 -12 -12   69.19    8.00
  -4 -12  12   58.39    6.70
   4  12  12   57.79    6.30
   4 -12 -12   52.39    7.60
  -6 -12 -12   66.09    8.10
   6 -12  12   47.80    6.20
  -6 -12  12   51.09    6.90
   6 -12 -12   37.90    7.30
   6  12  12   49.80    5.70
  -8 -12 -12   32.60    6.00
   8 -12  12   41.90    6.30
   8 -12 -12   14.10    5.70
  -8 -12  12   34.40    6.10
   8  12  12   31.00    5.00
  10 -12  12   24.10    4.70
 -10 -12 -12   18.30    5.30
  10  12  12   17.10    3.80
 -10 -12  12   21.20    5.30
  10 -12 -12   14.50    5.70
 -12 -12 -12   11.60    4.90
  12 -12  12   21.10    5.20
  12 -12 -12    9.40    4.90
  12  12  12   18.30    4.40
 -12 -12  12    6.10    5.10
   0  14  12   14.30    4.80
   0 -14  12   26.30    5.30
   2 -14  12   31.10    5.20
  -2 -14  12   25.60    4.90
   2  14  12   25.20    4.80
   4 -14  12   31.60    5.40
  -4 -14 -12   35.60    6.70
   4  14  12   25.20    4.80
   4 -14 -12   15.70    5.50
  -4 -14  12   22.30    4.70
  -6 -14 -12   23.50    5.90
   6 -14  12   26.40    5.10
   6  14  12   33.30    5.60
   6 -14 -12   22.80    6.80
  -6 -14  12   39.70    6.00
  -8 -14 -12   20.30    5.50
   8 -14  12   18.80    5.00
   8 -14 -12   30.00    7.70
  -8 -14  12   16.80    4.60
   8  14  12   19.80    4.30
   0 -16  12   36.10    5.90
   0  16  12   38.00    7.30
   2 -16  12   26.00    5.30
   2 -16 -12   32.00    7.50
   2  16  12   39.90    6.90
  -2 -16  12   26.40    5.30
   4 -16  12   18.80    4.30
   4  16  12   15.90    4.70
   4 -16 -12    7.20    5.80
  -4 -16  12   19.60    4.90
  -6 -16 -12   24.00    7.50
   6 -16  12   23.20    5.00
  -6 -16  12   13.30    4.10
   6  16  12   11.50    4.00
  -1  -1 -13   -0.20    4.90
  -1   1  13   -0.80    3.60
   1  -1 -13    3.70    5.70
   3  -1  13    4.10    4.00
   3  -1  13    1.10    2.80
  -3   1 -13   -1.30    5.80
  -3  -1  13    7.90    3.40
   3  -1 -13    8.00    6.60
  -5  -1 -13    2.20    5.60
   5  -1  13    1.90    2.80
   5   1  13    1.60    2.50
  -5  -1  13   -1.00    3.10
   5  -1 -13   15.40    8.10
   7  -1  13    3.40    3.30
   7  -1 -13    5.30    3.90
   7   1  13    2.30    3.00
  -7  -1  13    5.10    4.70
   9   1 -13   -5.30    3.60
   9  -1  13   -1.80    2.70
   9   1  13    1.50    3.40
   9  -1 -13   -1.10    3.60
  11  -1  13    3.50    3.50
  11   1 -13    3.30    3.70
  11   1  13    0.00    3.10
  11  -1 -13   -1.30    3.50
  13   1 -13    3.70    3.90
  13  -1  13    0.20    3.50
  13  -1  13    3.50    4.20
  13   1  13    0.80    3.40
  13  -1 -13    0.00    3.80
  13   1  13   -0.20    3.50
 -15  -1 -13    2.40    4.60
  15  -1  13   -4.60    3.80
  15   1 -13    1.90    3.70
  15  -1  13   -3.40    5.30
  15  -1 -13    6.10    4.10
  15   1  13    1.20    4.10
  -1  -3 -13    4.00    4.80
   1  -3  13    3.90    2.90
   1  -3  13    4.00    3.00
  -1  -3  13    1.70    2.90
   1  -3 -13   -0.10    5.40
  -3  -3 -13    1.10    4.80
   3  -3  13   -0.30    2.80
   3  -3 -13    1.10    5.00
  -3  -3  13    1.90    3.10
   3  -3 -13    3.00    3.70
  -3   3 -13    0.80    7.80
   5  -3  13    4.60    3.20
  -5  -3 -13    5.90    6.10
  -5  -3  13    5.80    3.80
   5  -3 -13    8.10    4.00
   5   3  13    5.90    3.70
   7  -3  13    3.30    2.70
  -7  -3  13   -5.20    3.80
   7   3  13    0.20    2.90
   7  -3 -13   -1.00    4.50
   7   3  13    1.60    2.90
   9  -3  13    0.20    3.00
   9   3  13    4.10    3.20
   9   3  13   -1.70    2.80
   9  -3 -13    1.00    3.80
  11  -3  13    2.50    3.50
  11   3 -13   -2.40    3.50
  11   3  13    5.50    3.70
  11  -3 -13   -2.00    3.30
  13  -3  13    0.20    3.80
 -13  -3 -13   -0.10    3.70
  13   3 -13    2.30    3.90
  13   3  13    2.40    3.60
  13  -3 -13    0.10    3.50
  15  -3  13    0.90    3.80
  15   3 -13   -1.10    4.00
 -15  -3 -13   -3.90    4.30
  15  -3 -13    1.80    3.60
  15   3  13    1.80    3.80
  -1   5  13   -1.20    3.30
   1  -5  13    1.00    4.20
   1  -5  13    3.30    3.00
  -1  -5 -13    1.70    4.20
  -1  -5  13   -0.60    3.90
   1   5  13    0.30    2.70
  -1  -5  13    7.10    3.40
   1  -5 -13    3.90    3.00
   3  -5  13    1.90    3.40
  -3  -5 -13    7.60    4.70
   3   5  13    9.10    3.60
   3  -5 -13    4.40    6.70
  -3  -5  13    5.60    4.20
   5  -5  13    0.90    2.90
  -5  -5 -13    3.10    4.90
  -5  -5  13    0.50    4.50
   5   5  13    1.20    3.00
   5  -5 -13   -2.90    3.70
   7  -5  13    1.80    2.80
  -7  -5 -13   -2.00    3.60
   7  -5 -13    3.70    4.70
  -7  -5  13    0.40    5.40
   7   5  13    2.70    3.10
  -9  -5 -13    0.20    4.00
   9  -5  13    1.20    2.90
   9   5  13    1.30    2.50
   9  -5 -13   -1.80    4.10
 -11  -5 -13    3.00    4.40
  11   5 -13    0.40    3.60
  11  -5  13   -1.50    2.80
  11   5  13   -1.30    3.00
  11  -5 -13    5.00    3.90
  13  -5  13   -1.20    2.60
 -13  -5 -13    4.00    5.10
  13   5 -13    0.80    4.30
  13   5  13    2.20    3.50
  13  -5 -13    0.50    3.60
  15   5 -13   -4.10    4.10
  15  -5  13    0.70    3.50
 -15  -5 -13    6.90    5.20
  15   5  13   -4.00    3.30
  15  -5 -13   -1.20    3.50
  -1   7  13   -0.90    3.30
  -1  -7 -13   -2.10    4.50
   1  -7  13    1.30    3.30
   1   7  13    0.20    2.80
  -1  -7  13    2.00    3.40
  -3  -7 -13    1.50    4.40
   3  -7  13    2.10    3.40
   3   7  13    3.10    2.80
  -3  -7  13   -1.10    3.40
   3  -7 -13   -3.00    3.50
   5  -7  13    3.10    2.90
  -5  -7 -13    2.60    3.70
   5   7  13    2.40    2.70
   5  -7 -13    1.70    4.10
  -5  -7  13    1.00    3.80
  -7  -7 -13    0.80    3.60
   7  -7  13    3.40    3.20
  -7  -7  13    1.90    4.10
   7   7  13    1.40    2.80
   7  -7 -13   -0.90    4.70
  -9  -7 -13    0.80    3.70
   9  -7  13    2.80    3.30
  -9  -7  13   -2.90    4.70
   9   7  13    0.10    2.50
   9  -7 -13    3.80    4.40
  11   7 -13   -3.50    4.50
 -11  -7 -13    3.20    4.00
  11  -7  13    1.50    3.30
  11  -7 -13    1.40    4.10
  11   7  13    1.90    3.10
 -11  -7  13   -3.00    5.50
  13  -7  13   -0.90    2.70
 -13  -7 -13   -4.90    4.50
  13   7 -13   -1.70    5.10
  13   7  13   -3.10    3.00
  13  -7 -13    1.90    4.10
 -13  -7  13    7.10    7.50
  -1   9  13    8.00    4.00
   1  -9  13   -0.90    3.10
   1   9  13    1.30    2.80
  -1  -9  13    0.10    3.30
   3  -9  13    3.90    3.30
   3  -9 -13    0.10    4.10
  -3  -9  13    1.90    3.60
   3   9  13    5.10    3.30
  -5  -9 -13   -3.60    3.90
   5  -9  13    2.40    3.30
  -5  -9  13    0.10    3.40
   5   9  13   -1.00    2.60
   5  -9 -13   -2.00    4.30
   7  -9  13    0.80    3.10
  -7  -9 -13    1.00    4.20
   7  -9 -13    6.90    4.40
  -7  -9  13    4.40    4.10
   7   9  13   -0.90    2.80
  -9  -9 -13    0.80    4.10
   9  -9  13   -0.60    2.60
   9  -9 -13   -4.00    4.60
   9   9  13   -0.50    2.90
  -9  -9  13    3.30    4.80
 -11  -9 -13    1.00    4.00
  11  -9  13    4.90    3.60
 -11  -9  13   -2.50    5.70
  11   9  13    1.30    2.60
  11  -9 -13   -2.10    4.00
  13  -9  13   -0.80    3.30
 -13  -9 -13   -0.70    4.10
  13   9  13    4.40    3.30
  13  -9 -13   -0.30    3.70
 -13  -9  13    5.20    7.00
  -1  11  13   -1.00    3.10
   1 -11  13    1.00    3.20
  -1 -11  13   -0.70    3.20
   1  11  13   -3.10    3.10
   3 -11  13    5.70    3.70
   3 -11 -13   -0.10    3.90
   3  11  13    3.20    3.20
  -3 -11  13   -2.70    3.20
   5 -11  13    2.70    3.60
  -5 -11 -13    3.60    4.90
  -5 -11  13   -0.50    3.50
   5 -11 -13    2.50    4.70
   5  11  13    0.30    2.50
  -7 -11 -13   -1.00    4.30
   7 -11  13   -2.60    3.20
   7 -11 -13   -1.20    4.10
  -7 -11  13    0.00    4.00
   7  11  13    1.90    3.00
   9 -11  13   -2.40    3.00
  -9 -11 -13   -3.40    3.90
   9  11  13   -2.40    2.70
  -9 -11  13    2.00    4.30
   9 -11 -13   -3.00    4.60
  11 -11  13   -2.10    3.30
 -11 -11 -13    1.30    4.20
  11 -11 -13    3.10    4.70
  11  11  13    1.10    3.10
 -11 -11  13    2.60    5.50
  -1  13  13   -1.30    3.20
   1 -13  13    5.00    3.40
   1  13  13   -4.10    3.70
  -1 -13  13   -2.10    2.90
   3 -13  13   -1.50    3.30
   3 -13 -13   -1.90    4.60
  -3 -13  13    1.30    3.40
   3  13  13    4.80    3.40
   5 -13  13   -1.00    3.20
  -5 -13 -13    2.10    5.50
  -5 -13  13    2.60    3.30
   5 -13 -13    1.00    4.80
   5  13  13    0.70    2.70
   7 -13  13    6.40    3.40
  -7 -13 -13   -3.10    4.80
  -7 -13  13   -0.70    3.70
   7  13  13    1.70    2.50
   7 -13 -13   -2.70    4.80
   9 -13  13    0.40    3.20
  -9 -13 -13   -3.10    4.30
   9  13  13    2.20    3.50
   9 -13 -13   -1.90    5.30
  -9 -13  13    0.30    4.30
   1 -15  13   -1.20    3.10
  -1 -15  13    1.40    3.60
   1  15  13    1.50    3.90
   3 -15  13   -0.50    3.10
  -3 -15  13    0.20    3.40
   3  15  13    6.60    3.90
   3 -15 -13    0.10    5.10
   5 -15  13    0.40    3.70
   5 -15 -13   -3.70    5.40
  -5 -15  13   -0.20    3.60
   5  15  13   -1.80    3.40
   0   0 -14   42.70   10.20
  -2   0 -14   10.80    6.90
   2   0 -14   15.50    8.10
   4   0  14   40.20    6.00
   4   0 -14   32.00   10.60
   6   0  14   19.70    4.50
   8   0 -14   25.90    5.20
   8   0  14   30.20    5.30
  10   0  14   21.90    5.10
  10   0  14   14.20    5.00
  10   0 -14   14.10    4.90
  12   0  14   27.40    6.20
  12   0  14   31.00    6.20
  12   0 -14   20.10    5.00
  14   0  14   15.40    5.00
  14   0 -14   14.90    4.60
  14   0  14   12.50    5.90
   0  -2 -14   10.50    6.60
   2  -2  14    8.50    3.80
  -2  -2 -14   10.20    6.50
  -2   2 -14    4.50    7.60
   2  -2 -14   11.00    7.00
  -2  -2  14   10.90    4.50
   4  -2  14   30.40    5.20
  -4  -2 -14   16.10    6.70
   4  -2 -14   36.00    9.10
  -4  -2  14   13.50    4.40
   6  -2  14   20.20    4.20
  -6  -2  14   24.20    6.60
   6  -2 -14   21.00    5.70
   6   2  14   19.60    4.80
   8  -2  14   42.50    6.50
   8   2  14   39.80    6.30
   8  -2 -14   26.40    5.50
   8   2  14   44.30    6.60
  10   2 -14   20.30    5.20
  10  -2  14   30.10    5.60
  10   2  14   27.80    5.60
  10   2  14   37.30    5.80
  10  -2 -14   24.00    5.50
  12   2 -14   25.00    5.30
  12  -2  14   24.20    5.00
  12  -2 -14   27.40    5.40
  12   2  14   20.10    5.00
  12   2  14   29.00    5.50
 -14  -2 -14    8.00    5.50
  14   2 -14    6.70    4.60
  14  -2  14    9.30    4.00
  14  -2 -14    7.80    4.30
  14   2  14   13.40    5.30
   0   4  14   40.20    6.60
   0  -4 -14   55.39    8.20
   0  -4 -14   37.80    7.20
   0  -4  14   38.30    5.70
   2  -4  14   26.70    5.40
  -2  -4 -14   24.80    6.70
  -2  -4  14   19.80    5.60
   2  -4 -14   38.20    8.10
   2   4  14   25.70    4.90
  -4  -4 -14   29.60    7.70
   4  -4  14   28.00    4.80
   4  -4 -14   24.40    5.60
  -4  -4  14   30.40    6.60
   6  -4  14   25.60    5.00
   6  -4 -14   20.10    5.80
   6   4  14   16.80    4.60
  -6  -4  14   24.40    6.20
   6   4  14   29.10    4.80
   8  -4  14   30.00    5.70
   8   4  14   37.70    5.60
   8  -4 -14   30.60    6.10
   8   4  14   32.80    5.90
  10  -4  14   27.70    5.50
 -10  -4 -14   16.00    5.10
  10   4 -14   22.60    5.00
  10  -4 -14   18.40    5.10
  10   4  14   22.50    4.60
  12   4 -14   23.10    5.60
 -12  -4 -14   13.60    5.30
  12  -4  14   16.40    4.80
  12   4  14   17.60    4.50
  12  -4 -14   18.60    5.00
  14  -4  14   12.00    4.60
 -14  -4 -14   13.10    5.50
  14   4 -14   14.70    4.90
  14   4  14   11.80    4.60
  14  -4 -14    6.90    4.10
   0  -6  14   15.00    4.40
   0   6  14   12.80    4.40
  -2  -6 -14   24.90    6.80
   2  -6  14   18.40    4.90
   2  -6 -14   20.40    5.90
   2   6  14   19.50    4.90
  -2  -6  14   12.40    4.30
  -4  -6 -14    8.70    5.90
   4  -6  14   21.30    4.60
   4   6  14   22.50    4.60
  -4  -6  14   23.70    5.80
   4  -6 -14   22.20    5.60
  -6  -6 -14   28.80    5.60
   6  -6  14   29.00    5.20
   6  -6 -14   11.60    4.90
  -6  -6  14   26.50    6.00
   6   6  14   40.30    5.30
  -8  -6 -14   26.70    6.00
   8  -6  14   34.30    5.80
  -8  -6  14   21.50    6.20
   8   6  14   24.20    4.60
   8  -6 -14   18.80    5.70
 -10  -6 -14   17.10    5.00
  10  -6  14   16.80    4.10
  10  -6 -14   26.80    5.60
  10   6  14   27.80    4.60
 -10  -6  14   23.80    7.50
 -12  -6 -14   18.10    5.10
  12  -6  14   12.60    4.30
  12   6 -14   20.80    5.80
  12  -6 -14   21.80    5.40
  12   6  14   24.10    4.60
  14   6 -14    9.50    5.60
  14  -6  14    9.10    4.40
 -14  -6 -14    6.80    4.80
  14  -6 -14   12.00    4.50
  14   6  14   11.20    4.50
   0   8  14   39.70    6.30
   0  -8  14   30.20    5.70
   2  -8  14   35.70    6.00
   2   8  14   45.40    6.40
  -2  -8  14   39.80    6.60
   4  -8  14   32.30    5.60
   4   8  14   29.00    4.90
   4  -8 -14   19.00    5.30
  -4  -8  14   21.70    5.50
   6  -8  14   31.90    5.70
  -6  -8 -14   19.10    5.50
  -6  -8  14   26.00    6.30
   6   8  14   33.00    5.00
   6  -8 -14   20.30    5.40
  -8  -8 -14   20.70    5.60
   8  -8  14   18.70    4.60
   8  -8 -14   21.00    6.50
  -8  -8  14   14.60    5.40
   8   8  14   19.70    4.20
  10  -8  14   18.40    4.70
 -10  -8 -14   21.00    5.90
  10   8  14   21.60    4.90
  10  -8 -14   16.90    5.50
 -10  -8  14   26.00    7.10
  12  -8  14    9.80    4.10
 -12  -8 -14    2.40    4.60
 -12  -8  14    7.60    7.30
  12  -8 -14    2.10    4.60
  12   8  14   13.40    3.70
   0 -10  14   10.20    3.90
   0  10  14   23.80    5.80
   2 -10  14   20.20    4.80
   2  10  14   21.20    5.20
  -2 -10  14   21.90    5.20
  -4 -10 -14   21.90    6.20
   4 -10  14   26.80    5.40
   4  10  14   19.60    4.10
  -4 -10  14   15.20    5.10
   4 -10 -14   20.40    5.70
  -6 -10 -14   29.90    6.70
   6 -10  14   18.30    4.40
   6  10  14   27.80    4.80
  -6 -10  14   18.60    5.50
   6 -10 -14   19.60    6.10
  -8 -10 -14   19.60    5.70
   8 -10  14   13.30    3.90
   8 -10 -14   15.30    5.80
  -8 -10  14   16.50    5.70
   8  10  14   12.20    3.90
  10 -10  14   15.40    4.30
 -10 -10 -14   21.90    5.40
  10 -10 -14   12.60    6.00
  10  10  14   17.00    4.40
 -10 -10  14   18.70    6.20
   0  12  14   16.10    4.70
   0 -12  14   33.30    6.00
   2 -12  14   26.00    5.40
   2  12  14   23.70    5.20
   2 -12 -14   20.10    5.80
  -2 -12  14   34.80    6.40
   4 -12  14   26.20    5.40
   4 -12 -14   26.00    6.60
   4  12  14   26.40    5.30
  -4 -12  14   17.10    5.00
  -6 -12 -14   27.80    6.80
   6 -12  14   19.60    4.70
   6 -12 -14   17.00    6.10
  -6 -12  14   15.30    5.20
   6  12  14   20.80    4.50
   8 -12  14    9.50    3.90
  -8 -12 -14    8.50    5.70
   8  12  14    9.00    3.90
  -8 -12  14    9.80    4.70
   8 -12 -14    9.50    6.70
   0  14  14    9.40    4.10
   0 -14  14    6.10    3.70
   2 -14  14   13.00    4.10
   2 -14 -14    7.90    5.60
  -2 -14  14   16.60    5.00
   2  14  14   12.10    4.60
   4 -14  14   12.70    4.30
   4  14  14    8.80    4.50
  -4 -14  14    8.30    4.40
   4 -14 -14    5.50    5.50
   6 -14  14    9.40    3.60
   6  14  14    9.90    3.90
  -6 -14  14    8.60    4.60
   6 -14 -14   11.30    6.90
   1   1 -15    2.20    8.00
  -1  -1 -15   -4.50    7.00
   1  -1 -15    3.10    7.50
  -1   1 -15   -2.30    7.80
   3   1 -15   -1.80    9.60
   3  -1  15    0.20    3.10
   5  -1  15    0.20    2.90
   5   1  15    4.70    3.40
   5  -1 -15    0.70    6.10
   7  -1  15    1.00    3.10
   7   1 -15    3.10    4.80
   7   1  15   -2.70    3.40
   7  -1 -15    3.50    4.70
   9  -1  15    1.00    3.50
   9   1 -15    2.60    4.60
   9   1  15   -3.10    4.30
   9   1  15   -1.60    3.80
   9  -1 -15    3.90    4.90
  11  -1  15   -4.20    3.60
  11   1 -15   -1.20    4.60
  11   1  15    4.80    3.70
  11  -1 -15    0.70    4.40
  11   1  15    5.00    4.40
  13   1 -15    9.10    4.70
  13  -1  15   -1.80    3.20
  13   1  15   -2.40    3.80
  13  -1 -15    0.90    4.40
  13   1  15    7.10    5.40
  -1  -3 -15    1.10    6.60
   1  -3  15    0.30    3.40
   3  -3  15    1.10    3.40
  -3  -3 -15   -1.50    8.10
  -3  -3  15   -1.80    4.30
   3  -3 -15    8.20    5.60
   5  -3  15    1.50    3.30
   5   3  15    3.10    3.80
   5   3  15    5.30    4.20
   5  -3 -15  -10.10    5.00
   7  -3  15    1.00    2.90
   7   3  15    0.80    3.80
   7   3  15    0.40    3.60
   7  -3 -15    3.00    5.00
   9   3 -15   -0.10    4.20
   9  -3  15   -0.10    3.60
   9   3  15    0.90    4.00
   9  -3 -15    2.80    5.00
   9   3  15    4.70    4.30
  11   3 -15    3.50    4.50
  11  -3  15   -4.00    3.10
  11   3  15    1.00    3.70
  11  -3 -15   -2.30    3.70
 -13  -3 -15   -1.20    4.40
  13  -3  15   -4.10    3.60
  13   3 -15    4.50    4.80
  13  -3 -15   -1.70    3.80
  13   3  15   -2.40    4.40
   1  -5  15    1.80    3.40
  -1  -5  15    0.20    3.80
   1   5  15   -0.30    3.60
   3  -5  15    2.30    3.90
  -3  -5 -15   -4.80    6.30
  -3  -5  15   -4.80    3.90
   3  -5 -15   -1.30    4.70
   3   5  15    2.40    3.70
   5  -5  15   -1.80    3.10
   5   5  15    3.90    3.40
   5  -5 -15   -6.70    4.70
  -5  -5  15   -3.60    4.60
   7  -5  15   -6.60    2.90
  -7  -5 -15    2.10    4.20
   7  -5 -15    2.80    5.10
  -7  -5  15   -7.40    5.10
   7   5  15   -1.50    3.50
   9  -5  15   -0.50    2.80
  -9  -5 -15    1.50    4.90
   9  -5 -15    0.10    4.20
   9   5  15    0.60    3.70
  11  -5  15    2.40    3.40
  11   5 -15   -5.70    4.60
 -11  -5 -15    3.00    4.40
  11   5  15   -0.30    4.30
  11  -5 -15    3.00    4.40
  13  -5  15   -2.20    3.40
  13   5 -15    0.30    5.30
 -13  -5 -15   -4.20    4.10
  13   5  15    2.50    3.70
  13  -5 -15   -3.50    3.80
   1  -7  15    1.50    3.80
  -1  -7  15   -0.80    3.70
   1   7  15    4.10    4.60
   3  -7  15    2.00    3.40
   3   7  15   -1.30    3.30
   3  -7 -15   -3.10    4.20
  -3  -7  15    2.50    4.60
  -5  -7 -15    0.80    4.90
   5  -7  15   -1.50    3.30
  -5  -7  15    6.90    5.10
   5  -7 -15   -1.00    4.90
   5   7  15   -1.80    3.00
   7  -7  15    1.70    3.10
  -7  -7 -15   -5.60    4.20
   7  -7 -15   -2.40    4.80
  -7  -7  15    2.00    5.30
   7   7  15    0.30    2.80
  -9  -7 -15    4.50    4.30
   9  -7  15    0.30    3.40
   9  -7 -15    1.90    4.30
   9   7  15   -1.90    3.40
  -9  -7  15    7.10    6.40
 -11  -7 -15    3.20    4.50
  11  -7  15    0.50    3.40
 -11  -7  15   -8.60    7.40
  11   7  15    0.20    4.10
  11  -7 -15   -0.30    4.70
   1  -9  15    4.60    3.90
  -1   9  15   -1.50    3.60
   1   9  15   -3.90    3.00
  -1  -9  15   -0.70    3.50
   3  -9  15   -0.90    3.20
   3   9  15    3.60    3.20
   3  -9 -15    4.00    4.90
  -3  -9  15    3.20    4.20
  -5  -9 -15    1.50    5.40
   5  -9  15    3.30    3.70
   5   9  15    0.40    2.80
  -5  -9  15    3.50    4.70
   5  -9 -15    4.00    4.80
  -7  -9 -15   -0.60    5.10
   7  -9  15   -0.20    2.90
  -7  -9  15    5.00    5.40
   7  -9 -15    4.90    5.50
   7   9  15    2.20    3.20
  -9  -9 -15   -2.20    4.70
   9  -9  15    5.40    3.80
  -9  -9  15   -8.60    5.90
   9   9  15   -2.50    3.30
   9  -9 -15    1.30    5.00
 -11  -9 -15    2.70    4.90
  11  -9  15    0.50    2.90
  11  -9 -15   -0.60    4.60
  11   9  15    4.00    3.70
 -11  -9  15    2.20    7.30
   1 -11  15   -1.50    3.30
   1  11  15   -5.20    3.60
  -1 -11  15   -2.90    3.70
   3 -11  15   -2.30    3.30
  -3 -11  15    1.50    4.40
   3 -11 -15    1.90    4.60
   3  11  15    0.80    3.10
  -5 -11 -15    2.80    6.00
   5 -11  15    0.20    3.70
  -5 -11  15   -0.30    4.00
   5  11  15   -0.50    3.40
   5 -11 -15   -2.30    4.60
   7 -11  15    2.90    3.30
  -7 -11 -15    3.70    5.60
   7 -11 -15    0.60    5.20
   7  11  15    0.60    3.00
  -7 -11  15    4.90    4.80
   9 -11  15    0.80    3.20
  -9 -11 -15   -2.00    5.00
  -9 -11  15    2.80    5.60
   9  11  15    0.90    3.40
   9 -11 -15   -4.30    5.60
   1 -13  15   -2.60    3.00
   1  13  15    2.00    4.30
  -1 -13  15    0.80    3.30
   3 -13  15    4.20    3.90
   3  13  15   -4.30    3.10
   3 -13 -15   -1.90    4.90
  -3 -13  15    3.60    4.30
   5 -13  15    1.10    3.20
  -5 -13  15   -8.60    4.10
   5  13  15   -1.40    3.70
   5 -13 -15   -0.80    5.50
   0   0 -16  210.48   20.80
   2   0  16  202.18   12.60
   4   0  16  201.78   12.80
   6   0  16   91.79    8.50
   6   0 -16   83.19   10.30
   8   0 -16   75.99    9.30
   8   0  16   73.59    8.20
  10   0  16   44.10   10.20
  10   0  16   40.60    7.00
  10   0 -16   40.80    7.00
  12   0  16   22.30    5.40
  12   0 -16   30.40    6.10
   0  -2 -16  137.99   15.80
   0  -2  16  215.18   12.70
   2  -2  16  160.88   11.00
   2  -2 -16  157.88   13.10
   4  -2  16  159.38   11.20
   4  -2 -16  163.78   13.40
   4   2  16  151.58   11.40
   4   2  16  167.28   12.80
   6  -2  16  102.29    8.90
   6   2  16   94.19    9.80
   6   2  16  119.89    9.90
   6  -2 -16  111.69   11.50
   8   2 -16   81.79    9.50
   8  -2  16   76.69    7.80
   8   2  16   78.89    8.20
   8   2  16   86.69    9.60
   8  -2 -16   51.39    7.90
  10   2 -16   46.40    7.10
  10  -2  16   37.80    6.40
  10   2  16   61.59    8.40
  10  -2 -16   38.50    6.40
  10   2  16   42.90    8.00
  12   2 -16   46.00    7.00
  12  -2  16   23.20    5.70
  12   2  16   31.80    7.90
  12  -2 -16   30.40    5.70
   0  -4  16  187.98   12.60
   2  -4  16  150.98   10.70
   2  -4 -16  150.58   12.50
  -2  -4  16  146.89   11.30
   2   4  16  149.09   11.70
   4  -4  16  133.69    9.90
  -4  -4  16  134.99   11.20
   4  -4 -16  116.79   12.40
   4   4  16  134.39   10.70
   4   4  16  146.39   11.00
   6  -4  16   80.49    8.00
  -6  -4  16   75.19    9.50
   6   4  16   88.79    9.00
   6   4  16   88.39    8.90
   6  -4 -16   67.99    9.30
   8  -4  16   53.49    6.70
   8  -4 -16   43.40    7.30
   8   4  16   64.79    8.20
  10   4 -16   33.10    9.20
  10  -4  16   28.50    5.30
 -10  -4 -16   18.70    5.80
  10   4  16   37.70    6.80
  10  -4 -16   21.80    5.80
 -12  -4 -16   12.00    5.30
  12  -4  16   15.00    4.60
  12   4 -16   31.50    7.20
  12  -4 -16   14.80    5.20
  12   4  16   27.20    6.90
   0   6  16  100.29   10.20
   0  -6  16  101.69    9.30
   2  -6  16  110.79    9.40
   2  -6 -16  102.19   10.60
   2   6  16   99.99    9.70
  -2  -6  16   90.59    9.60
  -4  -6 -16   68.89    9.00
   4  -6  16   71.59    7.60
   4  -6 -16   54.29    8.10
  -4  -6  16   85.29    9.40
   4   6  16   80.99    8.40
   6  -6  16   65.19    6.90
  -6  -6 -16   65.49    9.10
   6   6  16   50.69    6.60
  -6  -6  16   55.49    8.30
   6  -6 -16   51.49    7.90
  -8  -6 -16   31.00    7.30
   8  -6  16   37.50    6.50
  -8  -6  16   58.29   10.00
   8  -6 -16   44.10    7.60
   8   6  16   65.19    7.70
  10  -6  16   17.20    4.50
 -10  -6 -16   19.40    6.10
  10   6  16   42.80    6.80
  10  -6 -16   13.40    5.60
 -12  -6 -16    7.40    5.00
  12  -6  16   19.60    4.90
  12   6  16   26.70    6.10
  12  -6 -16    7.60    4.30
   0   8  16   90.59    9.10
   0  -8  16   79.39    8.80
   2  -8  16   82.59    8.20
  -2  -8  16   71.89    8.70
   2  -8 -16   70.09    9.10
   2   8  16   80.59    8.90
   4  -8  16   61.79    7.60
  -4  -8 -16   68.99    9.70
   4   8  16   57.99    7.30
   4  -8 -16   37.10    7.10
  -4  -8  16   54.69    8.10
  -6  -8 -16   40.90    8.00
   6  -8  16   38.20    5.90
  -6  -8  16   31.00    6.90
   6   8  16   35.70    5.40
   6  -8 -16   25.10    5.80
  -8  -8 -16   16.50    6.50
   8  -8  16   27.80    5.60
   8  -8 -16   16.80    6.10
   8   8  16   14.20    4.30
  -8  -8  16   22.70    7.60
  10  -8  16   24.80    5.30
 -10  -8 -16   12.70    6.00
  10  -8 -16   17.90    6.20
  10   8  16   20.60    5.10
 -10  -8  16   32.90    8.90
   0  10  16   35.10    6.40
   0 -10  16   34.80    6.00
   2 -10  16   51.59    7.30
  -2 -10  16   44.30    7.20
   2  10  16   45.10    7.20
   2 -10 -16   42.10    6.90
   4 -10  16   42.30    6.40
   4  10  16   36.40    6.10
  -4 -10  16   31.40    6.70
   4 -10 -16   21.10    6.10
   6 -10  16   28.20    5.10
  -6 -10 -16   26.90    7.30
   6 -10 -16   11.80    4.90
   6  10  16   20.70    4.60
  -6 -10  16   33.80    7.10
   8 -10  16   25.10    5.00
  -8 -10 -16   16.10    6.20
  -8 -10  16   15.80    6.60
   8  10  16   17.00    4.50
   8 -10 -16    7.50    5.60
   0 -12  16   22.90    5.50
   0  12  16   27.20    6.00
   2 -12  16   37.50    6.50
   2 -12 -16   10.80    5.20
   2  12  16   27.90    5.90
  -2 -12  16   30.00    6.30
   4 -12  16    8.90    3.80
   4  12  16   18.40    4.90
   4 -12 -16   10.80    6.20
  -4 -12  16   22.00    5.80
   6 -12  16   26.50    5.60
   6 -12 -16    6.60    5.40
  -6 -12  16   13.10    6.00
   6  12  16   19.10    5.00
  -1  -1 -17    5.60    7.30
   1  -1  17   -2.60    3.90
  -1  -1  17   -1.20    4.70
   1   1  17    7.80    4.80
   1  -1 -17    1.50    6.80
   3  -1  17   -1.30    3.70
   3   1  17    6.00    4.30
   3  -1 -17    0.60    7.00
   5  -1  17    8.20    4.50
   5   1 -17   11.60    6.80
   5   1  17    6.70    4.60
   5  -1 -17   -4.90    6.30
   7   1 -17    1.80    5.80
   7  -1  17    0.90    4.10
   7   1  17   -1.00    4.50
   7  -1 -17    0.00    6.30
   9  -1  17   -3.20    3.80
   9   1 -17    7.10    5.90
   9  -1 -17    9.00    5.60
   9   1  17    3.30    7.20
   9   1  17   -2.00    4.50
  11   1 -17   -2.40    5.50
  11  -1  17    2.20    4.30
  11  -1 -17   -5.60    4.60
  11   1  17   -2.50    3.80
   1  -3  17    2.40    4.30
   1  -3 -17    2.80    6.40
  -1  -3  17   -1.90    4.30
   3  -3  17    2.30    3.90
   3   3  17    6.30    7.00
   3  -3 -17   -2.90    6.30
   3   3  17    4.30    5.00
  -3  -3  17   -3.60    5.00
   5  -3  17   -3.10    3.40
   5   3  17    1.10    4.00
   5  -3 -17   -1.80    6.30
   5   3  17    4.70    5.60
   7  -3  17   -1.00    3.90
   7  -3 -17   -8.00    5.70
   7   3  17   -9.90    4.70
   7   3  17    1.10    4.20
   9  -3  17    4.90    4.20
   9   3  17   -1.90    4.30
   9  -3 -17    1.00    5.30
   9   3  17    0.70    5.40
 -11  -3 -17   -0.20    4.70
  11   3 -17   -0.30    9.00
  11  -3  17    6.80    4.70
  11  -3 -17    6.00    4.80
  11   3  17    0.60    5.80
   1  -5  17    1.10    4.30
   1   5  17   -3.10    5.30
  -1  -5  17   -6.20    4.20
   1  -5 -17    4.90    5.90
  -3  -5 -17    4.10    6.80
   3  -5  17   -0.30    3.70
   3   5  17   -5.40    4.50
   3  -5 -17    3.70    5.80
  -3  -5  17   -1.50    5.50
  -5  -5 -17    8.30    6.20
   5  -5  17   -0.10    3.80
  -5  -5  17   -4.90    5.70
   5   5  17    5.40    4.80
   5  -5 -17    2.50    5.80
   7  -5  17    0.60    3.60
  -7  -5 -17    6.90    6.00
   7   5  17    7.50    4.80
   7  -5 -17   -4.60    6.00
  -9  -5 -17   -3.50    4.70
   9  -5  17   -3.10    3.90
   9   5  17   -0.20    4.80
   9  -5 -17    0.70    5.00
  11  -5  17    2.10    4.00
 -11  -5 -17   -8.40    4.60
  11  -5 -17    0.80    4.70
  11   5  17    5.20    5.40
   1  -7  17    0.30    4.40
  -1  -7  17   -1.50    4.50
   1  -7 -17   -4.40    4.40
   1   7  17   -2.70    4.30
   3  -7  17    0.00    4.30
  -3  -7 -17    8.80    7.70
   3   7  17   -2.10    4.50
   3  -7 -17    5.70    5.80
  -3  -7  17   -2.00    4.90
   5  -7  17    1.10    3.80
  -5  -7 -17    4.90    6.30
   5  -7 -17    4.60    5.00
   5   7  17    1.80    4.60
  -5  -7  17    2.60    5.60
   7  -7  17   -0.90    3.50
  -7  -7 -17   -6.50    5.60
  -7  -7  17    4.00    6.80
   7  -7 -17   -1.60    5.90
   7   7  17   -5.40    3.80
  -9  -7 -17    6.20    5.80
   9  -7  17    0.70    3.50
   9   7  17    1.40    4.60
   9  -7 -17   -3.50    4.70
   1  -9  17   -3.20    4.20
  -1  -9  17   -0.10    4.40
   1  -9 -17    3.90    5.00
   1   9  17    1.10    3.90
   3  -9  17   -4.00    3.80
   3   9  17   -5.20    4.20
  -3  -9  17    3.10    5.10
   3  -9 -17    1.20    5.10
  -5  -9 -17    4.10    7.60
   5  -9  17    3.40    3.90
   5  -9 -17   -4.20    5.30
   5   9  17   -6.40    3.90
  -5  -9  17   -4.90    5.30
   7  -9  17    0.90    3.60
  -7  -9 -17    2.90    6.50
  -7  -9  17   -3.10    6.20
   7   9  17   -1.50    3.80
   1 -11  17    3.40    4.50
  -1 -11  17    0.60    4.30
   1  11  17   -2.00    4.40
   1 -11 -17    0.10    4.40
   3 -11  17    3.00    4.00
  -3 -11  17   -3.70    4.20
   3 -11 -17   -5.00    4.70
   3  11  17    0.30    3.90
   5 -11  17    0.00    3.60
   5 -11 -17   -6.30    6.00
   5  11  17    1.00    3.90
  -5 -11  17    5.20    5.70
   0   0 -18   16.00    9.70
   2   0  18    9.10    5.30
   2   0 -18   -0.70    8.60
  -2   0 -18   15.70   10.90
   4   0 -18   15.00    8.00
   4   0  18    7.90    5.30
   6   0  18    5.80    4.80
   6   0 -18    9.50    7.50
   8   0  18   -0.30    4.60
   8   0 -18    8.10    6.50
  10   0  18    3.90    4.80
  10   0 -18    4.00    5.90
   0  -2 -18   -8.80    7.40
   0  -2  18    7.50    5.20
   2  -2  18    4.90    4.70
   2   2  18   -4.00    5.40
   2  -2 -18    4.90    7.90
  -2  -2  18    5.80    5.50
   4  -2  18    8.50    4.60
   4  -2 -18    9.30    7.90
   4   2  18    7.10    7.80
   4   2  18    5.50    5.60
   6  -2  18    8.20    5.00
   6   2  18   14.40    5.50
   6  -2 -18   -9.30    6.50
   6   2  18    7.10    7.70
   8  -2  18   11.80    5.00
   8  -2 -18    2.60    6.10
   8   2  18   12.50    4.90
   8   2  18    5.50    7.50
  10  -2  18    1.40    4.70
  10  -2 -18   21.70    6.40
  10   2  18   -0.20    8.40
  10   2  18    8.90    5.00
   0  -4 -18   -2.50    6.90
   0  -4  18    7.30    4.80
   2  -4  18   10.60    4.80
  -2  -4  18   12.80    5.70
   2   4  18    5.30    6.90
   2  -4 -18    5.50    7.40
   4  -4  18    3.30    4.40
   4   4  18    5.30    6.70
   4   4  18    8.30    6.10
   4  -4 -18    2.80    6.60
  -4  -4  18    8.40    6.50
   6  -4  18   -0.30    3.80
   6   4  18    5.80    6.10
   6  -4 -18   11.50    7.30
  -8  -4 -18    3.30    6.00
   8  -4  18    4.60    4.40
   8  -4 -18    1.90    5.60
   8   4  18    0.20    6.10
   0  -6 -18    6.60    6.40
   0  -6  18    8.20    5.10
   2  -6  18   -0.20    4.30
   2   6  18   12.40    6.20
  -2  -6  18   -5.30    5.00
   2  -6 -18    4.50    6.20
  -4  -6 -18   -2.10    7.10
   4  -6  18    7.00    4.30
  -4  -6  18    2.10    6.10
   4  -6 -18    3.10    6.20
   4   6  18    8.80    6.00
   6  -6  18    6.00    4.50
  -6  -6 -18    4.60    6.90
   6   6  18   17.80    6.00
   6  -6 -18   -1.30    5.90
  -6  -6  18   14.30    7.50
   8  -6  18    5.60    3.90
  -8  -6 -18    3.70    6.20
   8  -6 -18    4.40    5.80
   8   6  18    1.90    5.20
   0  -8 -18   10.30    6.50
   0  -8  18    7.20    4.90
   2  -8  18    7.40    4.90
  -2  -8  18    6.50    6.10
   2  -8 -18    4.80    5.70
   2   8  18   11.40    5.30
   4  -8  18    0.70    4.10
   4   8  18   11.70    5.80
  -4  -8  18   11.00    6.20
   4  -8 -18   -5.80    5.80
  -6  -8 -18    5.40    7.70
   6  -8  18    1.70    3.80
   6  -8 -18   13.90    7.30
  -6  -8  18    6.50    6.80
   6   8  18    4.40    5.10
   0 -10 -18    9.50    5.80
   0 -10  18    8.30    4.90
   2 -10  18    6.20    4.50
   2  10  18   11.00    5.10
   2 -10 -18   13.70    6.50
  -2 -10  18   11.40    6.10
   1  -1  19   -0.40    5.50
  -1  -1 -19   -0.50   10.30
   1  -1 -19  -12.80    9.10
   3  -1  19    2.00    5.30
   3  -1 -19    4.10    9.40
   3   1  19    8.90    6.30
   5  -1  19   -3.90    4.50
   5  -1 -19    5.30    8.50
   5   1  19    0.90    5.70
   7  -1  19   -1.30    4.90
   7   1  19   -0.70    5.10
   7  -1 -19    3.60    7.40
  -1  -3 -19    5.20    9.00
   1  -3  19    6.40    5.40
   1  -3 -19    0.00    8.50
  -1  -3  19   -9.90    5.10
   3  -3  19    0.30    4.30
   3  -3 -19   -4.90    8.10
   3   3  19    1.90    6.70
   5  -3  19   -1.10    4.70
   5   3  19    3.20    8.10
   5   3  19   -1.50    5.60
   5  -3 -19   -4.10    7.70
   7  -3  19    1.90    4.40
   7  -3 -19    3.40    7.00
   7   3  19   -6.90    5.00
   7   3  19   15.80    9.00
  -1  -5 -19    2.60    7.20
   1  -5  19    3.50    5.10
   1  -5 -19    6.60    7.00
  -1  -5  19  -14.50    5.00
   3  -5  19    0.80    4.60
   3   5  19    1.30    6.80
  -3  -5  19   -1.70    5.70
   3  -5 -19    5.70    7.30
  -5  -5 -19    2.10    8.60
   5  -5  19   -0.80    4.60
  -5  -5  19  -20.40    8.90
   5  -5 -19   12.00    8.30
   5   5  19    9.80    6.50
   7  -5  19   -2.50    4.40
  -7  -5 -19    8.90    7.30
   7   5  19  -14.40    6.50
   7  -5 -19  -11.80    6.10
  -1  -7 -19    5.20    6.80
   1  -7  19    1.40    4.80
  -1  -7  19    2.50    6.10
   1  -7 -19    2.70    6.90
   3  -7  19   -1.00    4.60
   3  -7 -19    4.50    7.40
   3   7  19    4.20    6.20
  -3  -7  19    8.70    6.20
   5  -7  19   -2.10    4.30
   5   7  19   -2.30    5.40
  -5  -7  19    3.20    7.20
   5  -7 -19    3.60    6.40
   2   0  20   45.30    8.50
   4   0  20   70.59   10.20
   6   0  20   38.30    7.80
   0  -2  20   68.59   10.00
   0  -2 -20   45.30   12.70
   2  -2  20   82.19   10.50
   2  -2 -20   16.30   11.00
   4  -2  20   52.29    8.50
   4   2  20   67.69   10.50
   4  -2 -20   23.20   10.00
   6  -2  20   56.99    8.50
   6   2  20   45.60    9.20
   0  -4  20   37.00    7.30
   0  -4 -20   23.10   10.00
  -2  -4 -20   24.00    9.70
   2  -4  20   42.00    7.50
  -2  -4  20   53.89    8.70
   2  -4 -20   13.50    9.30
   4  -4  20   33.20    6.40
  -4  -4 -20   68.69   15.50
   4  -4 -20   28.10    9.80
   4   4  20   47.70   11.50
   0  -6 -20    9.80    7.30
   0  -6  20   31.70    7.10
   2  -6  20   23.20    6.60
  -2  -6  20   32.20    7.50

_computing_structure_solution     'SHELXT 2014/4 (Sheldrick, 2014)'
;
_shelx_hkl_checksum              86203
loop_
_space_group_symop_operation_xyz
'x, y, z'
'-x, -y, z'
'-x, y, -z'
'x, -y, -z'
'x, y+1/2, z+1/2'
'-x, -y+1/2, z+1/2'
'-x, y+1/2, -z+1/2'
'x, -y+1/2, -z+1/2'
'x+1/2, y, z+1/2'
'-x+1/2, -y, z+1/2'
'-x+1/2, y, -z+1/2'
'x+1/2, -y, -z+1/2'
'x+1/2, y+1/2, z'
'-x+1/2, -y+1/2, z'
'-x+1/2, y+1/2, -z'
'x+1/2, -y+1/2, -z'
'-x, -y, -z'
'x, y, -z'
'x, -y, z'
'-x, y, z'
'-x, -y+1/2, -z+1/2'
'x, y+1/2, -z+1/2'
'x, -y+1/2, z+1/2'
'-x, y+1/2, z+1/2'
'-x+1/2, -y, -z+1/2'
'x+1/2, y, -z+1/2'
'x+1/2, -y, z+1/2'
'-x+1/2, y, z+1/2'
'-x+1/2, -y+1/2, -z'
'x+1/2, y+1/2, -z'
'x+1/2, -y+1/2, z'
'-x+1/2, y+1/2, z'
loop_
_atom_site_label
_atom_site_type_symbol
_atom_site_fract_x
_atom_site_fract_y
_atom_site_fract_z
_atom_site_U_iso_or_equiv
_atom_site_adp_type
_atom_site_occupancy
_atom_site_site_symmetry_order
_atom_site_calc_flag
_atom_site_refinement_flags_posn
_atom_site_refinement_flags_adp
_atom_site_refinement_flags_occupancy
Pb1 Pb 0.2500 0.2500 0.5000 0.0324(3) Uani 1 4 d S T P
I1 I 0.2241(5) 0.5000 0.5000 0.0860(17) Uani 1 4 d S T P
I2A I 0.5000 0.2981(6) 0.5000 0.0530(10) Uani 0.75 4 d S T P
I2B I 0.5000 0.267(2) 0.462(2) 0.0530(10) Uani 0.125 2 d S T P
I3A I 0.2500 0.2500 0.2500 0.0672(19) Uani 0.75 4 d S T P
I3B I 0.294(3) 0.2500 0.2500 0.0672(19) Uani 0.125 2 d S T P
C1 C 0.5000 0.44269(8) 0.216(5) 0.15(3) Uiso 0.5 2 d S . P
N1 N 0.5000 0.44269(8) 0.216(5) 0.15(3) Uiso 0.5 2 d DS . P
loop_
_atom_site_aniso_label
_atom_site_aniso_U_11
_atom_site_aniso_U_22
_atom_site_aniso_U_33
_atom_site_aniso_U_23
_atom_site_aniso_U_13
_atom_site_aniso_U_12
Pb1 0.0278(8) 0.0358(12) 0.0336(4) 0.000 0.000 0.0001(6)
I1 0.120(4) 0.0274(19) 0.110(4) 0.000 0.000 0.000
I2A 0.0227(12) 0.067(4) 0.070(4) 0.000 0.000 0.000
I2B 0.0227(12) 0.067(4) 0.070(4) 0.000 0.000 0.000
I3A 0.097(9) 0.080(5) 0.0249(9) 0.000 0.000 0.000
I3B 0.097(9) 0.080(5) 0.0249(9) 0.000 0.000 0.000
loop_
_atom_type_symbol
_atom_type_description
_atom_type_scat_dispersion_real
_atom_type_scat_dispersion_imag
_atom_type_scat_source
C C 0.0034 0.0017
'ShelXle using methods of  L.Kissel & R.H.Pratt Acta Cryst A46 170 1990'
H H 0.0000 0.0000
'ShelXle using methods of  L.Kissel & R.H.Pratt Acta Cryst A46 170 1990'
N N 0.0066 0.0034
'ShelXle using methods of  L.Kissel & R.H.Pratt Acta Cryst A46 170 1990'
I I -0.4371 1.8409
'ShelXle using methods of  L.Kissel & R.H.Pratt Acta Cryst A46 170 1990'
Pb Pb -3.4194 10.2008
'ShelXle using methods of  L.Kissel & R.H.Pratt Acta Cryst A46 170 1990'
loop_
_geom_angle_atom_site_label_1
_geom_angle_atom_site_label_2
_geom_angle_atom_site_label_3
_geom_angle
_geom_angle_site_symmetry_1
_geom_angle_site_symmetry_3
I1 Pb1 I1 180.0 29_556 .
I1 Pb1 I3A 90.0 29_556 29_556
I1 Pb1 I3A 90.0 . 29_556
I1 Pb1 I3A 90.0 29_556 .
I1 Pb1 I3A 90.0 . .
I3A Pb1 I3A 180.0 29_556 .
I1 Pb1 I2B 88.1(5) 29_556 18_556
I1 Pb1 I2B 91.9(5) . 18_556
I3A Pb1 I2B 81.3(5) 29_556 18_556
I3A Pb1 I2B 98.7(5) . 18_556
I1 Pb1 I2B 91.9(5) 29_556 14
I1 Pb1 I2B 88.1(5) . 14
I3A Pb1 I2B 98.7(5) 29_556 14
I3A Pb1 I2B 81.3(5) . 14
I2B Pb1 I2B 180.0 18_556 14
I1 Pb1 I2B 91.9(5) 29_556 29_556
I1 Pb1 I2B 88.1(5) . 29_556
I3A Pb1 I2B 81.3(5) 29_556 29_556
I3A Pb1 I2B 98.7(5) . 29_556
I2B Pb1 I2B 162.6(9) 18_556 29_556
I2B Pb1 I2B 17.4(9) 14 29_556
I1 Pb1 I2B 88.1(5) 29_556 .
I1 Pb1 I2B 91.9(5) . .
I3A Pb1 I2B 98.7(5) 29_556 .
I3A Pb1 I2B 81.3(5) . .
I2B Pb1 I2B 17.4(9) 18_556 .
I2B Pb1 I2B 162.6(9) 14 .
I2B Pb1 I2B 180.0(9) 29_556 .
I1 Pb1 I2A 85.0(2) 29_556 29_556
I1 Pb1 I2A 95.0(2) . 29_556
I3A Pb1 I2A 90.0 29_556 29_556
I3A Pb1 I2A 90.0 . 29_556
I2B Pb1 I2A 168.9(4) 18_556 29_556
I2B Pb1 I2A 11.1(4) 14 29_556
I2B Pb1 I2A 11.1(4) 29_556 29_556
I2B Pb1 I2A 168.9(4) . 29_556
I1 Pb1 I2A 95.0(2) 29_556 .
I1 Pb1 I2A 85.0(2) . .
I3A Pb1 I2A 90.0 29_556 .
I3A Pb1 I2A 90.0 . .
I2B Pb1 I2A 11.1(4) 18_556 .
I2B Pb1 I2A 168.9(4) 14 .
I2B Pb1 I2A 168.9(4) 29_556 .
I2B Pb1 I2A 11.1(4) . .
I2A Pb1 I2A 180.0 29_556 .
I1 Pb1 I3B 88.98(7) 29_556 .
I1 Pb1 I3B 91.02(7) . .
I3A Pb1 I3B 170.0(6) 29_556 .
I3A Pb1 I3B 10.0(6) . .
I2B Pb1 I3B 88.8(8) 18_556 .
I2B Pb1 I3B 91.2(8) 14 .
I2B Pb1 I3B 108.7(8) 29_556 .
I2B Pb1 I3B 71.3(8) . .
I2A Pb1 I3B 99.8(6) 29_556 .
I2A Pb1 I3B 80.2(6) . .
I1 Pb1 I3B 88.98(7) 29_556 18_556
I1 Pb1 I3B 91.02(7) . 18_556
I3A Pb1 I3B 10.0(6) 29_556 18_556
I3A Pb1 I3B 170.0(6) . 18_556
I2B Pb1 I3B 71.3(8) 18_556 18_556
I2B Pb1 I3B 108.7(8) 14 18_556
I2B Pb1 I3B 91.2(8) 29_556 18_556
I2B Pb1 I3B 88.8(8) . 18_556
I2A Pb1 I3B 99.8(6) 29_556 18_556
I2A Pb1 I3B 80.2(6) . 18_556
I3B Pb1 I3B 160.0(12) . 18_556
Pb1 I1 Pb1 168.2(2) 15_556 .
I2B I2A I2B 103(6) 18_556 .
I2B I2A Pb1 83.2(5) 18_556 .
I2B I2A Pb1 83.2(5) . .
I2B I2A Pb1 83.2(5) 18_556 3_656
I2B I2A Pb1 83.2(5) . 3_656
Pb1 I2A Pb1 158.2(2) . 3_656
I2A I2B I2B 39(3) . 18_556
I2A I2B Pb1 85.7(6) . 3_656
I2B I2B Pb1 81.3(5) 18_556 3_656
I2A I2B Pb1 85.7(6) . .
I2B I2B Pb1 81.3(5) 18_556 .
Pb1 I2B Pb1 160.8(10) 3_656 .
I3B I3A I3B 180.0 . 14
I3B I3A Pb1 90.000(1) . .
I3B I3A Pb1 90.000(1) 14 .
I3B I3A Pb1 90.0 . 11
I3B I3A Pb1 90.000(1) 14 11
Pb1 I3A Pb1 180.0 . 11
I3A I3B I3B 0.000(1) . 14
I3A I3B Pb1 80.0(6) . 11
I3B I3B Pb1 80.0(6) 14 11
I3A I3B Pb1 80.0(6) . .
I3B I3B Pb1 80.0(6) 14 .
Pb1 I3B Pb1 160.0(12) 11 .
N1 C1 C1 0.0 2_665 19_565
loop_
_geom_bond_atom_site_label_1
_geom_bond_atom_site_label_2
_geom_bond_distance
_geom_bond_site_symmetry_2
Pb1 I1 3.1462(7) 29_556
Pb1 I1 3.1462(7) .
Pb1 I3A 3.1503(2) 29_556
Pb1 I3A 3.1503(2) .
Pb1 I2B 3.169(5) 18_556
Pb1 I2B 3.169(5) 14
Pb1 I2B 3.169(5) 29_556
Pb1 I2B 3.169(5) .
Pb1 I2A 3.1820(14) 29_556
Pb1 I2A 3.1820(14) .
Pb1 I3B 3.199(6) .
Pb1 I3B 3.199(6) 18_556
I1 Pb1 3.1462(7) 15_556
I2A I2B 0.61(2) 18_556
I2A I2B 0.61(2) .
I2A Pb1 3.1820(13) 3_656
I2B I2B 0.96(5) 18_556
I2B Pb1 3.169(5) 3_656
I3A I3B 0.55(3) .
I3A I3B 0.55(3) 14
I3A Pb1 3.1503(2) 11
I3B I3B 1.11(7) 14
I3B Pb1 3.199(6) 11
C1 N1 1.435(2) 2_665
C1 C1 1.435(2) 19_565
