#------------------------------------------------------------------------------
#$Date: 2019-11-10 21:05:11 +0200 (Sun, 10 Nov 2019) $
#$Revision: 226183 $
#$URL: file:///home/coder/svn-repositories/cod/cif/4/51/61/4516197.cif $
#------------------------------------------------------------------------------
#
# This file is available in the Crystallography Open Database (COD),
# http://www.crystallography.net/
#
# All data on this site have been placed in the public domain by the
# contributors.
#
data_4516197
loop_
_publ_author_name
'Tsai, Cheng-Min'
'Lin, Yu-Pei'
'Pola, Murali Krishna'
'Narra, Sudhakar'
'Jokar, Efat'
'Yang, Yaw-Wen'
'Diau, Eric Wei-Guang'
_publ_section_title
;
 Control of Crystal Structures and Optical Properties with Hybrid
 Formamidinium and 2-Hydroxyethylammonium Cations for Mesoscopic
 Carbon-Electrode Tin-Based Perovskite Solar Cells
;
_journal_issue                   9
_journal_name_full               'ACS Energy Letters'
_journal_page_first              2077
_journal_paper_doi               10.1021/acsenergylett.8b01046
_journal_volume                  3
_journal_year                    2018
_chemical_formula_sum            'C5.4 H22.2 I7 N3.6 O2.4 Sn2'
_chemical_formula_weight         1301.75
_space_group_crystal_system      tetragonal
_space_group_IT_number           83
_space_group_name_Hall           '-P 4'
_space_group_name_H-M_alt        'P 4/m'
_atom_sites_solution_primary     direct
_atom_sites_solution_secondary   difmap
_cell_angle_alpha                90
_cell_angle_beta                 90
_cell_angle_gamma                90
_cell_formula_units_Z            2
_cell_length_a                   14.620(9)
_cell_length_b                   14.620(9)
_cell_length_c                   6.392(4)
_cell_measurement_reflns_used    114
_cell_measurement_temperature    296.(2)
_cell_measurement_theta_max      19.2293
_cell_measurement_theta_min      1.9408
_cell_volume                     1366.3(15)
_computing_cell_refinement       'SAINT V8.27B (Bruker AXS Inc., 2012)'
_computing_data_reduction        'SAINT V8.27B (Bruker AXS Inc., 2012)'
_computing_structure_refinement  'SHELXL-97 (Sheldrick, 2008)'
_computing_structure_solution    'SHELXS-97 (Sheldrick, 2008)'
_diffrn_ambient_temperature      296.(2)
_diffrn_detector_area_resol_mean 8.3333
_diffrn_measured_fraction_theta_full 0.992
_diffrn_measured_fraction_theta_max 0.992
_diffrn_measurement_device_type  'APEX II CCD'
_diffrn_measurement_method       '\w scans'
_diffrn_radiation_monochromator  'Highly-Ordered Pyrolytic Graphite'
_diffrn_radiation_type           'Mo K\a'
_diffrn_radiation_wavelength     0.71073
_diffrn_reflns_av_R_equivalents  0.0906
_diffrn_reflns_av_sigmaI/netI    0.0985
_diffrn_reflns_limit_h_max       16
_diffrn_reflns_limit_h_min       -17
_diffrn_reflns_limit_k_max       17
_diffrn_reflns_limit_k_min       -9
_diffrn_reflns_limit_l_max       7
_diffrn_reflns_limit_l_min       -6
_diffrn_reflns_number            5104
_diffrn_reflns_theta_full        24.98
_diffrn_reflns_theta_max         24.98
_diffrn_reflns_theta_min         1.97
_diffrn_source                   'fine-focus sealed tube'
_diffrn_source_type              'Mo K\a'
_exptl_absorpt_coefficient_mu    9.742
_exptl_absorpt_correction_T_max  0.7452
_exptl_absorpt_correction_T_min  0.4618
_exptl_absorpt_correction_type   multi-scan
_exptl_absorpt_process_details   'SADABS V2012/1 (Bruker AXS Inc.)'
_exptl_crystal_colour            brown
_exptl_crystal_density_diffrn    3.164
_exptl_crystal_density_method    'not measured'
_exptl_crystal_description       needle
_exptl_crystal_F_000             1140
_exptl_crystal_size_max          0.21
_exptl_crystal_size_mid          0.04
_exptl_crystal_size_min          0.03
_platon_squeeze_details
;

TITL a.ins in P4/m                                                             
CELL   14.6200   14.6200    6.3920     90.00     90.00     90.00
SPGR P4/m        
# Note: Atoms in Void as Cxxx and Qxxx all others
C101 0.999 0.996 0.595 !       6.69 eA-3
C102 1.006 0.048-0.022 !       4.58 eA-3
C103 0.999 0.995 0.909 !       3.80 eA-3
C104 0.504 0.484 0.466 !       3.25 eA-3
Q105 0.915 0.172 0.018 !       3.16 eA-3
C106 0.295 0.844 0.514 !       2.96 eA-3
C107 0.107 0.363 0.495 !       2.85 eA-3
C108 0.370 0.954 0.477 !       2.73 eA-3
C109 0.450 0.536 0.213 !       2.57 eA-3
Q110 0.846 0.437-0.002 !       2.50 eA-3
Q111 0.657 0.673-0.006 !       2.45 eA-3
C112 0.051 0.188 0.501 !       2.42 eA-3
C113 0.114 0.326 0.377 !       2.42 eA-3
C114 0.745 0.128 0.316 !       2.35 eA-3
Q115 0.648 0.798 0.492 !       2.32 eA-3
C116 0.406 0.828 0.491 !       2.31 eA-3
C117 0.894 0.767 0.507 !       2.30 eA-3
C118 0.059 0.996 0.662 !       2.30 eA-3
C119 0.925 0.954 0.631 !       2.24 eA-3
C120 0.325 0.798 0.470 !       2.21 eA-3
C121 0.033 0.260 0.492 !       2.21 eA-3
Q122 0.779 0.456 0.073 !       2.19 eA-3
Q123 0.459 0.235 0.001 !       2.18 eA-3
C124 0.498 0.477 0.317 !       2.16 eA-3
Q125 0.542 0.784 0.060 !       2.11 eA-3
C126 0.406 0.888 0.453 !       2.11 eA-3
C127 0.014 0.046 0.734 !       2.10 eA-3
Q128 0.747 0.653 0.338 !       2.09 eA-3
C129 0.446 0.439 0.544 !       2.09 eA-3
C130 0.067 0.951 0.838 !       2.09 eA-3
Q131 0.859 0.376 0.512 !       2.06 eA-3
C132 0.154 0.249 0.398 !       2.01 eA-3
C133 0.208 0.094 0.494 !       1.99 eA-3
C134 0.259 0.045 0.502 !       1.95 eA-3
C135 0.825 0.107 0.576 !       1.93 eA-3
C136 0.410 0.500 0.510 !       1.93 eA-3
C137 0.375 0.452 0.489 !       1.90 eA-3
Q138 0.737 0.392 0.508 !       1.90 eA-3
C139 0.643 0.092 0.661 !       1.89 eA-3
C140 0.280 0.920 0.502 !       1.88 eA-3
C141 0.090 0.375 0.253 !       1.86 eA-3
C142 0.040 0.747 0.489 !       1.84 eA-3
Q143 0.714 0.575 0.936 !       1.78 eA-3
Q144 0.994 0.799 0.697 !       1.78 eA-3
C145 0.899 0.062 0.457 !       1.78 eA-3
Q146 0.423 0.716 0.929 !       1.77 eA-3
C147 0.270 0.907 0.101 !       1.77 eA-3
Q148 0.940 0.096-0.017 !       1.76 eA-3
C149 0.998 0.505 0.407 !       1.75 eA-3
C150 0.238 0.375 0.497 !       1.75 eA-3
C151 0.917 0.706 0.606 !       1.74 eA-3
C152 0.311 0.983 0.602 !       1.74 eA-3
Q153 0.185 0.253 0.188 !       1.73 eA-3
C154 0.503 0.624 0.313 !       1.69 eA-3
Q155 0.391 0.325 0.391 !       1.67 eA-3
C156 0.264 0.935 0.311 !       1.66 eA-3
Q157 0.479 0.939 0.008 !       1.65 eA-3
Q158 0.221 0.582 0.588 !       1.64 eA-3
C159 0.011 0.796 0.501 !       1.63 eA-3
C160 0.163 0.361 0.556 !       1.63 eA-3
C161 0.586 0.471 0.435 !       1.63 eA-3
Q162 0.312 0.454-0.002 !       1.63 eA-3
Q163 0.673 0.795 0.090 !       1.59 eA-3
Q164 0.275 0.108 0.359 !       1.55 eA-3
Q165 0.445 0.935 0.687 !       1.55 eA-3
Q166 0.261 0.407 0.987 !       1.54 eA-3
C167 0.940 0.113 0.400 !       1.54 eA-3
C168 0.455 0.582 0.375 !       1.54 eA-3
Q169 0.618 0.611 0.369 !       1.54 eA-3
Q170 0.555 0.528 0.149 !       1.53 eA-3
C171 0.626 0.296 0.589 !       1.53 eA-3
Q172 0.837 0.982 0.118 !       1.51 eA-3
Q173 0.768 0.533-0.016 !       1.50 eA-3
C174 0.848 0.708 0.119 !       1.50 eA-3
Q175 0.395 0.033-0.003 !       1.48 eA-3
Q176 0.519 0.301 0.409 !       1.48 eA-3
C177 0.109 0.318 0.207 !       1.47 eA-3
C178 0.091 0.879 0.508 !       1.46 eA-3
C179 0.821 0.812 0.503 !       1.46 eA-3
C180 0.190 0.294 0.359 !       1.44 eA-3
C181 0.815 0.782 0.558 !       1.44 eA-3
Q182 0.404 0.626 0.969 !       1.42 eA-3
Q183 0.270 0.077 0.098 !       1.41 eA-3
Q184 0.280 1.001 0.179 !       1.41 eA-3
C185 0.238 1.001 0.594 !       1.41 eA-3
Q186 0.632 0.140-0.008 !       1.40 eA-3
Q187 0.767 0.376 0.017 !       1.39 eA-3
C188 0.622 0.468 0.376 !       1.38 eA-3
C189 0.167 0.357 0.244 !       1.38 eA-3
Q190 0.269 0.687 0.496 !       1.37 eA-3
C191 0.951 0.769 0.616 !       1.37 eA-3
Q192 0.766 0.893 0.834 !       1.37 eA-3
Q193 0.336 0.532 0.516 !       1.35 eA-3
Q194 0.501 1.004 0.096 !       1.35 eA-3
Q195 0.818 0.253 0.365 !       1.29 eA-3
Q196 0.874 0.859 0.012 !       1.29 eA-3
Q197 0.345 0.670 0.495 !       1.28 eA-3
C198 0.397 0.582 0.497 !       1.27 eA-3
Q199 0.270 0.036 0.280 !       1.26 eA-3
C200 0.036 0.392 0.658 !       1.26 eA-3
C201 0.406 0.639 0.520 !       1.25 eA-3
C202 0.513 0.574 0.829 !       1.22 eA-3
Q203 0.565 0.829 0.497 !       1.21 eA-3
Q204 0.167 0.185 0.316 !       1.19 eA-3
Q205 0.218 0.748 0.052 !       1.19 eA-3
C206 0.257 0.762 0.500 !       1.18 eA-3
C207 0.907 0.565 0.559 !       1.18 eA-3
Q208 0.237 0.435 0.415 !       1.18 eA-3
Q209 0.830 0.920 0.688 !       1.18 eA-3
C210 0.015 0.609 0.489 !       1.18 eA-3
Q211 0.650 0.266 0.962 !       1.17 eA-3
Q212 0.651 0.548 0.343 !       1.16 eA-3
Q213 0.049 0.878 0.250 !       1.16 eA-3
Q214 0.407 0.767 0.640 !       1.15 eA-3
Q215 0.597 0.450 0.088 !       1.14 eA-3
Q216 0.795 0.975 0.821 !       1.13 eA-3
Q217 0.765 0.943 0.653 !       1.13 eA-3
C218 0.024 0.329 0.244 !       1.13 eA-3
Q219 0.850 0.310 0.440 !       1.13 eA-3
C220 0.923 0.973 0.157 !       1.13 eA-3
C221 0.865 0.683 0.686 !       1.13 eA-3
C222 0.693 0.047 0.699 !       1.12 eA-3
Q223 0.092 0.872 0.870 !       1.12 eA-3
Q224 0.942 0.654 0.101 !       1.11 eA-3
Q225 0.055 0.544 0.840 !       1.11 eA-3
C226 0.470 0.484 0.055 !       1.11 eA-3
Q227 0.200 0.064 0.344 !       1.11 eA-3
C228 0.995 0.153 0.639 !       1.10 eA-3
Q229 0.388 0.485 0.007 !       1.09 eA-3
Q230 0.396 0.095 0.094 !       1.09 eA-3
Q231 0.982 0.113-0.004 !       1.08 eA-3
Q232 0.784 0.043 0.867 !       1.08 eA-3
C233 0.118 0.969 0.752 !       1.07 eA-3
Q234 0.314 0.267-0.001 !       1.04 eA-3
Q235 0.065 0.668 0.578 !       1.04 eA-3
Q236 0.967 0.751 0.034 !       1.04 eA-3
Q237 0.878 0.110 0.153 !       1.01 eA-3
Q238 0.869 0.486 0.494 !       1.01 eA-3
Q239 0.309 0.181 0.251 !       1.00 eA-3
Q240 0.146 0.780 0.650 !       0.99 eA-3
Q241 0.748 0.432 0.749 !       0.99 eA-3
Q242 0.551 0.395 0.223 !       0.97 eA-3
Q243 0.769 0.175-0.001 !       0.97 eA-3
Q244 0.473 0.921 0.413 !       0.97 eA-3
Q245 0.658 0.546 0.664 !       0.97 eA-3
Q246 0.702 0.314 0.381 !       0.97 eA-3
Q247 0.356 0.357 0.679 !       0.97 eA-3
Q248 0.876 0.253 0.623 !       0.97 eA-3
Q249 0.170 0.482 0.898 !       0.97 eA-3
Q250 0.578 0.272 0.321 !       0.95 eA-3
Q251 0.501 1.004 0.780 !       0.94 eA-3
Q252 0.699 0.893 0.530 !       0.94 eA-3
C253 0.972 0.408 0.594 !       0.93 eA-3
Q254 0.448 0.345 0.008 !       0.92 eA-3
C255 0.309 0.424 0.478 !       0.92 eA-3
Q256 0.201 0.584 0.721 !       0.91 eA-3
Q257 0.683 0.032 0.055 !       0.91 eA-3
Q258 0.818 0.490 0.772 !       0.90 eA-3
Q259 0.377 0.511 0.143 !       0.90 eA-3
Q260 0.564 0.330 0.727 !       0.90 eA-3
Q261 0.812 0.198 0.930 !       0.90 eA-3
Q262 0.639 0.859-0.016 !       0.90 eA-3
Q263 0.267 0.219 0.182 !       0.89 eA-3
Q264 0.041 0.534 0.498 !       0.88 eA-3
C265 0.305 0.919 0.750 !       0.87 eA-3
Q266 0.457 0.080 0.009 !       0.87 eA-3
Q267 0.733 0.391 0.307 !       0.87 eA-3
Q268 0.884 0.796 0.002 !       0.85 eA-3
C269 0.996 0.092 0.492 !       0.83 eA-3
Q270 0.749 0.324 0.731 !       0.82 eA-3
Q271 0.393 0.576 0.251 !       0.82 eA-3
Q272 0.265 0.504 0.877 !       0.81 eA-3
Q273 0.533 0.873 0.156 !       0.80 eA-3
Q274 0.642 0.295 0.183 !       0.80 eA-3
Q275 0.499 0.293 0.756 !       0.79 eA-3
Q276 0.735 0.505 0.877 !       0.76 eA-3
Q277 0.708 0.860 0.885 !       0.75 eA-3
Q278 0.334 0.094-0.005 !       0.75 eA-3
Q279 0.879 0.501 0.290 !       0.74 eA-3
Q280 0.935 0.577 0.028 !       0.73 eA-3
Q281 0.581 0.938 0.633 !       0.73 eA-3
Q282 0.675 0.927 0.807 !       0.71 eA-3
Q283 0.134 0.545 0.845 !       0.71 eA-3
Q284 0.629 0.840 0.141 !       0.69 eA-3
Q285 0.863 0.500 0.961 !       0.69 eA-3
Q286 0.230 0.031 0.024 !       0.69 eA-3
Q287 0.589 0.610 0.800 !       0.69 eA-3
Q288 0.968 0.393 0.196 !       0.68 eA-3
Q289 0.671 0.606 0.220 !       0.68 eA-3
Q290 0.902 0.376 0.726 !       0.65 eA-3
Q291 0.434 0.786 0.775 !       0.65 eA-3
Q292 0.297 0.219 0.367 !       0.65 eA-3
Q293 0.232 0.299-0.001 !       0.64 eA-3
Q294 0.699 0.451 0.351 !       0.63 eA-3
Q295 0.855 0.437 0.630 !       0.62 eA-3
Q296 0.530 0.076 0.809 !       0.62 eA-3
C297 0.130 0.420 0.683 !       0.62 eA-3
Q298 0.131 0.435 0.106 !       0.61 eA-3
Q299 0.827 0.893 0.249 !       0.60 eA-3
Q300 0.698 0.169-0.003 !       0.60 eA-3
Q301 0.500 0.817 0.312 !       0.59 eA-3
Q302 0.824 0.315 0.013 !       0.58 eA-3
Q303 0.445 1.002 0.017 !       0.57 eA-3
Q304 0.498 0.796 0.499 !       0.56 eA-3
C305 0.104 0.190 0.292 !       0.56 eA-3
C306 0.148 0.847 0.406 !       0.55 eA-3
Q307 0.699 0.454 0.662 !       0.54 eA-3
C308 0.896 0.034 0.104 !       0.54 eA-3
Q309 0.566 0.658 0.248 !       0.53 eA-3
C310 0.973 0.345 0.693 !       0.53 eA-3
Q311 0.253 0.496 0.274 !       0.52 eA-3
Q312 0.595 0.064 0.901 !       0.50 eA-3
Q313 0.994 0.799 0.697 !       0.00 eA-3
)
;
_refine_diff_density_max         0.985
_refine_diff_density_min         -0.692
_refine_ls_extinction_method     none
_refine_ls_goodness_of_fit_ref   0.802
_refine_ls_hydrogen_treatment    undef
_refine_ls_matrix_type           full
_refine_ls_number_parameters     29
_refine_ls_number_reflns         1318
_refine_ls_number_restraints     0
_refine_ls_restrained_S_all      0.802
_refine_ls_R_factor_all          0.1847
_refine_ls_R_factor_gt           0.0588
_refine_ls_shift/su_max          0.000
_refine_ls_shift/su_mean         0.000
_refine_ls_structure_factor_coef Fsqd
_refine_ls_weighting_details
'calc w=1/[\s^2^(Fo^2^)+(0.1000P)^2^+0.0000P] where P=(Fo^2^+2Fc^2^)/3'
_refine_ls_weighting_scheme      calc
_refine_ls_wR_factor_gt          0.1588
_refine_ls_wR_factor_ref         0.2114
_reflns_number_gt                436
_reflns_number_total             1318
_reflns_threshold_expression     >2sigma(I)
_cod_data_source_file            HEAxFA1-xSn0.67I2.33.cif
_cod_data_source_block           I
_cod_original_cell_volume        1366.3(14)
_cod_original_formula_sum        'C5.40 H22.20 I7 N3.60 O2.40 Sn2'
_cod_database_code               4516197
_shelx_res_file
;
TITL a.ins in P4/m
CELL 0.71073  14.6204  14.6204   6.3918  90.000  90.000  90.000
ZERR   2.00   0.0089   0.0089   0.0037   0.000   0.000   0.000
LATT  1
SYMM -X, -Y, Z
SYMM -Y, X, Z
SYMM Y, -X, Z
SFAC C H N O SN I
UNIT 10.8 44.4 7.2 4.8 4 14
TEMP 23.000
ACTA
L.S. 4
BOND
FMAP 2
PLAN 20
WGHT    0.075200
FVAR       0.43916
MOLE   1
SN1   5    0.799055    0.400578    0.000000    10.50000    0.06527    0.08059 =
         0.05703    0.00000    0.00000   -0.00108
I1    6    0.000000    0.500000    0.000000    10.25000    0.08895    0.12777 =
         0.10228    0.00000    0.00000   -0.02180
I2    6    0.798944    0.407174    0.500000    10.50000    0.13585    0.15455 =
         0.07296    0.00000    0.00000   -0.02265
I3    6    0.607840    0.308076    0.000000    10.50000    0.09234    0.12517 =
         0.12040    0.00000    0.00000   -0.02429
I4    6    0.889964    0.217828    0.000000    10.50000    0.16933    0.10307 =
         0.21759    0.00000    0.00000    0.02867
 
HKLF 4
 
REM  a.ins in P4/m
REM R1 =  0.0585 for    436 Fo > 4sig(Fo)  and  0.1852 for all   1318 data
REM     29 parameters refined using      0 restraints
 
END  
     
WGHT      0.0733      0.0000 
REM Highest difference peak  0.932,  deepest hole -0.699,  1-sigma level  0.177
Q1    1   0.8988  0.1681  0.0000  10.50000  0.05    0.93
Q2    1   0.7296  0.4027  0.5000  10.50000  0.05    0.84
Q3    1   0.8760  0.2416  0.1362  11.00000  0.05    0.81
Q4    1   0.8462  0.3620  0.5000  10.50000  0.05    0.78
Q5    1   0.6591  0.2621  0.0000  10.50000  0.05    0.70
Q6    1   0.9424  0.0243 -0.5000  10.50000  0.05    0.70
Q7    1   0.7922  0.4454  0.5000  10.50000  0.05    0.66
Q8    1   1.0000  0.0000  0.3048  10.25000  0.05    0.62
Q9    1  -0.0812  0.5236  0.0000  10.50000  0.05    0.62
Q10   1   0.7614  0.3396  0.5000  10.50000  0.05    0.60
Q11   1   0.5229  0.3224  0.0000  10.50000  0.05    0.60
Q12   1   0.7959  0.4160  0.3585  11.00000  0.05    0.58
Q13   1   0.0000  0.5000  0.1941  10.50000  0.05    0.55
Q14   1   0.5968  0.3523  0.0000  10.50000  0.05    0.53
Q15   1   0.6778  0.3508  0.0000  10.50000  0.05    0.52
Q16   1   0.8542  0.4624  0.5000  10.50000  0.05    0.52
Q17   1   0.7007  0.1910  0.5000  10.50000  0.05    0.51
Q18   1   0.8543  0.4745  0.0000  10.50000  0.05    0.47
Q19   1   0.9293  0.2703  0.0000  10.50000  0.05    0.46
Q20   1  -0.0608  0.4101  0.0000  10.50000  0.05    0.45
;
_shelx_hkl_file
;
  -1   1   0    2251      33                                                         779   46.27    1.35  1.0000
   1   1   0    2701      33                                                        1054   46.24    0.77  1.0000
   2   1   0   28884     623                                                       19386  -72.83   -0.58  1.0000
  -1   2   0   27659     624                                                       18390  -72.74   -1.93  1.0000
   0   2   0    2916      56                                                        1525   35.44    0.39  1.0000
   2   2   0    1066      37                                                         443   27.54   -0.30  1.0000
  -2   2   0    1145      36                                                         496   27.45    0.03  1.0000
  -2   3   0     516      53                                                         366    8.50   -0.06  1.0000
   3   2   0     537      46                                                         385    8.43   -0.10  1.0000
  -1   3   0    1404      51                                                         709   25.66    1.01  1.0000
   3   1   0    1305      47                                                         639   25.72   -0.18  1.0000
   0   3   0     817      49                                                         493   15.13    0.43  1.0000
   3  -1   0    1129      27                                                          37   65.35   -1.12  1.0000
  -3   1   0    1118      25                                                          35   65.35    1.12  1.0000
   1   3   0    1306      31                                                          74   65.27    2.06  1.0000
   3   3   0     244      31                                                         144    8.56    0.43  1.0000
   4   2   0   82947    3020                                                       92685   38.95    0.85  1.0000
  -2   4   0   83778    3032                                                       93566   38.89    2.78  1.0000
  -2   4   0   81223    3185                                                       90865   38.89    2.78  1.0000
  -1   4   0     197      68                                                          85   11.42    1.07  1.0000
  -1   4   0     277      33                                                         140   11.42    1.07  1.0000
   4   1   0     227      29                                                         105   11.42    0.06  1.0000
  -4   0   0     863      50                                                         510   16.16    0.69  1.0000
   0   4   0     806      58                                                         467   16.08   -0.02  1.0000
   4  -1   0      20      27                                                          -8   10.59   -0.50  1.0000
  -4   1   0     117      29                                                          40   10.59    0.50  1.0000
   1   4   0     168      36                                                          72   10.60    0.60  1.0000
  -4   2   0     145      28                                                          26   16.50    0.03  1.0000
   2   4   0     326      36                                                         124   16.39    0.22  1.0000
   5   4   0     761      40                                                         500   12.31    1.64  1.0000
  -3   5   0     783      54                                                         607    7.92    0.83  1.0000
  -3   5   0     990      83                                                         790    7.92    0.83  1.0000
   5   3   0     988      54                                                         787    8.00    0.87  1.0000
   5   2   0    2314      86                                                        2046    6.80    0.00  1.0000
  -2   5   0    2116     121                                                        1864    6.70    0.39  1.0000
   5   1   0    4062     127                                                        3463   11.57    0.67  1.0000
  -1   5   0    4006     155                                                        3413   11.53    0.73  1.0000
  -1   5   0    4078     131                                                        3479   11.53    0.73  1.0000
   0   5   0   14732     495                                                       14781    0.49   -0.30  1.0000
  -5   0   0   14858     493                                                       14914    0.50   -1.08  1.0000
  -5   1   0      39      31                                                         -47   14.89    0.18  1.0000
   5  -1   0      39      26                                                         -22   14.89   -0.18  1.0000
   1   5   0     100      36                                                          14   14.84    0.35  1.0000
   2   5   0      14      39                                                          37    5.33    0.82  1.0000
  -5   2   0      10      32                                                          29    5.25   -0.02  1.0000
   4   5   0     441      47                                                         305    8.36    0.64  1.0000
   5   5   0      17      17                                                         -13    9.71    0.74  1.0000
  -5   5   0      64      37                                                          15    9.68    1.10  1.0000
  -5   6   0       6      36                                                         -14    5.61    0.90  1.0000
   6   5   0       6      38                                                          -4    5.61    0.12  1.0000
   6   4   0       0      34                                                          44   14.76    1.24  1.0000
  -4   6   0       6      39                                                          75   14.74    1.16  1.0000
  -4   6   0      39      65                                                         -44   14.74    1.16  1.0000
  -3   6   0    7286     249                                                        7188   -1.35   -0.43  1.0000
  -3   6   0    6999     271                                                        6903   -1.35   -0.43  1.0000
  -2   6   0    1081      75                                                         990    3.39   -0.50  1.0000
  -2   6   0    1305     105                                                        1204    3.39   -0.50  1.0000
  -1   6   0    1085      97                                                         893    7.22    1.22  1.0000
  -6   0   0     615      60                                                         500    5.79   -0.45  1.0000
  -6   3   0     539      68                                                         470    3.68   -0.25  1.0000
   4   6   0     157      25                                                          78    8.74    0.75  1.0000
  -6   4   0      14      17                                                         -11    8.72    1.00  1.0000
   5   6   0      42      43                                                          46    0.78    0.06  1.0000
  -6   5   0       0      33                                                          -3    0.73   -0.53  1.0000
   6   6   0      11      44                                                          11    0.12    0.61  1.0000
  -6   6   0       0      38                                                         -32    0.19    0.53  1.0000
  -6   7   0    2781     133                                                        2941    3.52    0.77  1.0000
   7   6   0    2856     130                                                        3019    3.55    0.53  1.0000
   7   5   0       2      39                                                          -3    3.53   -0.95  1.0000
  -5   7   0       2      40                                                          -1    3.48   -0.45  1.0000
  -5   7   0      65      69                                                          44    3.48   -0.45  1.0000
  -4   7   0     123      71                                                          73    6.11    0.62  1.0000
   7   4   0     102      41                                                          56    6.21    0.00  1.0000
  -4   7   0       7      39                                                         -47    6.11    0.62  1.0000
   7   3   0     166      40                                                         108    5.90    1.12  1.0000
  -3   7   0      96      43                                                          53    5.96    0.94  1.0000
  -3   7   0     304      82                                                         222    5.96    0.94  1.0000
  -2   7   0       0      41                                                          -7   -0.97   -0.78  1.0000
   7   2   0       0      36                                                         -20   -1.02   -0.47  1.0000
  -2   7   0       0      78                                                         -11   -0.97   -0.78  1.0000
  -1   7   0      93      43                                                          58    4.83    0.35  1.0000
  -1   7   0      42      78                                                          20    4.83    0.35  1.0000
  -7   0   0     660      74                                                         681   -0.99   -1.27  1.0000
   0   7   0     541      76                                                         561   -1.04    0.69  1.0000
   1   7   0     113      45                                                          98    1.75    0.02  1.0000
  -7   1   0     140      42                                                         120    2.06    0.50  1.0000
   2   7   0    2903     127                                                        2863    0.85    1.00  1.0000
  -7   2   0    2933     125                                                        2890    0.94   -0.16  1.0000
   3   7   0    1574      96                                                        1515    1.72    1.67  1.0000
  -7   3   0    1531      94                                                        1467    1.94    0.80  1.0000
  -7   4   0    4459     180                                                        4678    3.85   -0.24  1.0000
   4   7   0    4480     179                                                        4687    3.61    0.40  1.0000
  -7   5   0      35       7                                                          19    3.69    0.66  1.0000
   5   7   0      16      44                                                           6    3.83    1.09  1.0000
   6   7   0      15      51                                                          20    1.28   -0.09  1.0000
  -7   6   0       0      43                                                         -34    1.39   -0.09  1.0000
   7   7   0    1566      98                                                        1479    2.64    0.19  1.0000
  -7   7   0    1450      91                                                        1368    2.53    1.14  1.0000
   8   7   0      77      51                                                          54    3.33    0.71  1.0000
  -7   8   0      45      47                                                          28    3.33    0.67  1.0000
   8   6   0     131      46                                                          95    4.10   -0.87  1.0000
  -6   8   0      58      48                                                          35    4.01   -0.64  1.0000
  -5   8   0    2257     141                                                        2202    1.35    0.49  1.0000
  -5   8   0    2245     119                                                        2190    1.35    0.49  1.0000
   8   5   0    2262     112                                                        2208    1.32    0.57  1.0000
  -4   8   0   12239     466                                                       12730    5.18    0.67  1.0000
  -4   8   0   12217     435                                                       12708    5.18    0.67  1.0000
   8   4   0   12143     430                                                       12639    5.25    0.69  1.0000
  -3   8   0      16      46                                                          -2    8.63    3.64  1.0000
  -3   8   0       9      85                                                           7    8.63    3.64  1.0000
   8   3   0      34      42                                                          51    8.44    3.19  1.0000
  -2   8   0      86      89                                                          81    0.63    0.16  1.0000
  -2   8   0      16      45                                                          14    0.63    0.16  1.0000
  -1   8   0      63      45                                                          56   -1.19    0.68  1.0000
  -1   8   0       0      86                                                        -123   -1.19    0.68  1.0000
  -8  -1   0       5      39                                                           3   -0.98   -0.29  1.0000
   0   8   0       8      46                                                          40    7.14    4.26  1.0000
  -8   0   0      26      44                                                          69    7.60   -0.36  1.0000
  -8   1   0    3993     165                                                        4233    4.45   -0.46  1.0000
   1   8   0    3924     167                                                        4182    4.75    1.32  1.0000
  -8   2   0     460      78                                                         451    0.45    0.91  1.0000
   2   8   0     558      84                                                         549    0.43    1.07  1.0000
   3   8   0     557      88                                                         555    0.06    0.73  1.0000
  -8   3   0     486      81                                                         485    0.06    0.06  1.0000
   4   8   0       5      51                                                          -2    5.25    0.66  1.0000
  -8   4   0       5      45                                                         -15    5.25    0.83  1.0000
  -8   5   0     119      40                                                          78    4.97   -0.84  1.0000
   5   8   0     292      54                                                         225    5.03   -1.18  1.0000
   7   8   0     205      61                                                         231   -2.07    0.15  1.0000
   8   8   0     181      59                                                         171    0.86    0.36  1.0000
  -8   8   0     110      47                                                         103    0.75    0.40  1.0000
  -8   9   0      13      57                                                           6   -2.86    0.74  1.0000
   9   8   0     137      58                                                         111   -2.83    0.28  1.0000
  -7   9   0      57      53                                                          48   -1.49    0.90  1.0000
   9   7   0      36      52                                                          29   -1.57    0.75  1.0000
  -6   9   0     262      57                                                         259    0.16    2.10  1.0000
   9   6   0     273      58                                                         270    0.17    2.11  1.0000
   9   5   0     103      51                                                          72    3.94    1.23  1.0000
  -5   9   0      98      56                                                          68    3.83    1.06  1.0000
  -4   9   0     587     102                                                         525    3.08    1.61  1.0000
  -4   9   0     617      98                                                         553    3.08    1.61  1.0000
   9   4   0     538      57                                                         478    3.09    1.85  1.0000
  -3   9   0    2036     117                                                        1881    4.12    1.00  1.0000
  -3   9   0    1953     148                                                        1801    4.12    1.00  1.0000
  -2   9   0    3406     157                                                        3511    2.04    1.47  1.0000
  -2   9   0    3610     190                                                        3718    2.04    1.47  1.0000
  -9  -1   0      79      46                                                          94   -1.63    1.82  1.0000
  -1   9   0      24      93                                                          32   -1.87   -0.46  1.0000
  -1   9   0      38      51                                                          49   -1.87   -0.46  1.0000
   0   9   0       2      48                                                           9    3.50    1.49  1.0000
   0   9   0     113      93                                                         148    3.50    1.49  1.0000
  -9   0   0      26      48                                                          43    3.41    0.32  1.0000
  -9   1   0     295      52                                                         256    2.73    0.57  1.0000
   1   9   0     363      55                                                         319    2.81    1.15  1.0000
  -9   2   0      33      47                                                          41   -1.33   -1.77  1.0000
   2   9   0      36      53                                                          46   -1.02   -3.00  1.0000
  -9   3   0      23      47                                                          24    0.08    1.13  1.0000
   3   9   0       4      56                                                           4   -0.06    1.21  1.0000
  -9   4   0      62      50                                                          37    4.25    0.70  1.0000
   4   9   0       3      58                                                         -36    4.19    0.64  1.0000
  -9   5   0      16      38                                                          18   -0.47    0.02  1.0000
   5   9   0      66      59                                                          70   -0.55    0.33  1.0000
   6   9   0    1114     105                                                        1022    3.29    0.94  1.0000
   7   9   0     151      64                                                         158   -0.77    1.53  1.0000
   8   9   0     959     107                                                         894   -2.55    0.43  1.0000
  -9   8   0     637     103                                                         585   -2.57    1.15  1.0000
  -9   9   0      83      59                                                          80    0.65   -1.05  1.0000
   9   9   0       0      62                                                         -20    0.59   -1.14  1.0000
  -9  10   0      15      61                                                          30   -3.65    1.35  1.0000
  10   8   0       3      60                                                           3   -0.08    0.48  1.0000
  -8  10   0       0      61                                                         -32   -0.02    0.58  1.0000
  -7  10   0      70      62                                                         114    3.39    4.36  1.0000
  10   7   0      35      63                                                          68    3.32    4.49  1.0000
  -6  10   0      19      63                                                          35    3.69    0.42  1.0000
  10   6   0      60      58                                                          87    3.69    1.12  1.0000
  10   5   0     839     100                                                         947    4.28    0.57  1.0000
  -5  10   0     959     113                                                        1074    4.29    0.14  1.0000
  -4  10   0     286      62                                                         279    0.55   -0.68  1.0000
  -4  10   0     324     106                                                         316    0.55   -0.68  1.0000
  10   4   0     205      53                                                         198    0.59   -0.28  1.0000
  -3  10   0     123      99                                                          95    3.20    0.92  1.0000
  -3  10   0     186      60                                                         151    3.20    0.92  1.0000
  -2  10   0     300     111                                                         258    3.01   -0.64  1.0000
  -2  10   0     201      60                                                         167    3.01   -0.64  1.0000
 -10  -2   0     112      51                                                          86    3.16    1.23  1.0000
  -1  10   0    1328     114                                                        1349   -0.65   -0.79  1.0000
 -10  -1   0    1250     108                                                        1273   -0.74    0.41  1.0000
  -1  10   0    1532     157                                                        1555   -0.65   -0.79  1.0000
   0  10   0    7426     302                                                        7346   -1.08   -0.38  1.0000
   0  10   0    7339     271                                                        7260   -1.08   -0.38  1.0000
 -10   0   0    7542     270                                                        7473   -0.93    0.09  1.0000
 -10   1   0       5      53                                                         -63    5.38   -0.66  1.0000
   1  10   0     117      58                                                          73    5.36    1.01  1.0000
   2  10   0      31      58                                                          16    3.65    0.96  1.0000
 -10   2   0       2      53                                                         -55    3.69    0.21  1.0000
 -10   3   0      20      55                                                          34    3.25    0.41  1.0000
   3  10   0      19      62                                                          33    3.15    0.14  1.0000
 -10   4   0      15      54                                                          60    8.35    3.98  1.0000
   4  10   0       0      62                                                          16    8.13    4.99  1.0000
   5  10   0     854     112                                                        1000    5.67    0.22  1.0000
 -10   5   0     781     111                                                         920    5.64    0.17  1.0000
 -10   6   0       3      54                                                         -14    3.76    0.92  1.0000
   6  10   0     107      64                                                          75    3.93    0.65  1.0000
   7  10   0     132      71                                                         127    0.54    0.32  1.0000
 -10   7   0     101      57                                                          97    0.51    0.56  1.0000
   8  10   0      63      70                                                          47   -2.56   -0.46  1.0000
 -10   8   0       1      58                                                         -34   -2.48   -0.75  1.0000
 -10   9   0      94      60                                                         133   -4.41    0.66  1.0000
 -10  10   0     605     117                                                         631    1.27   -0.75  1.0000
 -10  11   0      49      71                                                         102   -7.25   -0.90  1.0000
  -9  11   0     220      74                                                         256   -2.80    0.41  1.0000
  -8  11   0     297      71                                                         272   -1.79    0.54  1.0000
  -7  11   0      93      69                                                          79    2.20   -1.10  1.0000
  11   7   0       1      63                                                         -99    2.22   -1.66  1.0000
  -6  11   0       4      67                                                           5   -0.39    0.47  1.0000
  11   6   0       0      66                                                         -66   -0.42   -0.15  1.0000
  11   5   0      47      61                                                          44    1.02   -2.12  1.0000
  -5  11   0       1      69                                                          -6    0.94   -2.05  1.0000
  -4  11   0      44      68                                                          75    4.81    0.77  1.0000
  -3  11   0       0     110                                                         -19    0.35    0.63  1.0000
  -3  11   0      98      68                                                         101    0.35    0.63  1.0000
  -2  11   0     185      65                                                         159    2.38   -0.15  1.0000
 -11  -2   0     200      61                                                         171    2.50   -0.38  1.0000
  -2  11   0     323     116                                                         288    2.38   -0.15  1.0000
  -1  11   0      40     120                                                          63   -3.84    0.19  1.0000
  -1  11   0      34      63                                                          56   -3.84    0.19  1.0000
 -11  -1   0       3      61                                                         -47   -3.75    0.18  1.0000
   0  11   0     694     106                                                         613    3.75    0.59  1.0000
   0  11   0     722     133                                                         639    3.75    0.59  1.0000
 -11   0   0     565      70                                                         494    3.63   -0.94  1.0000
   1  11   0     665     110                                                         626    1.74    1.72  1.0000
   1  11   0     852     138                                                         808    1.74    1.72  1.0000
 -11   1   0     626      73                                                         585    1.91    2.09  1.0000
   2  11   0    1098     117                                                        1146    1.63    0.96  1.0000
 -11   2   0    1283     121                                                        1338    1.74    1.16  1.0000
   3  11   0       0      65                                                         -84    1.16    0.30  1.0000
 -11   3   0       0      62                                                          -1    1.26    0.57  1.0000
   4  11   0      89      66                                                         103    1.15    2.00  1.0000
 -11   4   0       5      62                                                           9    1.16    2.59  1.0000
   5  11   0     343      72                                                         384   -2.56    0.76  1.0000
 -11   5   0     279      74                                                         317   -2.64    0.99  1.0000
 -11   6   0       9      61                                                          16   -1.95   -2.02  1.0000
   6  11   0       4      68                                                           9   -1.84   -2.52  1.0000
 -11   7   0      11      61                                                         -51   -7.68   -0.46  1.0000
 -11   8   0      12      66                                                          49   -8.28    0.04  1.0000
 -11   9   0      27      64                                                          48   -3.87   -1.08  1.0000
 -11  10   0     127      73                                                         134   -0.72   -0.29  1.0000
 -11  11   0      20      74                                                          42   -4.76   -0.99  1.0000
 -11  12   0     133      78                                                         106   -2.90   -0.07  1.0000
 -10  12   0      68      75                                                          88   -2.61   -1.28  1.0000
  -9  12   0       0      73                                                         -55    0.53   -0.12  1.0000
  -8  12   0       3      73                                                           9   -3.00   -1.45  1.0000
  12   7   0     516      82                                                         527   -0.55   -0.04  1.0000
  -7  12   0     579      82                                                         588   -0.46    0.21  1.0000
  -6  12   0     996     125                                                        1105    3.97    0.59  1.0000
  12   6   0     785     108                                                         885    4.11    0.19  1.0000
  -5  12   0       5      73                                                         -93    5.09    0.98  1.0000
  -4  12   0       3      74                                                           0    3.95   -1.63  1.0000
 -12  -3   0      35      63                                                          31   -1.33   -1.60  1.0000
  -3  12   0      15     112                                                          13   -1.32    2.22  1.0000
  -3  12   0      99      74                                                          95   -1.32    2.22  1.0000
 -12  -2   0      13      69                                                           7   -2.28   -0.34  1.0000
  -2  12   0      60     123                                                          46   -2.32    0.50  1.0000
  -2  12   0      83      72                                                          67   -2.32    0.50  1.0000
 -12  -1   0     600     122                                                         650    2.38   -0.12  1.0000
  -1  12   0     573     115                                                         621    2.29    0.58  1.0000
  -1  12   0     796     143                                                         852    2.29    0.58  1.0000
   0  12   0      42      69                                                          45   -0.59    1.06  1.0000
   0  12   0     206     136                                                         213   -0.59    1.06  1.0000
 -12   0   0      79      72                                                          84   -0.73   -0.58  1.0000
   1  12   0     161     142                                                         124    3.69    1.17  1.0000
 -12   1   0      51      71                                                          30    3.90    0.84  1.0000
   1  12   0      61      70                                                          39    3.69    1.17  1.0000
 -12   2   0      74      71                                                          68    0.96    1.41  1.0000
   2  12   0       0      69                                                         -11    0.88    1.31  1.0000
   2  12   0       0     148                                                        -253    0.88    1.31  1.0000
 -12   3   0     146      75                                                         144    0.27   -1.15  1.0000
   3  12   0     210      76                                                         207    0.32   -0.91  1.0000
 -12   4   0    1253     143                                                        1279    0.81    0.93  1.0000
   4  12   0    1708     138                                                        1738    0.82    0.50  1.0000
   5  12   0      19      72                                                          26   -1.70    0.74  1.0000
 -12   5   0       0      71                                                         -35   -1.48    0.70  1.0000
 -12   6   0       4      70                                                          -7    4.71    0.63  1.0000
 -12   7   0      24      67                                                          29    1.16   -0.19  1.0000
 -12   8   0      32      71                                                          53   -3.87    0.10  1.0000
 -12   9   0     141      71                                                         136   -0.49    0.34  1.0000
 -12  10   0       1      72                                                         -41    2.56    0.19  1.0000
 -12  11   0      27      77                                                          21    1.54    1.17  1.0000
 -12  12   0       0      81                                                           0   -1.55   -0.54  1.0000
 -11  13   0       8      81                                                         -39    6.50   -0.17  1.0000
 -10  13   0       0      78                                                         -12    0.21   -0.30  1.0000
  -9  13   0      66      79                                                          57   -1.31   -0.50  1.0000
  -8  13   0      13      79                                                          20   -1.98    0.52  1.0000
  -7  13   0       2      80                                                         -34    2.93   -2.32  1.0000
  -6  13   0       2      81                                                         -37    2.90    1.57  1.0000
  -5  13   0     537      89                                                         552   -0.77    0.03  1.0000
 -13  -4   0     216      70                                                         196   -1.67   -0.36  1.0000
  -4  13   0     430      84                                                         402   -1.66    0.07  1.0000
  -3  13   0      22      77                                                          32   -2.30    0.83  1.0000
 -13  -3   0       1      70                                                         -30   -2.47   -1.49  1.0000
  -2  13   0      17     128                                                          40    5.13    1.25  1.0000
  -2  13   0       2      75                                                           1    5.13    1.25  1.0000
 -13  -2   0      95      75                                                         144    5.35    0.67  1.0000
 -13  -1   0      84      76                                                         105   -2.55    0.79  1.0000
  -1  13   0      48     136                                                          65   -2.75   -0.35  1.0000
  -1  13   0      40      75                                                          56   -2.75   -0.35  1.0000
   0  13   0      26     141                                                          53    5.21    1.05  1.0000
 -13   0   0      69      76                                                         113    5.40   -0.74  1.0000
   0  13   0      52      74                                                          89    5.21    1.05  1.0000
   1  13   0       1      72                                                          -2    2.72    0.96  1.0000
 -13   1   0       1      78                                                         -25    2.87    0.17  1.0000
   1  13   0     279     155                                                         320    2.72    0.96  1.0000
 -13   2   0       2      76                                                         -55    1.04    2.88  1.0000
   2  13   0       0     150                                                         -39    0.98    1.30  1.0000
   2  13   0       0      73                                                         -70    0.98    1.30  1.0000
   3  13   0       3     159                                                        -127    3.16   -2.62  1.0000
   3  13   0       3      75                                                        -101    3.16   -2.62  1.0000
 -13   3   0      14      78                                                          13    3.14   -1.91  1.0000
 -13   4   0     198      82                                                         183    1.26    1.25  1.0000
   4  13   0     117      78                                                         108    0.94    1.68  1.0000
 -13   5   0      47      79                                                          68   -3.44    1.46  1.0000
 -13   6   0     212      81                                                         290    5.81    0.91  1.0000
 -13   7   0       6      75                                                           5    0.53   -0.33  1.0000
 -13   8   0       0      76                                                         -30    0.39    0.01  1.0000
 -13   9   0      43      77                                                          48   -0.94    1.05  1.0000
 -13  10   0       3      78                                                         -11    4.27   -0.53  1.0000
 -13  11   0      81      84                                                          76   -0.67   -0.24  1.0000
 -10  14   0       2      83                                                         -75    3.46   -0.56  1.0000
  -9  14   0       8      83                                                          14   -1.21    2.31  1.0000
  -8  14   0       0      87                                                        -115   -1.50   -0.61  1.0000
  -7  14   0     134      89                                                         151    1.67   -0.74  1.0000
  -6  14   0       1      85                                                         -94    1.94   -0.53  1.0000
 -14  -5   0      45      72                                                         108   -7.24   -5.57  1.0000
  -5  14   0       3      86                                                          26   -7.10    5.21  1.0000
 -14  -4   0       3      75                                                         -80    3.86    0.94  1.0000
  -4  14   0       3      82                                                         -94    3.93   -1.24  1.0000
 -14  -3   0     350      82                                                         343    0.45   -0.09  1.0000
  -3  14   0     438      89                                                         432    0.35   -0.14  1.0000
  -2  14   0     653     140                                                         719    2.97    0.03  1.0000
  -2  14   0     573      86                                                         635    2.97    0.03  1.0000
 -14  -2   0     458      86                                                         516    3.14    0.32  1.0000
  -1  14   0       3      78                                                          -8    3.92    0.18  1.0000
 -14  -1   0      50      79                                                          50    4.77    4.96  1.0000
  -1  14   0      94     134                                                          65    3.92    0.18  1.0000
   0  14   0       4      76                                                          25   -6.67   -1.92  1.0000
   0  14   0       7     150                                                          31   -6.67   -1.92  1.0000
 -14   0   0       0      80                                                          10   -6.62   -2.15  1.0000
   1  14   0       0      75                                                         -82   -1.12    1.10  1.0000
 -14   1   0       0      81                                                         -25   -0.79    0.58  1.0000
   1  14   0      52     163                                                          48   -1.12    1.10  1.0000
 -14   2   0       1      84                                                           7   -7.32    1.40  1.0000
   2  14   0      10     164                                                         -71   -7.52    0.72  1.0000
   2  14   0      11      77                                                          41   -7.52    0.72  1.0000
 -14   3   0     247      87                                                         173   -6.21    1.06  1.0000
   3  14   0     174     172                                                         112   -6.33    1.32  1.0000
   4  14   0       1     168                                                          -7    1.88    0.94  1.0000
 -14   4   0      76      88                                                          61    2.11    0.36  1.0000
 -14   5   0      43      88                                                         102   -8.39    0.98  1.0000
 -14   6   0      20      84                                                          43   -4.73   -0.91  1.0000
 -14   7   0       4      83                                                         -41    4.58    0.88  1.0000
 -14   8   0     204      87                                                         182   -1.83   -0.61  1.0000
 -14   9   0       1      83                                                         -14    2.41   -0.20  1.0000
 -14  10   0      27      84                                                          39   -2.17   -1.68  1.0000
  -8  15   0      12      95                                                          48   -7.35    3.78  1.0000
  -7  15   0      51      95                                                          80   -1.44   -5.16  1.0000
  -6  15   0       2      91                                                           8    3.09   -1.02  1.0000
 -15  -5   0       3      84                                                         -10   -4.04    1.14  1.0000
  -5  15   0     108      91                                                          76   -4.02   -1.64  1.0000
  -4  15   0       1      89                                                         -14   -0.40   -1.88  1.0000
 -15  -4   0     119      83                                                         123   -0.25    1.53  1.0000
  -3  15   0       1      85                                                           1   -0.18   -1.70  1.0000
 -15  -3   0       1      82                                                         -33    0.00    2.02  1.0000
  -2  15   0      56      86                                                          49    1.12    0.25  1.0000
 -15  -2   0       0      83                                                         -27    1.44   -0.18  1.0000
  -1  15   0     126      85                                                         127   -0.10   -0.65  1.0000
 -15  -1   0     250      87                                                         250    0.09    1.14  1.0000
  -1  15   0     119     146                                                         120   -0.10   -0.65  1.0000
   0  15   0     176      84                                                         154   -2.05    0.06  1.0000
   0  15   0     146     162                                                         126   -2.05    0.06  1.0000
 -15   0   0     142      89                                                         125   -1.68    0.54  1.0000
   1  15   0     130     176                                                         132   -0.13   -0.33  1.0000
 -15   1   0     108      92                                                         144   -0.23   -6.47  1.0000
   1  15   0      80      85                                                          81   -0.13   -0.33  1.0000
 -15   2   0     101      93                                                         153   -1.26    5.99  1.0000
   2  15   0       9     181                                                        -108   -1.66    6.95  1.0000
   3  15   0       1     181                                                         -93    1.85   -1.07  1.0000
 -15   3   0       1      91                                                        -117    1.83   -0.80  1.0000
 -15   4   0      23      94                                                          91   10.94    2.00  1.0000
   4  15   0       0     172                                                          27   10.79    2.71  1.0000
   5  15   0      29     176                                                          39    1.94    1.10  1.0000
 -15   5   0      36      95                                                          48    2.15    1.23  1.0000
   6  15   0       0     168                                                        -118    0.15    0.95  1.0000
 -15   6   0     125      94                                                         126    0.08    1.61  1.0000
 -15   7   0       9      90                                                          14   -1.77    0.85  1.0000
 -15   8   0     141      94                                                         128    1.37   -0.65  1.0000
  -6  16   0      18      97                                                          94    7.73  -10.44  1.0000
  -5  16   0      44      98                                                          71   -4.05    1.26  1.0000
  -4  16   0       3      93                                                         -89   -3.44   -1.52  1.0000
 -16  -4   0       2      89                                                         -55   -3.42    1.06  1.0000
 -16  -3   0       0      88                                                          -5   -0.87    0.92  1.0000
  -3  16   0     133      91                                                         122   -1.18   -0.32  1.0000
 -16  -2   0       1      89                                                           6   -7.35   -2.90  1.0000
  -2  16   0      71      93                                                         127   -6.81    0.70  1.0000
 -16  -1   0       6      89                                                         -73    5.80    1.31  1.0000
  -1  16   0       5      88                                                         -44    5.45    0.55  1.0000
 -16   0   0       2      93                                                         -11    3.32    0.36  1.0000
   0  16   0       2     163                                                        -118    2.97    0.93  1.0000
   1  16   0      83     187                                                          66    2.28    1.17  1.0000
 -16   1   0     103      97                                                          81    2.73    0.40  1.0000
 -16   2   0     133     100                                                         169    3.38    0.87  1.0000
   2  16   0     348     198                                                         400    3.12    0.88  1.0000
   3  16   0     131     187                                                         224   -8.27    1.79  1.0000
 -16   3   0     115     103                                                         208   -8.04    3.90  1.0000
   4  16   0       0     180                                                           7    7.15   -1.63  1.0000
 -16   4   0      10     102                                                         -43    7.29   -1.22  1.0000
 -16   5   0      43     102                                                          85    3.86    5.11  1.0000
   5  16   0      50     176                                                         102    3.56    6.48  1.0000
   6  16   0      11     185                                                          55   -9.62   -0.79  1.0000
 -16   6   0      17      97                                                         -45   -9.62   -0.37  1.0000
 -17  -3   0      84      99                                                         122   -4.40    1.06  1.0000
  -3  17   0      27      99                                                          52   -4.45   -1.99  1.0000
 -17  -2   0      61      95                                                          73    1.75   -0.33  1.0000
 -17  -1   0      36      98                                                          41    0.79   -0.82  1.0000
 -17   0   0      17     101                                                          19    6.45    5.45  1.0000
 -17   1   0       8     103                                                          14   -1.00   -2.03  1.0000
   1  17   0       1     194                                                        -267   -1.30   -2.15  1.0000
 -17   2   0     203     110                                                         265   -4.79    0.89  1.0000
   2  17   0       5     199                                                        -196   -5.06    0.45  1.0000
 -17   3   0     128     111                                                         190   -5.83    0.04  1.0000
   3  17   0      98     207                                                         156   -6.12   -0.03  1.0000
   0   0   1   39347     743                                                       22561 -114.94   11.40  1.0000
   0  -1   1     109      20                                                         194   -5.45   -9.84  1.0000
  -1   0   1     135      30                                                         224   -5.45   -9.17  1.0000
   1   0   1     118      30                                                         207   -5.59   -9.70  1.0000
   0   1   1     137      37                                                         229   -5.74   -8.93  1.0000
   1   1   1      56      25                                                         164  -12.46   -1.86  1.0000
  -1   1   1      31      24                                                         116  -12.16   -2.06  1.0000
   1  -1   1      25      17                                                         106  -12.54   -0.93  1.0000
   1   1   1      31      22                                                         118  -12.46   -1.86  1.0000
  -1   2  -1       6      35                                                         307   43.31   16.56  1.0000
  -1   2   1       5      57                                                         312   43.37  -14.51  1.0000
   2   1   1       2      35                                                         375   43.45  -15.36  1.0000
   0   2  -1      79      25                                                         155   -8.37    1.89  1.0000
   2   0   1     150      42                                                         253   -8.62   -1.21  1.0000
   0   2   1     137      43                                                         233   -8.40   -1.53  1.0000
  -2   0   1     133      37                                                         225   -8.07   -2.23  1.0000
   0   2   1     105      33                                                         191   -8.40   -1.53  1.0000
   2  -1   1     231      43                                                         315   -5.46   -5.86  1.0000
   2  -1   1     244      41                                                         330   -5.46   -5.86  1.0000
   1   2   1     319      43                                                         418   -5.45   -6.23  1.0000
  -2   1   1     312      49                                                         409   -5.39   -6.19  1.0000
  -2   2  -1     337      42                                                         245   -6.40    1.37  1.0000
   2   2   1     337      42                                                         248   -6.15   -1.01  1.0000
   2  -2   1     322      46                                                         232   -6.40   -1.37  1.0000
  -2   2   1     311      35                                                         223   -6.40   -0.77  1.0000
  -2   3  -1       5      25                                                           4   -0.01    3.34  1.0000
  -2   3   1      13      36                                                          13   -0.03   -2.44  1.0000
   3   2   1      34      30                                                          35    0.03   -2.42  1.0000
   3   2   1      49      32                                                          50    0.03   -2.42  1.0000
  -1   3  -1       7      23                                                         -54   -6.30    1.49  1.0000
  -1   3   1       6      30                                                           3   -6.42   -2.28  1.0000
  -1   3   1       8      52                                                         -17   -6.42   -2.28  1.0000
   3   1   1       8       6                                                          -5   -6.36   -1.51  1.0000
   3   1   1       8      30                                                         -25   -6.36   -1.51  1.0000
  -3  -1   1      11      25                                                          15   -6.50   -2.26  1.0000
   0   3  -1     251      37                                                         228   -1.77    3.92  1.0000
   0   3   1     244      52                                                         225   -1.51   -4.50  1.0000
   3   0   1     266      37                                                         244   -1.65   -4.45  1.0000
  -3   0   1     234      30                                                         213   -1.65   -3.83  1.0000
   3   0   1     114      25                                                          99   -1.65   -4.45  1.0000
   1   3   1   31551    1217                                                       33993  -16.15    4.45  1.0000
   3  -1   1   32952    1154                                                       35466  -16.29    5.25  1.0000
  -3   1   1   33574    1154                                                       36101  -16.21    4.62  1.0000
  -3   2  -1       6      26                                                          12    1.89    2.43  1.0000
  -3   2   1      13      34                                                          21    1.88   -2.17  1.0000
   2   3   1       2      19                                                         -64    1.93   -2.57  1.0000
   2   3   1       2      36                                                          -2    1.93   -2.57  1.0000
   3  -2   1      24      39                                                          35    1.89   -2.43  1.0000
  -3   3  -1      16      27                                                          22    1.66    1.38  1.0000
   3   3   1      31      48                                                          39    1.67   -0.92  1.0000
  -3   3   1      48      37                                                          57    1.47   -0.69  1.0000
   3   3   1      69      28                                                          81    1.67   -0.92  1.0000
  -3   4   1     416      64                                                         383    2.05   -1.30  1.0000
  -1   4  -1      27      27                                                          32    1.11    0.91  1.0000
  -1   4   1      59      60                                                          67    1.13   -2.09  1.0000
  -4  -1   1      68      28                                                          75    0.87   -1.86  1.0000
   0   4  -1       1      23                                                          -3    1.51    1.07  1.0000
   0   4   1       1      11                                                         -24    1.61   -0.70  1.0000
   4   0   1       1      29                                                         -71    1.49   -0.88  1.0000
   0   4   1       1      51                                                        -101    1.61   -0.70  1.0000
  -4   0   1      13      33                                                           9    1.72   -1.07  1.0000
   4   0   1       1       4                                                          -8    1.49   -0.88  1.0000
   1   4  -1     803      51                                                         810    0.34    1.59  1.0000
  -4   1   1     894      65                                                         905    0.48   -1.83  1.0000
   1   4   1     734      80                                                         737    0.16   -1.40  1.0000
  -4   2  -1       7       8                                                           1   -3.82    1.23  1.0000
   2   4   1      52      22                                                          31   -3.90   -0.59  1.0000
  -4   2   1     405      58                                                         340   -3.97   -1.17  1.0000
   4  -2   1      55      26                                                          33   -3.82   -1.23  1.0000
  -4   3  -1       4       8                                                          -9   -4.73    0.86  1.0000
   3   4   1       4      10                                                         -28   -4.60   -0.43  1.0000
   3   4   1       4      13                                                         -13   -4.60   -0.43  1.0000
  -4   3   1      78      35                                                          47   -4.86   -1.19  1.0000
  -4   4  -1     237      33                                                         268   -2.31   -0.50  1.0000
   4   4  -1     238      35                                                         267   -2.15   -0.75  1.0000
   4   4   1     209      40                                                         237   -2.28    0.57  1.0000
  -4   4   1     160      41                                                         186   -2.37    0.76  1.0000
  -4   5  -1     375      62                                                         440   -3.87   -0.60  1.0000
   5   4  -1     399      45                                                         465   -3.79   -1.37  1.0000
   5   4   1     373      74                                                         439   -3.87    0.14  1.0000
  -4   5   1     316      47                                                         372   -3.63    0.85  1.0000
  -3   5  -1     168      29                                                         182   -1.31   -0.51  1.0000
   5   3   1     209      39                                                         223   -1.15    0.11  1.0000
  -3   5   1     299      66                                                         317   -1.18   -0.33  1.0000
  -2   5  -1     368      44                                                         379   -0.63    1.21  1.0000
   5   2   1     208      29                                                         213   -0.39   -1.09  1.0000
  -2   5   1     545      67                                                         551   -0.26   -1.36  1.0000
  -5  -2   1     355      46                                                         365   -0.53   -1.50  1.0000
  -1   5  -1     258      46                                                         267   -0.57    1.32  1.0000
  -1   5   1     307      65                                                         316   -0.56   -0.25  1.0000
  -5  -1   1     361      50                                                         366   -0.29   -0.52  1.0000
   0   5  -1     126      27                                                          99   -3.14    2.55  1.0000
   5   0  -1       3      30                                                          -7   -3.37    2.03  1.0000
  -5   0   1     171      35                                                         137   -3.37   -2.03  1.0000
   0   5   1     154      60                                                         120   -3.61   -2.87  1.0000
   1   5  -1     104      28                                                          52   -7.12    1.94  1.0000
  -5   1   1     111      37                                                          57   -7.09   -1.40  1.0000
   1   5   1       9      13                                                         -26   -7.09   -1.22  1.0000
   1   5   1       9      62                                                         -31   -7.09   -1.22  1.0000
   5  -1   1      77       9                                                          34   -6.98   -1.64  1.0000
   2   5  -1     163      29                                                         133   -2.95   -0.20  1.0000
   2   5   1      46      28                                                          30   -3.15   -0.29  1.0000
  -5   2   1     173      38                                                         141   -2.97   -0.36  1.0000
   2   5   1     166      36                                                         133   -3.15   -0.29  1.0000
  -5   3  -1     115      33                                                         142   -2.76    0.70  1.0000
   3   5  -1     147      27                                                         178   -2.84    0.69  1.0000
   3   5   1      82      45                                                         104   -2.67   -0.46  1.0000
   5  -3   1     212      47                                                         248   -2.76   -0.70  1.0000
  -5   3   1     151      39                                                         183   -2.95   -0.38  1.0000
   3   5   1     104      49                                                         128   -2.67   -0.46  1.0000
  -5   4  -1      12      34                                                          24   -3.38   -1.00  1.0000
   4   5  -1      21      28                                                          37   -3.35   -1.36  1.0000
  -5   4   1       2      39                                                         -50   -3.39    0.68  1.0000
   4   5   1      33      43                                                          52   -3.40    0.12  1.0000
   5   5  -1    4687     171                                                        4847   -2.73    0.29  1.0000
  -5   5  -1    4672     182                                                        4847   -2.99    0.26  1.0000
  -5   5   1    4788     188                                                        4948   -2.69   -0.69  1.0000
   5   5   1    4938     190                                                        5114   -2.91   -0.73  1.0000
  -5   6  -1       0      39                                                         -15   -0.34    0.44  1.0000
   6   5  -1      33      31                                                          31   -0.50    1.04  1.0000
   6   5   1      45      48                                                          44   -0.16   -0.42  1.0000
  -5   6   1      11      34                                                          10   -0.26   -0.97  1.0000
   6   4  -1     889      55                                                         731   -6.76   -2.33  1.0000
  -4   6  -1     773     105                                                         621   -6.99   -2.15  1.0000
  -4   6  -1     907      72                                                         742   -6.99   -2.15  1.0000
  -4   6   1     782      89                                                         633   -6.77    1.54  1.0000
   6   4   1     820      77                                                         662   -6.98    1.45  1.0000
  -3   6  -1      74      35                                                          92    2.25   -1.02  1.0000
  -3   6   1      87      67                                                         107    2.39    1.40  1.0000
   6   3   1      41      41                                                          54    2.31    1.01  1.0000
  -3   6   1      66      43                                                          84    2.39    1.40  1.0000
  -2   6   1     304      51                                                         345   -2.70   -0.34  1.0000
  -6  -2   1     324      54                                                         363   -2.48   -0.94  1.0000
  -2   6   1     476      89                                                         527   -2.70   -0.34  1.0000
   6   2   1     313      44                                                         359   -2.99   -0.46  1.0000
  -1   6  -1     276      42                                                         339   -4.15    1.99  1.0000
  -1   6   1     323      51                                                         390   -4.07   -2.11  1.0000
  -6  -1   1     250      57                                                         308   -4.05   -1.15  1.0000
  -1   6   1     347      74                                                         416   -4.07   -2.11  1.0000
   6   1   1     320      65                                                         387   -4.07   -3.00  1.0000
   0   6  -1       0      29                                                          -1   -1.09   -0.50  1.0000
   0   6   1     120      69                                                         110   -1.13    0.49  1.0000
   0   6   1      15      44                                                          12   -1.13    0.49  1.0000
   6   0   1       0      33                                                          -6   -1.05    0.13  1.0000
  -6   0   1      37      37                                                          32   -1.17    1.00  1.0000
   1   6  -1     131      33                                                         115    1.76    0.00  1.0000
   6  -1   1     186      40                                                         165    1.92   -0.01  1.0000
  -6   1   1     282      43                                                         259    1.71   -1.04  1.0000
   1   6   1     233      35                                                         213    1.68   -1.04  1.0000
   1   6   1     174      73                                                         156    1.68   -1.04  1.0000
   1   6   1     166      50                                                         149    1.68   -1.04  1.0000
   2   6  -1   12391     432                                                       12849    4.87    0.71  1.0000
   6  -2   1   12022     453                                                       12508    5.25   -1.31  1.0000
  -6   2   1   12893     438                                                       13367    4.93   -0.86  1.0000
   2   6   1   12135     467                                                       12606    5.07   -1.32  1.0000
   2   6   1   12999     443                                                       13486    5.07   -1.32  1.0000
  -6   3  -1      97      39                                                          85    1.56    0.26  1.0000
   3   6  -1      59      33                                                          50    1.46   -0.52  1.0000
  -6   3   1      92      46                                                          81    1.36    0.35  1.0000
   3   6   1     170      62                                                         155    1.44   -0.48  1.0000
   3   6   1      89      51                                                          78    1.44   -0.48  1.0000
   6  -3   1      75      43                                                          64    1.56   -0.26  1.0000
  -6   4  -1     111      39                                                         140   -3.07    0.40  1.0000
   4   6  -1     130      32                                                         166   -3.49    0.32  1.0000
   4   6   1      96      51                                                         122   -2.91   -1.05  1.0000
  -6   4   1     156      45                                                         193   -3.23   -1.21  1.0000
  -6   5  -1    1036      80                                                        1091    2.02    0.78  1.0000
   5   6  -1     970      63                                                        1022    1.98    0.66  1.0000
   5   6   1    1033      91                                                        1091    2.11   -0.24  1.0000
  -6   5   1     882      86                                                         937    2.15   -0.03  1.0000
   6   6  -1      35      28                                                          41    1.08   -0.30  1.0000
  -6   6  -1     120      43                                                         128    0.85   -0.45  1.0000
  -6   6   1      93      46                                                         103    1.07    0.81  1.0000
   6   6   1      30      53                                                          35    0.96    0.89  1.0000
   7   6  -1     130      25                                                         128   -0.26   -0.20  1.0000
  -6   7  -1     269      47                                                         268   -0.12   -0.49  1.0000
   7   6   1     203      57                                                         199   -0.37    0.28  1.0000
  -5   7  -1       1      81                                                         -63   -1.87    0.84  1.0000
   7   5  -1       1      10                                                         -15   -1.94    0.91  1.0000
  -5   7  -1       1      40                                                         -43   -1.87    0.84  1.0000
  -5   7   1      13      77                                                           8   -1.78   -0.37  1.0000
  -5   7   1      26      31                                                          19   -1.78   -0.37  1.0000
   7   5   1      59      48                                                          49   -1.68   -0.14  1.0000
  -4   7  -1       0      79                                                          -6   -0.18    0.87  1.0000
  -4   7  -1       0      36                                                         -25   -0.18    0.87  1.0000
  -4   7   1       0      80                                                         -29   -0.03   -0.92  1.0000
  -4   7   1       0      47                                                         -38   -0.03   -0.92  1.0000
   7   4   1       0      44                                                          -5   -0.19   -1.17  1.0000
  -3   7  -1       9      34                                                          19   -1.89   -2.79  1.0000
  -3   7   1      35      72                                                          49   -1.64    2.13  1.0000
  -3   7   1       1      49                                                           4   -1.64    2.13  1.0000
   7   3   1       1      41                                                         -32   -1.89    1.36  1.0000
  -2   7  -1     907      71                                                         903   -0.13    0.68  1.0000
   7   2   1     765      79                                                         767    0.11   -0.33  1.0000
  -2   7   1     842      92                                                         843    0.05   -0.08  1.0000
  -7  -2   1     903      71                                                         899   -0.15   -0.55  1.0000
  -2   7   1     887     103                                                         888    0.05   -0.08  1.0000
  -1   7  -1    4787     177                                                        4819   -0.56   -0.15  1.0000
   7   1   1    4786     184                                                        4827   -0.76    1.13  1.0000
  -1   7   1    4862     192                                                        4903   -0.75    1.04  1.0000
  -7  -1   1    5087     180                                                        5141   -0.88   -0.21  1.0000
  -1   7   1    4813     209                                                        4854   -0.75    1.04  1.0000
   0   7   1     315      83                                                         238    5.51    1.31  1.0000
   0   7   1     155      50                                                         102    5.51    1.31  1.0000
  -7   0   1      82      43                                                          45    5.52    1.15  1.0000
  -7   1  -1       2      37                                                          -5    2.84   -1.44  1.0000
   1   7  -1       2      36                                                         -20    3.00   -0.71  1.0000
   7  -1  -1       1      46                                                         -38    2.66   -0.52  1.0000
   7  -1   1       2      59                                                         -55    2.84    1.44  1.0000
  -7   1   1      33      46                                                          21    2.66    0.52  1.0000
   7  -1   1       2      44                                                         -21    2.84    1.44  1.0000
   1   7   1      64      85                                                          46    2.88    1.18  1.0000
   1   7   1      23      37                                                          13    2.88    1.18  1.0000
   1   7   1      65      51                                                          47    2.88    1.18  1.0000
   2   7  -1     498      67                                                         460    2.02   -0.62  1.0000
   7  -2   1     457      60                                                         420    2.11    0.22  1.0000
  -7   2   1     646      84                                                         606    1.90   -0.10  1.0000
   2   7   1     553      96                                                         515    1.99   -0.46  1.0000
   2   7   1     634      97                                                         593    1.99   -0.46  1.0000
   3   7  -1     217      39                                                         193    1.96   -0.31  1.0000
  -7   3  -1     245      43                                                         220    1.92   -0.29  1.0000
  -7   3   1     252      49                                                         227    1.92    0.25  1.0000
   3   7   1     220      56                                                         196    1.99    0.23  1.0000
   4   7  -1     160      37                                                         126   -3.34   -0.07  1.0000
  -7   4  -1     167      41                                                         131   -3.54   -0.12  1.0000
   4   7   1     184      56                                                         147   -3.41   -0.11  1.0000
  -7   4   1     122      46                                                          92   -3.42    0.04  1.0000
  -7   5  -1       2      39                                                          -4   -3.41   -0.50  1.0000
   5   7  -1       2      34                                                         -46   -3.37   -0.43  1.0000
  -7   5   1      20      47                                                          34   -3.30   -0.12  1.0000
   5   7   1       2      52                                                         -50   -3.47   -0.20  1.0000
   6   7  -1       0      11                                                         -32    1.23   -0.18  1.0000
  -7   6  -1      14      45                                                          17    0.90   -1.08  1.0000
  -7   6   1      17      49                                                          20    0.71    1.84  1.0000
   6   7   1      50      60                                                          55    0.57    1.82  1.0000
   7   7  -1     325      61                                                         331   -0.43   -0.46  1.0000
  -7   7  -1     188      49                                                         192   -0.37   -1.18  1.0000
   7   7   1     363      67                                                         369   -0.42    0.82  1.0000
   8   7  -1       8      47                                                          18   -3.30    0.45  1.0000
  -7   8  -1      15      50                                                          28   -3.35    0.54  1.0000
   8   7   1      62      61                                                          87   -3.36   -1.15  1.0000
   8   6  -1     114      43                                                         158   -4.44   -0.09  1.0000
  -6   8  -1      75      47                                                         110   -4.33   -0.06  1.0000
   8   6   1      83      57                                                         119   -4.23    0.47  1.0000
  -5   8  -1     556      81                                                         557   -0.04    0.37  1.0000
   8   5  -1     600      66                                                         601   -0.03   -0.03  1.0000
  -5   8   1     521      85                                                         521    0.03   -0.25  1.0000
   8   5   1     669      89                                                         667    0.14   -0.66  1.0000
  -4   8  -1    4082     153                                                        3848   -4.40    0.13  1.0000
  -4   8  -1    4115     188                                                        3880   -4.40    0.13  1.0000
  -4   8   1    3945     168                                                        3730   -4.13    0.11  1.0000
   8   4   1    4147     158                                                        3928   -4.06   -0.76  1.0000
  -4   8   1    3906     183                                                        3692   -4.13    0.11  1.0000
  -3   8  -1      39      40                                                          39   -2.79   -3.93  1.0000
   8   3   1     100      49                                                          84   -2.28    0.79  1.0000
  -3   8   1       1      79                                                         -17   -2.51    0.69  1.0000
  -8  -3   1       4      38                                                         -16   -2.75    3.94  1.0000
  -3   8   1     100      54                                                          82   -2.51    0.69  1.0000
  -2   8  -1       6      39                                                         -12   -0.03   -5.72  1.0000
   8   2   1       4      47                                                          17    0.02    5.48  1.0000
  -2   8   1      54      85                                                          95   -0.16    5.74  1.0000
  -8  -2   1       6      41                                                         -52   -0.01    5.95  1.0000
  -2   8   1      19      54                                                          45   -0.16    5.74  1.0000
  -1   8  -1     375      69                                                         398    1.39    0.35  1.0000
  -1   8   1     356      91                                                         379    1.46   -0.45  1.0000
  -1   8   1     298      56                                                         319    1.46   -0.45  1.0000
   8   1   1     262      48                                                         281    1.37   -0.18  1.0000
  -8  -1   1     209      45                                                         225    1.29   -0.68  1.0000
   0   8  -1     576      74                                                         550   -1.59   -3.48  1.0000
  -8   0   1     582      82                                                         550   -1.73    2.14  1.0000
   0   8   1     653     100                                                         623   -1.43    0.09  1.0000
   0   8   1     599      93                                                         570   -1.43    0.09  1.0000
  -8   1  -1     160      42                                                         141   -1.93   -1.11  1.0000
   1   8  -1      28      31                                                          18   -2.43   -1.18  1.0000
   8  -1  -1      55      50                                                          43   -2.09   -0.54  1.0000
   8  -1   1      85      48                                                          71   -1.93    1.11  1.0000
  -8   1   1      77      49                                                          62   -2.09    0.54  1.0000
   8  -1   1     180      63                                                         159   -1.93    1.11  1.0000
   1   8   1     138      39                                                         117   -2.18    0.41  1.0000
   1   8   1      95      99                                                          78   -2.18    0.41  1.0000
   1   8   1     154      57                                                         132   -2.18    0.41  1.0000
  -8   2  -1     143      43                                                         165   -2.14   -0.48  1.0000
   2   8   1     245      61                                                         274   -2.08   -0.38  1.0000
   8  -2   1     164      52                                                         188   -2.14    0.48  1.0000
   2   8   1     387     107                                                         423   -2.08   -0.38  1.0000
  -8   2   1     155      52                                                         179   -2.23   -0.15  1.0000
  -8   3   1     314      55                                                         316   -0.17    0.31  1.0000
   3   8   1     516      65                                                         519   -0.14   -0.23  1.0000
   8  -3   1     329      57                                                         334   -0.30    0.04  1.0000
   3   8   1     277     105                                                         279   -0.14   -0.23  1.0000
  -8   4  -1     220      46                                                         176   -3.74    0.27  1.0000
   4   8   1     265      94                                                         217   -3.68   -0.61  1.0000
   4   8   1     281      62                                                         231   -3.68   -0.61  1.0000
  -8   4   1     194      51                                                         154   -3.58   -0.48  1.0000
  -8   5  -1      54      44                                                          64   -1.60    0.49  1.0000
   5   8  -1       1      24                                                          -7   -1.76    0.66  1.0000
  -8   5   1       1      49                                                         -52   -1.67   -0.49  1.0000
   5   8   1       0      60                                                         -64   -1.55   -0.33  1.0000
   6   8  -1    2464     119                                                        2551    2.02   -0.84  1.0000
  -8   6  -1    2500     133                                                        2590    2.08   -0.80  1.0000
  -8   6   1    2676     136                                                        2769    2.05    1.06  1.0000
   6   8   1    2674     145                                                        2774    2.23    0.85  1.0000
  -8   7  -1     200      52                                                         145    5.03    0.22  1.0000
   7   8   1     124      68                                                          81    5.04    0.76  1.0000
  -8   7   1      39      44                                                          17    4.93    0.62  1.0000
  -8   8  -1      62      54                                                          67   -0.68    0.49  1.0000
   8   8   1      91      70                                                          98   -0.82   -1.00  1.0000
  -8   8   1       0      40                                                         -70   -0.69   -1.06  1.0000
  -8   9  -1     274      60                                                         297    1.56   -1.18  1.0000
   9   8   1     321      74                                                         345    1.51    0.92  1.0000
  -8   9   1     276      72                                                         298    1.55    0.40  1.0000
  -7   9  -1      39      52                                                          32    1.36   -1.21  1.0000
   9   7   1     197      64                                                         180    1.47    0.33  1.0000
  -7   9   1      83      48                                                          72    1.41    0.47  1.0000
   9   6  -1     125      46                                                         125   -0.05   -1.78  1.0000
  -6   9  -1     141      50                                                         141   -0.05   -1.33  1.0000
  -6   9   1      17      21                                                          16    0.20    0.53  1.0000
   9   6   1      51      56                                                          50    0.17    0.27  1.0000
  -5   9  -1      61      48                                                          76   -2.20   -1.19  1.0000
   9   5   1      45      55                                                          58   -2.11    0.13  1.0000
  -5   9   1      37      54                                                          49   -2.23    0.37  1.0000
  -4   9  -1     273      50                                                         258    1.03   -0.82  1.0000
  -4   9  -1     495     102                                                         475    1.03   -0.82  1.0000
   9   4   1     292      59                                                         276    1.09    0.41  1.0000
  -4   9   1     240      64                                                         225    1.12    0.58  1.0000
  -4   9   1     370     103                                                         352    1.12    0.58  1.0000
  -3   9  -1     647      98                                                         665   -0.86   -1.39  1.0000
  -3   9  -1     394      53                                                         408   -0.86   -1.39  1.0000
   9   3   1     418      60                                                         433   -0.89    1.23  1.0000
  -9  -3   1     444      78                                                         460   -0.94    1.87  1.0000
  -3   9   1     522     100                                                         541   -1.03    1.72  1.0000
  -3   9   1     474      68                                                         492   -1.03    1.72  1.0000
  -2   9  -1     253      49                                                         274    1.33   -2.73  1.0000
  -2   9   1     262      64                                                         286    1.64    1.47  1.0000
  -2   9   1     446     100                                                         477    1.64    1.47  1.0000
   9   2   1     288      54                                                         310    1.39    1.60  1.0000
  -9  -2   1     415      81                                                         444    1.48    2.76  1.0000
  -1   9  -1       0      44                                                         -14   -0.39   -0.47  1.0000
  -1   9   1      57      93                                                          58   -0.18    1.13  1.0000
  -9  -1   1       6      48                                                           5   -0.32    0.07  1.0000
  -1   9   1       0      55                                                         -33   -0.18    1.13  1.0000
   0   9  -1      95      47                                                          74   -2.83    1.68  1.0000
  -9   0   1      20      51                                                          12   -2.50   -2.17  1.0000
   0   9   1       2      97                                                         -56   -2.44   -2.59  1.0000
   0   9   1      48      58                                                          37   -2.44   -2.59  1.0000
  -9   1  -1      31      47                                                          39   -1.66    0.51  1.0000
   1   9  -1       1      46                                                         -14   -1.76   -0.26  1.0000
   1   9   1      75      41                                                          88   -1.71   -0.81  1.0000
   1   9   1      47      59                                                          58   -1.71   -0.81  1.0000
   9  -1   1       1      52                                                         -52   -1.66   -0.51  1.0000
   1   9   1       1     113                                                          -3   -1.71   -0.81  1.0000
  -9   1   1       0      53                                                         -24   -1.64   -0.19  1.0000
   2   9  -1      26      48                                                          23   -0.71    1.61  1.0000
  -9   2  -1     194      52                                                         188   -0.47    0.92  1.0000
   2   9   1     189     122                                                         185   -0.42    1.10  1.0000
  -9   2   1      11      55                                                          10   -0.43    0.41  1.0000
   2   9   1      99      64                                                          96   -0.42    1.10  1.0000
   9  -2   1     128      51                                                         123   -0.47   -0.92  1.0000
   3   9  -1    1059      92                                                         990    2.53   -0.76  1.0000
   3   9   1    1099     133                                                        1023    2.82   -0.63  1.0000
   9  -3   1     980      72                                                         916    2.45    0.28  1.0000
  -9   3   1    1067     101                                                         996    2.65   -0.26  1.0000
   3   9   1    1144     115                                                        1066    2.82   -0.63  1.0000
   4   9  -1      14      49                                                           9    1.58   -0.63  1.0000
  -9   4  -1       8       7                                                           5    1.45   -0.37  1.0000
  -9   4   1      35      55                                                          26    1.94   -0.33  1.0000
   4   9   1      17      16                                                          11    1.83   -0.50  1.0000
   4   9   1      88      65                                                          74    1.83   -0.50  1.0000
  -9   5  -1      29      10                                                          21    2.33    0.80  1.0000
   5   9  -1       1      48                                                         -26    2.45    0.35  1.0000
   5   9   1       1      66                                                           0    2.47   -0.61  1.0000
  -9   5   1       1      54                                                         -94    2.44   -0.36  1.0000
  -9   6  -1     301      56                                                         306   -0.39   -1.63  1.0000
   6   9   1     317      70                                                         321   -0.29    0.47  1.0000
  -9   6   1     252      58                                                         258   -0.47    0.14  1.0000
  -9   7  -1       2      54                                                         -52    2.32   -1.97  1.0000
  -9   7   1       1      60                                                          -5    2.10    1.34  1.0000
   7   9   1     106      75                                                          87    2.23    1.39  1.0000
  -9   8  -1     109      61                                                         114    0.59   -0.28  1.0000
  -9   8   1     100      65                                                         105    0.56   -0.59  1.0000
   8   9   1     182      80                                                         187    0.45   -0.14  1.0000
  -9   9  -1       4      60                                                         -32   -4.86   -0.26  1.0000
  -9   9   1      11      67                                                          29   -4.79    0.76  1.0000
   9   9   1      35      73                                                          64   -4.90    0.86  1.0000
  -9  10  -1       2      60                                                         -13    1.76   -3.12  1.0000
  -9  10   1      28      72                                                          43    1.88    2.23  1.0000
  10   9   1       1      70                                                         -34    2.00    1.89  1.0000
  -8  10  -1      19      57                                                          29    2.36    0.10  1.0000
  10   8   1       1      67                                                         -64    2.19   -0.20  1.0000
  -8  10   1       1      71                                                           4    2.05   -0.08  1.0000
  -7  10  -1       0      57                                                           1    0.77   -2.19  1.0000
  10   7   1       0      64                                                         -44    0.79   -1.48  1.0000
  -7  10   1       0      71                                                         -32    0.75   -1.41  1.0000
  -6  10  -1     484      61                                                         421   -3.49    0.26  1.0000
  -6  10   1     369      76                                                         316   -3.41    0.13  1.0000
  10   6   1     256      66                                                         212   -3.42   -0.59  1.0000
  -5  10  -1     164      54                                                         145   -1.80    0.37  1.0000
  10   5   1     153      66                                                         137   -1.64    0.33  1.0000
  -5  10   1     111      70                                                          97   -1.67    0.42  1.0000
  -4  10  -1     117      54                                                         112    0.62    0.88  1.0000
  -4  10   1     149     109                                                         145    0.37   -0.42  1.0000
 -10  -4   1      68      51                                                          64    0.58   -0.72  1.0000
  -4  10   1     100      69                                                          97    0.37   -0.42  1.0000
  10   4   1     228      62                                                         223    0.43   -0.69  1.0000
  -3  10  -1     103      98                                                         110   -0.84   -0.06  1.0000
  -3  10  -1      52      52                                                          57   -0.84   -0.06  1.0000
  -3  10   1     124      67                                                         128   -0.47    0.18  1.0000
  10   3   1     108      59                                                         114   -0.66    0.10  1.0000
  -3  10   1     213     100                                                         219   -0.47    0.18  1.0000
 -10  -3   1      42      54                                                          45   -0.55    0.24  1.0000
  -2  10  -1      12      51                                                          25   -3.63   -1.30  1.0000
  -2  10   1      24     102                                                          44   -3.89    2.58  1.0000
  -2  10   1      36      67                                                          60   -3.89    2.58  1.0000
 -10  -2   1       4      53                                                          13   -3.90    1.69  1.0000
  10   2   1      27      54                                                          47   -3.71    2.14  1.0000
  -1  10  -1     400      56                                                         400   -0.07   -1.45  1.0000
 -10  -1   1     353      59                                                         351    0.11    0.96  1.0000
  -1  10   1     423     111                                                         421    0.09    1.61  1.0000
  -1  10   1     476      70                                                         473    0.09    1.61  1.0000
   0  10  -1    2623     129                                                        2590   -0.74    0.76  1.0000
 -10   0  -1    2478     133                                                        2438   -0.93    0.72  1.0000
   0  10   1    2825     178                                                        2788   -0.83    0.19  1.0000
   0  10   1    2805     145                                                        2769   -0.83    0.19  1.0000
 -10   0   1    2861     141                                                        2827   -0.78    0.22  1.0000
 -10   1  -1       0      56                                                         -19   -0.33    0.62  1.0000
   1  10  -1       0      50                                                         -26   -0.40   -0.13  1.0000
 -10   1   1      42      60                                                          45   -0.49    0.27  1.0000
   1  10   1       0     122                                                         -43   -0.40   -0.49  1.0000
  10  -1   1      25      52                                                          27   -0.33   -0.62  1.0000
   1  10   1       0      64                                                          -6   -0.40   -0.49  1.0000
 -10   2  -1      29      55                                                          33   -0.89   -0.28  1.0000
   2  10  -1      98      55                                                         105   -0.84   -1.09  1.0000
   2  10   1      61      69                                                          68   -0.96   -0.53  1.0000
   2  10   1      19     136                                                          23   -0.96   -0.53  1.0000
  10  -2   1       6      53                                                           8   -0.89    0.28  1.0000
 -10   2   1      25      62                                                          29   -0.95    0.30  1.0000
   3  10  -1     190      59                                                         193    0.20   -0.47  1.0000
   3  10   1     233      73                                                         240    0.50    0.74  1.0000
 -10   3   1     202      64                                                         207    0.41    0.54  1.0000
   3  10   1     437     142                                                         447    0.50    0.74  1.0000
 -10   4  -1      44       9                                                          22   -4.67   -1.01  1.0000
   4  10  -1     131      62                                                          93   -4.59   -1.84  1.0000
 -10   4   1      48      61                                                          25   -4.61   -1.92  1.0000
   4  10   1       5      66                                                          -5   -4.59   -2.81  1.0000
   4  10   1     116      71                                                          79   -4.59   -2.81  1.0000
   5  10   1       4      21                                                         -12   -4.59   -0.62  1.0000
   5  10   1     125      72                                                          85   -4.59   -0.62  1.0000
 -10   5   1     139      63                                                          97   -4.56   -0.13  1.0000
 -10   6  -1      66      58                                                          89   -3.05   -0.38  1.0000
   6  10   1      33      72                                                          52   -3.38   -0.53  1.0000
 -10   6   1      93      65                                                         124   -3.49   -0.99  1.0000
   6  10   1     130     118                                                         165   -3.38   -0.53  1.0000
 -10   7  -1      99      63                                                          88    1.38   -1.20  1.0000
 -10   7   1      27      62                                                          21    1.37    1.03  1.0000
   7  10   1     126      79                                                         112    1.48    1.04  1.0000
 -10   8  -1      28      61                                                          32    1.13    2.69  1.0000
   8  10   1     145      81                                                         154    0.91   -1.23  1.0000
 -10   8   1     100      65                                                         107    0.80   -0.63  1.0000
 -10   9  -1       0      64                                                         -57   -1.24   -0.73  1.0000
   9  10   1       0      76                                                         -55   -1.04    0.13  1.0000
 -10   9   1       0      66                                                         -47   -0.89   -0.42  1.0000
 -10  10  -1     215      68                                                         184   -2.55    0.67  1.0000
  10  10   1     278      78                                                         239   -2.86   -0.08  1.0000
 -10  10   1     128      72                                                         103   -2.77    0.41  1.0000
 -10  11  -1     116      68                                                          91    4.19    2.21  1.0000
  11  10   1       7      75                                                           1    3.87    0.28  1.0000
 -10  11   1       3      75                                                        -119    3.85    0.91  1.0000
  -9  11  -1      90      67                                                          88    0.18   -0.52  1.0000
  11   9   1      21      70                                                          21   -0.10    0.55  1.0000
  -9  11   1     205      77                                                         204    0.04    0.66  1.0000
  -8  11  -1      57      63                                                          43   -2.39   -0.64  1.0000
  -8  11   1     110      78                                                          91   -2.29    1.00  1.0000
  11   8   1      58      69                                                          44   -2.40    1.29  1.0000
  -7  11  -1      33      61                                                          51   -2.86    1.89  1.0000
  -7  11   1       2      75                                                         -93   -3.12   -0.13  1.0000
  11   7   1      19      74                                                          32   -3.08    0.04  1.0000
  -6  11  -1       1      60                                                         -62   -2.01   -1.07  1.0000
  -6  11   1       1      77                                                         -37   -1.94    1.74  1.0000
  11   6   1       2      71                                                           6   -2.03    1.97  1.0000
  -5  11  -1      31      60                                                          62   -5.37    1.04  1.0000
  11   5   1      36      70                                                          69   -5.42    0.49  1.0000
 -11  -5   1      19      55                                                          44   -5.33   -0.65  1.0000
  -5  11   1      81      80                                                         128   -5.42    0.81  1.0000
  -4  11  -1     336      63                                                         297   -2.64   -0.15  1.0000
  11   4   1     356      72                                                         315   -2.67   -0.34  1.0000
  -4  11   1     429      82                                                         383   -2.70   -0.32  1.0000
 -11  -4   1     239      62                                                         205   -2.72    0.57  1.0000
  -3  11  -1      72     115                                                          83   -1.49    0.15  1.0000
  -3  11  -1     163      59                                                         180   -1.49    0.15  1.0000
  -3  11   1     142     106                                                         160   -1.70   -0.44  1.0000
  11   3   1     140      62                                                         156   -1.53   -0.40  1.0000
  -3  11   1     112      76                                                         128   -1.70   -0.44  1.0000
 -11  -3   1     110      61                                                         122   -1.36   -0.09  1.0000
  -2  11  -1     108      57                                                         120   -1.37   -0.97  1.0000
  -2  11  -1     201     109                                                         217   -1.37   -0.97  1.0000
 -11  -2   1       1      60                                                          -9   -1.48    1.87  1.0000
  -2  11   1     112      72                                                         125   -1.44    2.28  1.0000
  -2  11   1      67     110                                                          77   -1.44    2.28  1.0000
  -1  11  -1       2      55                                                          -2    3.06    0.67  1.0000
  -1  11   1      10      69                                                           4    2.74   -1.39  1.0000
  -1  11   1      58     117                                                          43    2.74   -1.39  1.0000
 -11  -1   1      34      61                                                          22    2.77   -1.18  1.0000
 -11   0  -1     217      60                                                         224   -0.63   -1.34  1.0000
   0  11  -1     171      57                                                         180   -0.84   -1.63  1.0000
 -11   0   1     274      67                                                         283   -0.70    1.89  1.0000
   0  11   1     215     131                                                         225   -0.84    1.53  1.0000
   0  11   1     190      72                                                         199   -0.84    1.53  1.0000
 -11   1  -1     230      65                                                         215    1.21    0.48  1.0000
   1  11  -1     276      59                                                         259    1.31    1.25  1.0000
  11  -1   1     162      57                                                         150    1.21   -0.48  1.0000
   1  11   1     279      73                                                         267    0.95   -1.28  1.0000
 -11   1   1     259      70                                                         246    1.14   -1.84  1.0000
   1  11   1     172     138                                                         163    0.95   -1.28  1.0000
 -11   2  -1     246      67                                                         255    0.66   -0.44  1.0000
   2  11  -1     201      61                                                         210    0.74   -0.40  1.0000
   2  11   1     270     147                                                         280    0.75   -0.79  1.0000
   2  11   1     368      78                                                         380    0.75   -0.79  1.0000
  11  -2   1     161      59                                                         168    0.66    0.44  1.0000
 -11   2   1     291      72                                                         300    0.66   -0.83  1.0000
 -11   3  -1       0      61                                                        -135   -1.34   -0.25  1.0000
 -11   3   1       0      68                                                         -25   -1.60   -0.11  1.0000
   3  11   1      44      74                                                          53   -1.48    0.09  1.0000
   3  11   1      42     147                                                          51   -1.48    0.09  1.0000
 -11   4  -1       1      57                                                         -46    1.16   -1.47  1.0000
 -11   4   1       1      67                                                         -21    1.48   -1.34  1.0000
   4  11   1     147     151                                                         163    1.49   -0.76  1.0000
   4  11   1       0      75                                                        -128    1.49   -0.76  1.0000
 -11   5  -1      27      61                                                          16    2.99    0.87  1.0000
   5  11   1      43     144                                                          29    2.99   -1.61  1.0000
   5  11   1      54      77                                                          38    2.99   -1.61  1.0000
 -11   5   1     101      71                                                          78    2.99   -1.37  1.0000
 -11   6  -1      36      63                                                          56    3.27    2.29  1.0000
 -11   6   1       2      68                                                         -28    3.37    0.23  1.0000
   6  11   1      44     137                                                          64    3.22    0.04  1.0000
   6  11   1       2      74                                                        -136    3.22    0.04  1.0000
 -11   7  -1       8      65                                                         -19    6.73    0.79  1.0000
   7  11   1       8     134                                                         -17    6.63   -0.57  1.0000
 -11   7   1       8      64                                                         -57    6.61   -0.34  1.0000
   7  11   1       8      77                                                         -29    6.63   -0.57  1.0000
 -11   8  -1      37      65                                                          13    5.95   -0.38  1.0000
 -11   8   1       7      69                                                         -62    6.08    1.57  1.0000
   8  11   1       6      83                                                         -34    5.91    0.82  1.0000
 -11   9  -1       3      68                                                         -70   -0.63    4.25  1.0000
   9  11   1       1      82                                                        -103   -1.28   -2.47  1.0000
 -11   9   1      56      71                                                          74   -0.93   -2.89  1.0000
 -11  10  -1     134      72                                                         153   -1.91   -0.63  1.0000
 -11  10   1     156      76                                                         176   -1.87    1.12  1.0000
  10  11   1      68      83                                                          82   -2.01    1.16  1.0000
 -11  11  -1       4      70                                                         -71    3.29    3.75  1.0000
 -11  11   1      55      81                                                          50    2.48   -1.76  1.0000
 -11  12  -1      97      76                                                          90   -0.91   -0.48  1.0000
 -11  12   1      59      84                                                          53   -1.07    0.53  1.0000
 -10  12  -1      28      71                                                          45   -3.00    2.14  1.0000
 -10  12   1      51      85                                                          72   -3.13   -0.66  1.0000
  -9  12  -1      74      70                                                         141   -7.04   -3.40  1.0000
  12   9   1       3      84                                                          23   -6.78    3.88  1.0000
  -9  12   1       1      82                                                          16   -6.91    4.08  1.0000
  -8  12  -1      30      68                                                          51   -4.03   -0.22  1.0000
  12   8   1      43      80                                                          68   -3.93    1.73  1.0000
  -8  12   1       1      82                                                           1   -3.80    1.23  1.0000
  -7  12  -1     145      67                                                         181   -3.36    0.32  1.0000
  -7  12   1     128      87                                                         160   -3.19    0.26  1.0000
  12   7   1     186      79                                                         224   -3.18    0.19  1.0000
  -6  12  -1     474      70                                                         403   -4.06   -0.04  1.0000
  12   6   1     397      79                                                         328   -4.30   -0.58  1.0000
  -6  12   1     417      90                                                         347   -4.23   -0.62  1.0000
  -5  12  -1       0      63                                                           5   -5.91   -1.75  1.0000
  -5  12   1      44      84                                                          83   -5.73    1.45  1.0000
  12   5   1      66      75                                                         113   -5.84    1.39  1.0000
  -4  12  -1      47      65                                                          87   -5.46    2.22  1.0000
  12   4   1       6      68                                                         -16   -5.71   -0.78  1.0000
 -12  -4   1       6      63                                                         -63   -5.72   -1.22  1.0000
  -4  12   1     115      83                                                         175   -5.96   -0.03  1.0000
  -3  12  -1      89     122                                                         111    2.66    0.72  1.0000
  -3  12  -1      46      65                                                          62    2.66    0.72  1.0000
  -3  12   1      19      83                                                          33    3.10   -2.59  1.0000
  -3  12   1      49     120                                                          70    3.10   -2.59  1.0000
 -12  -3   1      43      66                                                          60    2.90   -0.98  1.0000
  -2  12  -1     381     122                                                         346   -2.19    0.17  1.0000
  -2  12  -1     306      68                                                         274   -2.19    0.17  1.0000
  -2  12   1     170     115                                                         146   -2.21   -0.32  1.0000
 -12  -2   1     140      68                                                         119   -2.23    0.35  1.0000
  -2  12   1     241      79                                                         213   -2.21   -0.32  1.0000
 -12  -1  -1       1      64                                                         -63   -1.47   -0.81  1.0000
  -1  12  -1      95      64                                                          83   -1.58   -1.34  1.0000
 -12  -1   1      57      70                                                          47   -1.76    1.09  1.0000
  -1  12   1      57      77                                                          47   -1.71    0.58  1.0000
  -1  12   1     352     127                                                         326   -1.71    0.58  1.0000
   0  12  -1      31      60                                                          32   -0.14    0.44  1.0000
 -12   0  -1      14      72                                                          15   -0.19    1.16  1.0000
 -12   0   1      36      73                                                          37   -0.17   -0.97  1.0000
   0  12   1      53      66                                                          58   -0.56   -1.92  1.0000
   0  12   1      33      76                                                          37   -0.56   -1.92  1.0000
   0  12   1      25     135                                                          28   -0.56   -1.92  1.0000
 -12   1  -1     229      73                                                         259   -2.17   -2.55  1.0000
   1  12  -1      83      64                                                         101   -2.17   -2.52  1.0000
   1  12   1      98      78                                                         117   -2.12    2.37  1.0000
   1  12   1      33     150                                                          44   -2.12    2.37  1.0000
 -12   1   1      50      75                                                          64   -2.13    2.62  1.0000
  12  -1   1      52      61                                                          66   -2.17    2.55  1.0000
 -12   2  -1      13      71                                                          16    0.77    0.71  1.0000
   2  12   1      68      81                                                          78    0.80   -2.33  1.0000
 -12   2   1      68      77                                                          76    0.67   -2.01  1.0000
   2  12   1       1     160                                                        -193    0.80   -2.33  1.0000
  12  -2   1       0      59                                                         -12    0.77   -0.71  1.0000
 -12   3  -1      64      70                                                          55    1.42    0.63  1.0000
 -12   3   1      62      78                                                          53    1.34    0.26  1.0000
   3  12   1     122     160                                                         110    1.34   -0.10  1.0000
   3  12   1       0      79                                                         -48    1.34   -0.10  1.0000
 -12   4  -1     609      80                                                         654    2.11   -0.59  1.0000
   4  12   1     724     132                                                         769    1.94    0.24  1.0000
   4  12   1     877     164                                                         926    1.94    0.24  1.0000
 -12   4   1     986     133                                                        1043    2.14   -0.27  1.0000
 -12   5  -1      77      67                                                          63    2.24    1.43  1.0000
 -12   5   1     105      76                                                          86    2.55   -1.09  1.0000
   5  12   1      31     152                                                          22    2.53   -1.77  1.0000
   5  12   1       2      77                                                         -13    2.53   -1.77  1.0000
 -12   6  -1      79      71                                                         112   -3.93    0.88  1.0000
 -12   6   1       0      75                                                           5   -4.26   -1.74  1.0000
   6  12   1       0      76                                                           4   -4.27   -1.69  1.0000
   6  12   1     236     137                                                         297   -4.27   -1.69  1.0000
 -12   7  -1      63      71                                                          55   -1.35   -1.43  1.0000
   7  12   1      47      79                                                          39   -1.62    1.22  1.0000
 -12   7   1      16      74                                                          12   -1.43    1.65  1.0000
   7  12   1     200     144                                                         183   -1.62    1.22  1.0000
 -12   8  -1       1      70                                                         -35    1.88    0.44  1.0000
   8  12   1       3     141                                                           6    1.56   -0.47  1.0000
   8  12   1       0      85                                                        -179    1.56   -0.47  1.0000
 -12   8   1       3      74                                                           6    1.59   -0.27  1.0000
 -12   9  -1      48      73                                                          32   -3.10   -0.78  1.0000
   9  12   1       2      93                                                         -76   -3.07    1.23  1.0000
   9  12   1     209     137                                                         175   -3.07    1.23  1.0000
 -12   9   1      68      76                                                          50   -2.82    0.88  1.0000
 -12  10  -1      51      76                                                          71   -2.95   -0.77  1.0000
 -12  10   1      26      81                                                          41   -3.02    0.11  1.0000
  10  12   1       2     130                                                        -172   -3.12    0.48  1.0000
 -12  11  -1      51      76                                                          66   -1.32   -3.73  1.0000
  11  12   1      77     139                                                          92   -1.42    2.68  1.0000
 -12  11   1       2      84                                                          -4   -1.44    2.90  1.0000
 -12  12  -1       0      80                                                          -2   -1.35    0.11  1.0000
 -12  12   1      82      88                                                          73   -1.53    1.10  1.0000
  12  12   1       1     140                                                        -159   -1.69    0.97  1.0000
 -11  13  -1      82      80                                                         149   -7.42   -0.76  1.0000
 -11  13   1      21      90                                                          61   -7.70    0.63  1.0000
 -10  13  -1      95      75                                                          59   -4.94   -0.32  1.0000
 -10  13   1       5      92                                                         -35   -5.11    0.54  1.0000
  -9  13  -1      88      73                                                          74   -1.78    0.40  1.0000
  -9  13   1       1      91                                                         -59   -1.95    0.43  1.0000
  -8  13  -1       2      70                                                         -55   -2.50   -1.53  1.0000
  -8  13   1      28      90                                                          40   -2.49    1.57  1.0000
  13   8   1      90      83                                                         112   -2.52    1.45  1.0000
  -7  13  -1      13      69                                                          32   -3.94    3.36  1.0000
  -7  13   1       3      89                                                         -40   -3.75   -0.44  1.0000
  13   7   1      20      80                                                          37   -3.88   -0.17  1.0000
  -6  13  -1      57      69                                                          74   -2.55    0.01  1.0000
  13   6   1       1      77                                                         -34   -2.68   -0.71  1.0000
  -6  13   1      74      90                                                          97   -2.92    0.03  1.0000
  -5  13  -1     135      72                                                         155   -2.06   -1.42  1.0000
  13   5   1     107      72                                                         124   -1.99    1.27  1.0000
  -5  13   1     282      91                                                         309   -1.91    0.75  1.0000
  -4  13  -1     143      71                                                         121   -2.38   -1.46  1.0000
  -4  13   1     146      88                                                         125   -2.26    1.58  1.0000
  -3  13  -1      29      69                                                          38   -1.65    1.13  1.0000
  -3  13   1       1      83                                                         -41   -1.71   -2.15  1.0000
 -13  -3   1       1      68                                                        -108   -1.52   -0.89  1.0000
 -13  -2  -1       0      70                                                           4   -5.48   -2.62  1.0000
  -2  13  -1       7      67                                                         -47   -5.75   -2.67  1.0000
  -2  13  -1       7     125                                                         -58   -5.75   -2.67  1.0000
 -13  -2   1       1      70                                                          11   -5.60    2.05  1.0000
  -2  13   1       6     114                                                         -52   -5.35    1.83  1.0000
  -2  13   1      60      82                                                         102   -5.35    1.83  1.0000
  -1  13  -1       0      66                                                         -63   -0.82    0.99  1.0000
  -1  13  -1     129     124                                                         138   -0.82    0.99  1.0000
 -13  -1  -1       0      73                                                         -22   -1.03    0.83  1.0000
 -13  -1   1      17      72                                                          21   -0.97   -0.98  1.0000
  -1  13   1      41      81                                                          48   -1.13   -0.87  1.0000
  -1  13   1       0     119                                                         -35   -1.13   -0.87  1.0000
 -13   0  -1       1      76                                                          -2   -2.09    1.74  1.0000
   0  13  -1     103      68                                                          85   -2.17    0.25  1.0000
   0  13   1      37      81                                                          27   -2.03   -2.08  1.0000
   0  13   1     299      69                                                         270   -2.03   -2.08  1.0000
   0  13   1     161     143                                                         140   -2.03   -2.08  1.0000
 -13   0   1     162      79                                                         139   -2.15   -0.62  1.0000
 -13   1  -1       0      77                                                         -29   -0.30    1.10  1.0000
   1  13   1     101     153                                                         110   -0.53   -1.70  1.0000
   1  13   1       1      78                                                        -107   -0.53   -1.70  1.0000
  13  -1   1      41      56                                                          44   -0.30   -1.10  1.0000
 -13   1   1      57      81                                                          62   -0.51   -1.14  1.0000
 -13   2  -1       0      76                                                         -15    0.62   -0.35  1.0000
  13  -2   1       9      60                                                           7    0.62    0.35  1.0000
   2  13   1       2      84                                                           1    0.81   -1.01  1.0000
   2  13   1       0     159                                                        -104    0.81   -1.01  1.0000
 -13   2   1       0      81                                                         -11    0.92   -1.30  1.0000
 -13   3  -1      32      79                                                          43   -0.85    3.55  1.0000
   3  13   1       0     162                                                          -2   -1.38   -0.31  1.0000
 -13   3   1       9      82                                                          13   -1.21   -0.81  1.0000
   3  13   1      30      82                                                          37   -1.38   -0.31  1.0000
 -13   4  -1      51      75                                                          54   -0.42    0.66  1.0000
   4  13   1       0     170                                                         -19   -0.76   -1.48  1.0000
   4  13   1     120      83                                                         128   -0.76   -1.48  1.0000
 -13   4   1      60      81                                                          66   -0.74   -1.54  1.0000
 -13   5  -1       1      74                                                         -48    2.28   -1.30  1.0000
   5  13   1      83     164                                                          65    2.51    0.66  1.0000
 -13   5   1       1      78                                                         -54    2.30    0.48  1.0000
   5  13   1      29      80                                                          19    2.51    0.66  1.0000
 -13   6  -1       5      78                                                          -4   -5.50   -0.01  1.0000
 -13   6   1     124      81                                                          76   -5.73   -0.66  1.0000
   6  13   1      72      79                                                          37   -5.70   -0.45  1.0000
   6  13   1     164     158                                                         108   -5.70   -0.45  1.0000
 -13   7  -1      20      78                                                          21   -0.33    0.28  1.0000
   7  13   1     105      83                                                         109   -0.52    0.10  1.0000
   7  13   1       0     152                                                         -23   -0.52    0.10  1.0000
 -13   7   1     125      80                                                         130   -0.49   -0.16  1.0000
 -13   8  -1       1      78                                                          11   -3.43   -3.88  1.0000
   8  13   1       5     148                                                        -203   -2.98    4.09  1.0000
 -13   8   1      23      80                                                          49   -3.09    4.31  1.0000
 -13   9  -1      68      81                                                          87   -2.54   -0.28  1.0000
   9  13   1      41     151                                                          56   -2.53   -0.74  1.0000
 -13   9   1      36      82                                                          50   -2.56   -0.85  1.0000
 -13  10  -1      17      81                                                          50   -6.37   -2.91  1.0000
  10  13   1       6     145                                                          28   -6.03    3.43  1.0000
 -13  10   1       4      84                                                          25   -6.11    4.12  1.0000
 -13  11  -1       0      81                                                         -20   -0.96   -0.51  1.0000
  11  13   1      65     153                                                          59   -1.13    0.98  1.0000
 -13  11   1     142      90                                                         134   -1.07    1.26  1.0000
 -10  14  -1       3      80                                                          12   -3.57    1.83  1.0000
 -10  14   1      63     101                                                          91   -3.55   -1.19  1.0000
  -9  14  -1       2      77                                                         -35   -1.74   -2.86  1.0000
  -9  14   1     174     100                                                         193   -1.63   -0.20  1.0000
  -8  14  -1     102      77                                                         108    0.61   -0.30  1.0000
  14   8   1      79      92                                                          83    0.31    1.41  1.0000
  -8  14   1      82      99                                                          84    0.16    1.00  1.0000
  -7  14  -1     101      75                                                          55   -6.27   -0.01  1.0000
  14   7   1      56      83                                                          24   -6.35    1.27  1.0000
  -7  14   1     128      97                                                          76   -6.46    1.34  1.0000
  -6  14  -1     134      80                                                         180   -4.32    0.44  1.0000
  14   6   1       1      75                                                           8   -4.47    0.12  1.0000
  -6  14   1      36      92                                                          62   -4.46   -0.37  1.0000
  -5  14  -1     143      79                                                         148    3.00   -3.17  1.0000
  -5  14   1       5      91                                                        -138    3.24   -4.02  1.0000
  -4  14  -1      15      78                                                          47   -6.83   -2.22  1.0000
  -4  14   1      37      90                                                          83   -6.90    2.02  1.0000
 -14  -3  -1     129      78                                                         123    0.64   -0.62  1.0000
  -3  14  -1     102      74                                                          97    0.63   -0.04  1.0000
  -3  14   1     139      86                                                         134    0.50    0.97  1.0000
  -2  14  -1     468      81                                                         404   -3.56    1.59  1.0000
 -14  -2  -1     256      82                                                         211   -3.47    1.23  1.0000
 -14  -2   1     307      79                                                         256   -3.54   -1.90  1.0000
  -2  14   1     291      89                                                         243   -3.44   -1.49  1.0000
  -1  14  -1      58     140                                                          82   -3.28   -1.21  1.0000
 -14  -1  -1       4      81                                                        -117   -3.33   -3.58  1.0000
  -1  14   1      58      85                                                          78   -2.85    0.88  1.0000
 -14  -1   1       2      77                                                          -9   -3.34   -1.45  1.0000
  -1  14   1      17     132                                                          28   -2.85    0.88  1.0000
 -14   0  -1      13      82                                                          -8    6.38    5.52  1.0000
   0  14  -1      12     144                                                        -153    6.48    5.23  1.0000
  14   0   1      18      58                                                          52    6.38   -5.52  1.0000
 -14   0   1      71      82                                                         119    6.27   -2.98  1.0000
   0  14   1       8     142                                                        -104    5.97   -2.90  1.0000
   0  14   1      12      85                                                          31    5.97   -2.90  1.0000
 -14   1  -1       0      81                                                        -114    1.22    0.77  1.0000
   1  14   1     213     161                                                         228    1.17   -1.17  1.0000
 -14   1   1       0      85                                                         -28    1.11   -0.85  1.0000
  14  -1   1      20      60                                                          25    1.22   -0.77  1.0000
   1  14   1       0      83                                                        -110    1.17   -1.17  1.0000
 -14   2  -1       7      84                                                          -9    5.96   -2.45  1.0000
   2  14   1      68      91                                                         121    6.35    1.90  1.0000
   2  14   1     337     170                                                         446    6.35    1.90  1.0000
 -14   2   1       8      87                                                         -43    6.53    1.53  1.0000
 -14   3  -1     106      84                                                         152    4.87    0.95  1.0000
 -14   3   1     111      88                                                         162    5.17   -1.56  1.0000
   3  14   1     188     182                                                         253    5.17   -1.66  1.0000
   3  14   1      40      85                                                          72    5.17   -1.66  1.0000
 -14   4  -1       8      84                                                           4    1.85   -0.82  1.0000
   4  14   1       1     167                                                        -294    1.71   -0.08  1.0000
 -14   4   1      65      84                                                          55    1.57   -0.58  1.0000
   4  14   1       1      85                                                         -27    1.71   -0.08  1.0000
 -14   5  -1      71      84                                                          38    7.57    1.21  1.0000
   5  14   1      10     164                                                         -40    7.36   -1.93  1.0000
   5  14   1      10      80                                                         -52    7.36   -1.93  1.0000
 -14   5   1      10      86                                                           0    7.42   -1.14  1.0000
 -14   6  -1      55      87                                                          82    3.83    1.10  1.0000
   6  14   1       4      80                                                         -48    4.28    1.35  1.0000
 -14   6   1       6      85                                                          18    4.39    1.05  1.0000
   6  14   1       4     166                                                        -285    4.28    1.35  1.0000
 -14   7  -1       5      87                                                         -25   -5.11   -0.28  1.0000
   7  14   1       5     161                                                         -30   -5.35   -0.54  1.0000
 -14   7   1       0      85                                                           3   -5.10   -0.50  1.0000
 -14   8  -1      70      85                                                          77    0.93    0.23  1.0000
 -14   8   1     161      86                                                         170    0.78    1.02  1.0000
   8  14   1     197     168                                                         206    0.76   -0.08  1.0000
 -14   9  -1       8      83                                                        -120   -6.75   -0.34  1.0000
 -14   9   1      53      85                                                         103   -6.81    1.11  1.0000
   9  14   1      70     165                                                         128   -6.97    0.62  1.0000
 -14  10  -1     124      89                                                         140   -0.28    2.78  1.0000
 -14  10   1       0      89                                                         -11   -0.66   -0.31  1.0000
  10  14   1       0     169                                                         -12   -0.81   -0.76  1.0000
  -8  15  -1      98      90                                                         140    0.25   -5.12  1.0000
  -8  15   1       0     100                                                         -38   -0.59   -0.27  1.0000
  -7  15  -1      39      87                                                          57   -1.89    3.58  1.0000
  -7  15   1      42      99                                                          58   -2.21    2.66  1.0000
  -6  15  -1     121      87                                                          63   -7.29    1.47  1.0000
  -6  15   1      10      99                                                         -45   -7.67    0.21  1.0000
  -5  15  -1      47      87                                                          74    3.98    1.61  1.0000
  -5  15   1      43      98                                                          67    3.88    0.17  1.0000
 -15  -4  -1      56      82                                                          54    0.38   -0.76  1.0000
  -4  15  -1      99      82                                                          99    0.23    1.19  1.0000
  -4  15   1      20      90                                                          20    0.07    1.66  1.0000
 -15  -3  -1       2      81                                                         -87   -1.54   -3.20  1.0000
  -3  15  -1      70      88                                                          81   -1.41   -1.08  1.0000
  -3  15   1       5      91                                                           9   -1.56    2.49  1.0000
 -15  -2  -1       8      87                                                          10   -0.94    0.16  1.0000
  -2  15   1       0      90                                                         -82   -0.79    0.45  1.0000
 -15  -2   1     121      86                                                         130   -0.94    0.34  1.0000
  -1  15  -1      41     144                                                          66   -3.87    1.76  1.0000
 -15  -1  -1     101      88                                                         136   -3.80    0.76  1.0000
  -1  15   1      70      93                                                         101   -3.86   -1.17  1.0000
  -1  15   1      41     136                                                          65   -3.86   -1.17  1.0000
 -15  -1   1      24      85                                                          44   -3.88   -2.21  1.0000
  -1  15   1     214      82                                                         265   -3.86   -1.17  1.0000
   0  15  -1     172     162                                                         190    1.64    0.23  1.0000
 -15   0  -1       2      89                                                           4    1.59    0.18  1.0000
  15   0   1      58      57                                                          69    1.59   -0.18  1.0000
   0  15   1     108     145                                                         124    1.81   -0.04  1.0000
 -15   0   1      72      87                                                          85    1.81    0.00  1.0000
   0  15   1      10      91                                                          15    1.81   -0.04  1.0000
   1  15  -1       1     171                                                         -54    2.22    1.79  1.0000
 -15   1  -1      54      90                                                          67    2.52    5.10  1.0000
  15  -1   1     122      61                                                         144    2.52   -5.10  1.0000
   1  15   1       1      88                                                         -37    2.20   -0.92  1.0000
 -15   1   1      60      91                                                          54    2.20    2.55  1.0000
   1  15   1      75     168                                                          62    2.20   -0.92  1.0000
 -15   2  -1      26      93                                                          53    1.77   -4.94  1.0000
 -15   2   1      45      93                                                          67    2.66   -2.27  1.0000
   2  15   1       4     173                                                          -9    2.95   -3.34  1.0000
   2  15   1       4      91                                                         -64    2.95   -3.34  1.0000
 -15   3  -1       0      91                                                         -68    1.24    0.29  1.0000
   3  15   1     132     183                                                         116    1.82    1.15  1.0000
 -15   3   1      27      90                                                          19    1.97    1.19  1.0000
   3  15   1       1      89                                                         -69    1.82    1.15  1.0000
 -15   4  -1       9      90                                                        -101   -5.91    4.21  1.0000
 -15   4   1      16      89                                                         -29   -6.85   -6.57  1.0000
   4  15   1      17      89                                                        -100   -6.78   -6.90  1.0000
   4  15   1      81     185                                                         148   -6.78   -6.90  1.0000
 -15   5  -1       2      94                                                           1   -0.81    0.52  1.0000
   5  15   1       0     175                                                          -8   -0.98   -1.26  1.0000
 -15   5   1       4      92                                                           3   -0.98   -1.44  1.0000
 -15   6  -1      10      95                                                          22   -3.42    0.54  1.0000
   6  15   1      69     180                                                          99   -3.77   -1.46  1.0000
 -15   6   1      91      93                                                         126   -3.75   -1.66  1.0000
 -15   7  -1       0      93                                                        -100    1.24    1.07  1.0000
 -15   7   1       2      89                                                           4    1.12   -2.07  1.0000
   7  15   1       1     182                                                         -12    1.05   -2.44  1.0000
 -15   8  -1      67      94                                                          82   -2.03    0.72  1.0000
   8  15   1     138     174                                                         167   -2.75    0.23  1.0000
 -15   8   1      59      90                                                          77   -2.59    0.36  1.0000
  -6  16  -1     129      96                                                         234   -5.12    7.89  1.0000
  -6  16   1      14     103                                                         -27   -5.55    6.83  1.0000
  -5  16  -1       1      93                                                         -27    2.50    0.29  1.0000
 -16  -5  -1       1      85                                                         -48    2.41    0.37  1.0000
  -5  16   1       1      97                                                          -1    2.28   -1.02  1.0000
 -16  -4  -1      42      89                                                          46    0.76   -0.10  1.0000
  -4  16   1      16      98                                                          19    0.77    0.39  1.0000
 -16  -3  -1       1      92                                                         -95   -2.04   -1.29  1.0000
  -3  16   1      55      98                                                          44   -1.96    1.12  1.0000
 -16  -2  -1       3      89                                                        -185    3.53    1.84  1.0000
  -2  16   1       2      95                                                         -33    3.25   -1.15  1.0000
 -16  -1  -1     105      96                                                         151   -4.82    0.70  1.0000
  -1  16   1       4      95                                                         -38   -4.75   -1.37  1.0000
 -16  -1   1      71      92                                                         111   -4.81   -1.62  1.0000
   0  16  -1       0     168                                                         -71   -1.14   -0.80  1.0000
 -16   0  -1       0      95                                                         -58   -1.29    0.06  1.0000
  16   0   1      39      60                                                          46   -1.29   -0.06  1.0000
   0  16   1       1      95                                                         -48   -1.12   -1.37  1.0000
 -16   0   1       0      95                                                         -25   -1.19   -0.68  1.0000
   0  16   1     127     154                                                         143   -1.12   -1.37  1.0000
 -16   1  -1      40      97                                                          37    0.59    0.46  1.0000
   1  16  -1     208     185                                                         198    0.81    0.15  1.0000
   1  16   1       6      96                                                           5    0.72   -0.97  1.0000
   1  16   1       0     172                                                        -166    0.72   -0.97  1.0000
 -16   1   1       0      95                                                         -38    0.75   -0.53  1.0000
 -16   2  -1      49      98                                                          35   -2.53    0.13  1.0000
   2  16  -1     456     198                                                         411   -2.56    0.24  1.0000
 -16   2   1      62      99                                                          46   -2.57   -1.07  1.0000
   2  16   1     155     184                                                         128   -2.62   -1.06  1.0000
   2  16   1      25      97                                                          15   -2.62   -1.06  1.0000
 -16   3  -1      52     101                                                          34    3.35    0.03  1.0000
 -16   3   1       4      95                                                         -14    3.78   -3.31  1.0000
   3  16   1       3     186                                                        -124    3.46   -2.34  1.0000
   3  16   1       3      93                                                        -140    3.46   -2.34  1.0000
 -16   4  -1      92     105                                                         157   -6.83    1.39  1.0000
 -16   4   1      24      95                                                          64   -7.28    0.14  1.0000
   4  16   1      34     196                                                          80   -7.30    0.80  1.0000
 -16   5  -1       2     104                                                         -52   -3.52   -1.19  1.0000
 -16   5   1      62      97                                                         105   -4.90   -5.86  1.0000
   5  16   1      11     186                                                        -142   -4.80   -6.07  1.0000
 -16   6  -1      25     106                                                          63    7.01   -0.71  1.0000
   6  16   1      81     187                                                         146    7.01    2.25  1.0000
 -16   6   1      41      96                                                          91    7.21    1.67  1.0000
 -17  -2  -1      53      99                                                          59    0.90   -0.35  1.0000
  -2  17   1       0     102                                                        -139    0.82    0.03  1.0000
  -2  17   1     219      93                                                         229    0.82    0.03  1.0000
 -17  -1  -1      47     101                                                          41   -1.14    1.37  1.0000
  -1  17   1       0     103                                                         -41   -1.14   -1.18  1.0000
 -17   0  -1      95     103                                                         157   -6.30   -2.36  1.0000
   0  17   1      24     101                                                          52   -5.45   -0.75  1.0000
 -17   0   1       8     102                                                         -19   -5.82   -3.44  1.0000
 -17   1  -1       1     103                                                         -32   -0.56    2.03  1.0000
   1  17  -1       1     194                                                         -64   -0.41    2.00  1.0000
   1  17   1       0     172                                                        -171   -1.00    0.59  1.0000
 -17   1   1      59     104                                                          66   -1.00    0.38  1.0000
   1  17   1       0     104                                                        -127   -1.00    0.59  1.0000
   2  17  -1      49     204                                                          48    0.89    2.14  1.0000
 -17   2  -1       1     107                                                         -36    0.99    1.59  1.0000
   2  17   1     134     193                                                         131    0.68   -1.46  1.0000
 -17   2   1      28     103                                                          27    0.76   -2.11  1.0000
   0   0   2   89178    3352                                                      100000   41.96   -6.91  1.0000
   0   0   2   84181    3183                                                       94704   41.96   -6.91  1.0000
   1   0   2    1990      84                                                        1704    7.80    3.49  1.0000
  -1   0   2    2206      84                                                        1894    8.10    3.69  1.0000
   0  -1   2    2157      76                                                        1853    7.97    3.55  1.0000
   1   0   2    2058      82                                                        1767    7.80    3.49  1.0000
   0  -1   2    2096      84                                                        1797    7.97    3.55  1.0000
   0   1   2    2100      89                                                        1796    8.09    3.51  1.0000
   0   1   2    2033      87                                                        1734    8.09    3.51  1.0000
  -1   1   2    1490      72                                                        1258    7.42    0.65  1.0000
   1  -1   2    1645      75                                                        1380    8.06    0.66  1.0000
   1   1   2    1612      77                                                        1359    7.76    0.95  1.0000
   1   1   2    1687      79                                                        1428    7.76    0.95  1.0000
  -1   1   2    1764      85                                                        1510    7.42    0.65  1.0000
   1  -1   2    1765      67                                                        1490    8.06    0.66  1.0000
   1  -1   2    1660     101                                                        1394    8.06    0.66  1.0000
  -1  -1   2    1716      64                                                        1454    7.79    0.32  1.0000
  -1   2   2   17023     600                                                       16543   -4.78    7.35  1.0000
   1  -2   2   15378     598                                                       14911   -4.85    6.77  1.0000
   1  -2   2   16768     532                                                       16280   -4.85    6.77  1.0000
   2   1   2   16602     562                                                       16128   -4.81    7.86  1.0000
   1  -2   2   16481     563                                                       15997   -4.85    6.77  1.0000
  -2  -1   2   17053     531                                                       16562   -4.82    6.47  1.0000
   2   1   2   15966     536                                                       15501   -4.81    7.86  1.0000
  -1   2   2   17372     539                                                       16888   -4.78    7.35  1.0000
  -1   2   2   16617     563                                                       16143   -4.78    7.35  1.0000
   0   2   2    1344      76                                                        1079    9.02    1.11  1.0000
   2   0   2    1345      67                                                        1079    9.04    1.37  1.0000
   0  -2   2    1257      49                                                        1010    8.68    0.66  1.0000
   0   2   2    1301      84                                                        1040    9.02    1.11  1.0000
   0  -2   2    1137      64                                                         903    8.68    0.66  1.0000
   0   2   2    1129      66                                                         887    9.02    1.11  1.0000
   2   0   2    1114      64                                                         873    9.04    1.37  1.0000
  -2   0   2    1257      68                                                        1014    8.53    0.55  1.0000
   2  -1   2    1146      58                                                         919    8.38    0.74  1.0000
   2  -1   2    1047      64                                                         830    8.38    0.74  1.0000
  -2   1   2    1197      72                                                         965    8.33    1.18  1.0000
   1   2   2     980      77                                                         771    8.35    1.13  1.0000
   1   2   2    1071      65                                                         852    8.35    1.13  1.0000
  -2   2   2     733      70                                                         586    6.77    0.57  1.0000
   2   2   2     322      31                                                         227    6.77    0.82  1.0000
   2  -2   2     482      46                                                         356    7.31    0.54  1.0000
   2   2   2     529      66                                                         405    6.77    0.82  1.0000
   2   2   2     432      54                                                         321    6.77    0.82  1.0000
   2  -2   2     452      55                                                         330    7.31    0.54  1.0000
  -2   3   2     746      62                                                         591    7.10    0.69  1.0000
   3   2   2     465      47                                                         345    7.10   -0.28  1.0000
  -2   3   2     778      75                                                         619    7.10    0.69  1.0000
   3   2   2     661      71                                                         516    7.10   -0.28  1.0000
   2  -3   2     779      58                                                         620    7.09    1.16  1.0000
   3   1   2    1143      72                                                         897    9.09    3.10  1.0000
  -1   3   2    1347      82                                                        1076    9.20    2.43  1.0000
  -1   3   2     837      86                                                         626    9.20    2.43  1.0000
   3   1   2    1123      59                                                         879    9.09    3.10  1.0000
  -3  -1   2    1007      57                                                         779    8.99    2.79  1.0000
  -1   3   2    1025      70                                                         790    9.20    2.43  1.0000
   1  -3   2    1167      63                                                         926    8.81    3.29  1.0000
   0   3  -2     431      31                                                         310    7.44   -1.22  1.0000
  -3   0   2     438      57                                                         315    7.50    1.17  1.0000
   3   0   2     417      53                                                         297    7.52    1.34  1.0000
   0   3   2     433      51                                                         312    7.43    1.17  1.0000
   3   0   2     528      55                                                         392    7.52    1.34  1.0000
   0   3   2     417      51                                                         298    7.43    1.17  1.0000
   3  -1   2       9      43                                                          -9    6.81   -1.99  1.0000
   1   3   2      53      45                                                          27    6.49   -3.04  1.0000
   1   3   2      36      44                                                          15    6.49   -3.04  1.0000
   3  -1   2     145      32                                                          94    6.81   -1.99  1.0000
  -3   1   2      84      37                                                          51    6.37   -2.68  1.0000
  -3   2   2     517      69                                                         466    2.72   -0.19  1.0000
   3  -2   2     401      49                                                         355    2.82   -0.85  1.0000
   3  -2   2     422      57                                                         375    2.82   -0.85  1.0000
   2   3   2     417      51                                                         374    2.59   -0.70  1.0000
   2   3   2     526      75                                                         478    2.59   -0.70  1.0000
   3  -3   2     400      49                                                         312    5.54    2.36  1.0000
  -3   3   2     256      44                                                         184    5.73    1.17  1.0000
   3   3   2     187      37                                                         128    5.60    1.38  1.0000
   3   3   2      72      32                                                          37    5.60    1.38  1.0000
  -3   4   2    3019     122                                                        2803    4.72    0.61  1.0000
   3  -4   2    3000     119                                                        2810    4.16    0.78  1.0000
   4   3   2    2870     112                                                        2667    4.56    0.68  1.0000
  -3   4   2    3026     127                                                        2810    4.72    0.61  1.0000
  -2   4  -2   39897    1321                                                       40524    3.69   -0.38  1.0000
  -2   4   2   40641    1396                                                       41199    3.31   -0.91  1.0000
  -2   4   2   41319    1328                                                       41881    3.31   -0.91  1.0000
   4   2   2   37165    1327                                                       37765    3.71   -0.87  1.0000
  -1   4  -2     270      38                                                         254    1.18    0.03  1.0000
  -1   4   2     314      49                                                         298    1.09    0.43  1.0000
  -1   4   2     374      54                                                         356    1.09    0.43  1.0000
   4   1   2     286      39                                                         269    1.18   -0.15  1.0000
  -4  -1   2     333      48                                                         313    1.30    0.65  1.0000
   4   1   2     162       9                                                         150    1.18   -0.15  1.0000
   0   4  -2     381      37                                                         382   -0.10   -0.66  1.0000
   0  -4   2     509      93                                                         511   -0.10    0.66  1.0000
   0   4   2     371      70                                                         366    0.28    2.08  1.0000
  -4   0   2     351      57                                                         359   -0.54    0.20  1.0000
   4   0   2     439      58                                                         433    0.36    3.41  1.0000
   0   4   2     500      80                                                         494    0.28    2.08  1.0000
   1   4   2     153      50                                                         126    2.84   -1.20  1.0000
   1   4   2     189      55                                                         159    2.84   -1.20  1.0000
  -4   1   2     141      37                                                         116    2.71   -1.25  1.0000
   4  -1   2     183      35                                                         151    3.00   -1.11  1.0000
   4  -1   2     101      46                                                          78    3.00   -1.11  1.0000
   1   4   2     189      40                                                         159    2.84   -1.20  1.0000
   4  -2   2     216      33                                                         146    6.19    0.70  1.0000
   4  -2   2     257      50                                                         180    6.19    0.70  1.0000
  -4   2   2     280      42                                                         200    6.11    0.35  1.0000
   2   4   2     248      59                                                         172    6.21    0.48  1.0000
  -4   3  -2    9301     329                                                        9917    7.49    0.87  1.0000
  -4   3   2    8751     334                                                        9383    7.86    0.24  1.0000
   4  -3   2    9159     346                                                        9770    7.49   -0.87  1.0000
  -4   4  -2     474      59                                                         318    9.30   -1.43  1.0000
   4  -4   2     540      65                                                         372    9.30    1.43  1.0000
  -4   4   2     459      55                                                         308    9.15    0.99  1.0000
   4   4   2     542      72                                                         374    9.29    0.89  1.0000
   4   4   2     423      50                                                         277    9.29    0.89  1.0000
  -4   5  -2     540      62                                                         492    2.52    0.25  1.0000
   5   4   2     482      57                                                         435    2.63   -0.48  1.0000
  -4   5   2     673      94                                                         624    2.30   -0.28  1.0000
   5   4   2     653      76                                                         598    2.63   -0.48  1.0000
  -4   5   2     607      73                                                         560    2.30   -0.28  1.0000
  -3   5  -2     586      57                                                         508    3.90   -0.93  1.0000
   5   3   2     511      64                                                         441    3.77    0.62  1.0000
  -3   5   2     735      79                                                         653    3.68    0.61  1.0000
  -3   5   2     743      90                                                         660    3.68    0.61  1.0000
   5   3   2     543      79                                                         471    3.77    0.62  1.0000
  -2   5   2    1241      95                                                        1260   -0.63    0.16  1.0000
   5   2   2    1232      71                                                        1246   -0.45   -0.28  1.0000
  -2   5   2    1239      94                                                        1257   -0.63    0.16  1.0000
  -5  -2   2    1212      66                                                        1227   -0.50   -0.22  1.0000
  -1   5  -2    2350      90                                                        2330    0.44   -1.45  1.0000
  -1   5   2    2165     115                                                        2144    0.51    0.98  1.0000
   5   1   2    2154     103                                                        2124    0.72    1.21  1.0000
   5   1   2    2209      96                                                        2179    0.72    1.21  1.0000
  -1   5   2    2181     115                                                        2160    0.51    0.98  1.0000
  -5  -1   2    2126      95                                                        2114    0.26    1.28  1.0000
   0   5  -2    9286     334                                                        9880    7.16   -0.73  1.0000
   0   5   2    9212     349                                                        9862    7.77    2.68  1.0000
   5   0   2    9360     344                                                        9998    7.60    2.07  1.0000
  -5   0   2    9080     340                                                        9703    7.56    1.44  1.0000
   0   5   2    9518     365                                                       10178    7.77    2.68  1.0000
   0  -5   2   10205     386                                                       10827    7.16    0.73  1.0000
   0   5   2    9221     377                                                        9871    7.77    2.68  1.0000
   5  -1   2     229      46                                                         141    7.74    1.62  1.0000
  -5   1   2     205      43                                                         122    7.72    1.57  1.0000
   1   5   2     244      43                                                         152    7.81    1.44  1.0000
   1   5   2     139      73                                                          72    7.81    1.44  1.0000
   5  -1   2     210      42                                                         126    7.74    1.62  1.0000
   2   5   2     137      73                                                          78    7.70   -2.20  1.0000
  -5   2   2      75      46                                                          29    7.81   -0.29  1.0000
   5  -2   2     130      55                                                          79    7.79   -3.37  1.0000
   2   5   2      58      36                                                          22    7.70   -2.20  1.0000
  -5   3  -2    1559      81                                                        1374    5.70   -0.73  1.0000
  -5   3   2    1742      98                                                        1552    5.54    0.53  1.0000
   3   5   2    1596     109                                                        1414    5.56    0.16  1.0000
   3   5   2    1568     101                                                        1388    5.56    0.16  1.0000
   5  -3   2    1532      84                                                        1349    5.70    0.73  1.0000
  -5   4  -2     255      39                                                         190    5.24    1.01  1.0000
   4   5   2     178      63                                                         124    5.28   -0.51  1.0000
   5  -4   2     294      59                                                         224    5.24   -1.01  1.0000
   4   5   2     206      53                                                         147    5.28   -0.51  1.0000
  -5   4   2     171      53                                                         117    5.40   -0.15  1.0000
  -5   5  -2      26      36                                                          36    2.24    0.20  1.0000
   5   5   2      36      76                                                          48    2.18   -0.28  1.0000
   5   5   2      32      53                                                          43    2.18   -0.28  1.0000
  -5   5   2       6      53                                                          10    1.87    0.16  1.0000
  -5   6  -2      14      37                                                          12    0.57    0.23  1.0000
  -5   6   2      69      58                                                          64    0.71   -0.01  1.0000
   6   5   2       0      77                                                          -7    0.44   -0.05  1.0000
   6   5   2      39      56                                                          37    0.44   -0.05  1.0000
  -4   6  -2      43      35                                                          29    3.19    1.61  1.0000
  -4   6   2      82      63                                                          62    2.88   -0.49  1.0000
   6   4   2      76      53                                                          57    3.08   -1.37  1.0000
  -4   6   2       2      54                                                         -77    2.88   -0.49  1.0000
   6   4   2       2      62                                                         -56    3.08   -1.37  1.0000
  -3   6  -2    4375     175                                                        4747    6.49   -1.01  1.0000
   6   3   2    4740     182                                                        5130    6.51    1.74  1.0000
  -3   6   2    4349     196                                                        4711    6.31    1.66  1.0000
  -3   6   2    4436     193                                                        4802    6.31    1.66  1.0000
   6   3   2    4271     187                                                        4642    6.51    1.74  1.0000
   6   2   2     554      56                                                         428    6.69    2.40  1.0000
  -2   6   2     754      88                                                         611    6.43    2.03  1.0000
   6   2   2     420      56                                                         311    6.69    2.40  1.0000
  -6  -2   2     686      63                                                         554    6.23    1.23  1.0000
  -2   6   2     664      96                                                         531    6.43    2.03  1.0000
  -1   6  -2     435      51                                                         376    3.46   -3.04  1.0000
  -1   6   2     624      84                                                         554    3.40    1.95  1.0000
  -6  -1   2     441      66                                                         378    3.63    2.37  1.0000
   6   1   2     410      60                                                         352    3.45    2.54  1.0000
  -1   6   2     173      45                                                         137    3.40    1.95  1.0000
   0   6  -2     212      28                                                         161    4.41   -1.10  1.0000
  -6   0   2     161      44                                                         115    4.64    1.09  1.0000
   0   6   2     327      83                                                         260    4.64    0.87  1.0000
   0   6   2     423      55                                                         346    4.64    0.87  1.0000
   6   0   2     313      47                                                         249    4.53    0.76  1.0000
   6   0   2     312      52                                                         248    4.53    0.76  1.0000
   1   6   2    1372      80                                                        1278    3.00    1.21  1.0000
   1   6   2    1184     102                                                        1097    3.00    1.21  1.0000
   6  -1   2    1211      83                                                        1126    2.92    0.74  1.0000
  -6   1   2    1299      87                                                        1210    2.93    1.07  1.0000
   1   6   2    1292     113                                                        1201    3.00    1.21  1.0000
   2   6   2   22644     800                                                       22709    0.46    1.03  1.0000
   2   6   2   22996     762                                                       23061    0.46    1.03  1.0000
  -6   2   2   22745     756                                                       22801    0.43    0.38  1.0000
   6  -2   2   22372     792                                                       22411    0.25    1.20  1.0000
  -6   3  -2     338      45                                                         338    0.05    0.71  1.0000
  -6   3   2     365      56                                                         358    0.51   -1.40  1.0000
   3   6   2     311      61                                                         306    0.34   -0.57  1.0000
   3   6   2     485      89                                                         479    0.34   -0.57  1.0000
   6  -3   2     348      61                                                         348    0.05   -0.71  1.0000
  -6   4  -2     441      75                                                         407    1.91   -1.35  1.0000
   4   6   2     280      60                                                         257    1.64    1.28  1.0000
  -6   4   2     216      57                                                         192    2.01    0.60  1.0000
   6  -4   2     439      64                                                         405    1.91    1.35  1.0000
  -6   5  -2      13      41                                                          22    2.56   -0.53  1.0000
   5   6   2       6      57                                                          12    2.56    0.16  1.0000
   5   6   2       1      91                                                         -68    2.56    0.16  1.0000
  -6   5   2      11      57                                                          19    2.48   -0.11  1.0000
  -6   6  -2       2      41                                                         -14    3.45   -0.73  1.0000
   6   6   2      52      90                                                          33    3.49   -0.12  1.0000
   6   6   2      53      62                                                          34    3.49   -0.12  1.0000
  -6   6   2       2      59                                                         -58    3.28   -0.03  1.0000
  -6   7  -2    2175     120                                                        2327    3.78   -0.63  1.0000
   7   6   2    1944     136                                                        2101    4.12    0.64  1.0000
   7   6   2    2215     142                                                        2383    4.12    0.64  1.0000
  -6   7   2    2215     145                                                        2381    4.08    0.37  1.0000
  -5   7  -2       4      42                                                          -8    4.47   -1.75  1.0000
  -5   7   2       4      62                                                         -38    4.33    1.33  1.0000
   7   5   2       3      77                                                          -2    4.14    1.52  1.0000
   7   5   2      68      58                                                          43    4.14    1.52  1.0000
  -4   7  -2      70      39                                                          78   -1.14   -1.25  1.0000
   7   4   2     107      53                                                         119   -1.24    2.23  1.0000
   7   4   2      96      62                                                         107   -1.24    2.23  1.0000
  -4   7   2      71      59                                                          80   -1.25    2.02  1.0000
  -7  -4   2      10      36                                                          13   -1.24    1.37  1.0000
  -4   7   2      74      79                                                          84   -1.25    2.02  1.0000
   7   3  -2     143      46                                                         110    3.47   -0.10  1.0000
  -3   7  -2     283      39                                                         229    3.98   -0.18  1.0000
  -7  -3   2     143      42                                                         110    3.47    0.10  1.0000
   7   3   2     286      55                                                         232    3.95    0.23  1.0000
   7   3   2     243      51                                                         194    3.95    0.23  1.0000
  -3   7   2     279      61                                                         233    3.41    0.25  1.0000
  -3   7   2     242      85                                                         199    3.41    0.25  1.0000
  -2   7  -2       6      33                                                          20    5.49   -2.55  1.0000
   7   2  -2      12      46                                                          31    5.41   -2.25  1.0000
   7   2   2       7      48                                                         -36    5.39    2.83  1.0000
   7   2   2       7      45                                                         -13    5.39    2.83  1.0000
  -2   7   2       6      20                                                         -57    5.27    2.51  1.0000
  -7  -2   2       1      43                                                           5    5.41    2.25  1.0000
  -2   7   2      27      86                                                          54    5.27    2.51  1.0000
  -7  -1   2      71      44                                                          53   -2.74   -0.24  1.0000
   7   1   2       2      53                                                         -60   -2.78   -1.23  1.0000
  -1   7   2       1      25                                                         -56   -2.63   -1.09  1.0000
   7   1   2       2      22                                                           0   -2.78   -1.23  1.0000
  -1   7   2     126      89                                                         103   -2.63   -1.09  1.0000
   0   7  -2     354      54                                                         380   -1.63   -1.11  1.0000
  -7   0   2     279      51                                                         301   -1.56    0.88  1.0000
   7   0   2     429      58                                                         454   -1.41    0.09  1.0000
   0   7   2     306      60                                                         326   -1.35   -0.33  1.0000
   0   7   2     397      58                                                         420   -1.35   -0.33  1.0000
   0   7   2     444      95                                                         469   -1.35   -0.33  1.0000
   1   7   2     238      89                                                         221    1.34    0.59  1.0000
   7  -1   2      86      44                                                          76    1.28    0.26  1.0000
  -7   1   2     110      49                                                          99    1.26    0.47  1.0000
   1   7   2      66      58                                                          57    1.34    0.59  1.0000
   1   7   2     160      42                                                         146    1.34    0.59  1.0000
   7  -1   2     120      59                                                         108    1.28    0.26  1.0000
   2   7   2    1627     132                                                        1577    1.46    0.55  1.0000
  -7   2   2    1769     109                                                        1715    1.53    0.37  1.0000
   2   7   2    1561     119                                                        1512    1.46    0.55  1.0000
  -7   3  -2     672      83                                                         672    0.03    0.69  1.0000
   3   7   2     809     112                                                         809    0.03   -0.80  1.0000
   3   7   2     757     124                                                         757    0.03   -0.80  1.0000
  -7   3   2     872     100                                                         872    0.03   -0.72  1.0000
   7  -3   2     739      73                                                         739    0.03   -0.69  1.0000
  -7   4  -2    2669     138                                                        2989    7.15    0.28  1.0000
   4   7   2    2976     155                                                        3308    7.03    0.12  1.0000
  -7   4   2    2775     149                                                        3090    6.90   -0.06  1.0000
   7  -4   2    2616     135                                                        2933    7.15   -0.28  1.0000
  -7   5  -2       3      47                                                         -35    4.32    0.28  1.0000
  -7   5   2       3      62                                                         -37    4.00   -0.23  1.0000
   5   7   2     112      64                                                          77    4.32   -0.48  1.0000
   5   7   2       3     102                                                         -20    4.32   -0.48  1.0000
  -7   6  -2       3      45                                                         -71    3.95    2.01  1.0000
  -7   6   2       4      65                                                          -6    4.31   -1.94  1.0000
   6   7   2       5      68                                                          12    4.70   -2.59  1.0000
   6   7   2       6     106                                                          14    4.70   -2.59  1.0000
  -7   7  -2     781      95                                                         729    2.26    0.36  1.0000
   7   7   2    1110     123                                                        1045    2.35    0.13  1.0000
   7   7   2     862     120                                                         805    2.35    0.13  1.0000
  -7   7   2     786     126                                                         727    2.51    0.42  1.0000
  -7   8  -2     121      53                                                          74    6.07    1.39  1.0000
  -7   8   2      99      73                                                          59    5.90   -1.81  1.0000
   8   7   2       7      73                                                         -32    6.10   -1.68  1.0000
   8   7   2      22     111                                                           5    6.10   -1.68  1.0000
  -6   8  -2       3      46                                                         -44    4.10   -0.36  1.0000
   8   6   2      87      65                                                          57    4.14    0.63  1.0000
  -6   8   2      41      70                                                          21    4.30    0.78  1.0000
   8   6   2       3      90                                                         -80    4.14    0.63  1.0000
  -5   8  -2    1499      97                                                        1386    3.49   -1.23  1.0000
   8   5   2    1515     101                                                        1407    3.31    0.90  1.0000
   8   5   2    1449     113                                                        1343    3.31    0.90  1.0000
  -4   8  -2    7251     267                                                        7493    3.34   -0.25  1.0000
  -8  -4   2    7069     262                                                        7312    3.40    0.04  1.0000
   8   4   2    7677     273                                                        7892    2.87    0.44  1.0000
   8   4   2    7040     275                                                        7246    2.87    0.44  1.0000
  -4   8   2    7444     297                                                        7665    3.01    0.09  1.0000
  -3   8  -2       1      37                                                         -29    2.05    1.20  1.0000
  -8  -3   2      30      46                                                          22    2.00   -0.79  1.0000
   8   3   2       1      55                                                          -3    1.74   -0.19  1.0000
   8   3   2      85      51                                                          72    1.74   -0.19  1.0000
  -3   8   2      17      98                                                          11    1.81    0.19  1.0000
  -2   8  -2      47      37                                                          30    6.63    4.43  1.0000
  -2   8   2      11     101                                                         -58    6.55   -4.15  1.0000
   8   2   2      12      52                                                         -51    6.62   -4.60  1.0000
  -8  -2   2      10      50                                                         -10    6.35   -4.10  1.0000
   8   2   2      53      52                                                          37    6.62   -4.60  1.0000
  -2   8   2      11      45                                                         -10    6.55   -4.15  1.0000
  -1   8  -2       3      35                                                         -24    3.13   -3.05  1.0000
  -1   8   2       0     101                                                           3    3.35    3.02  1.0000
   8   1   2       1      55                                                           7    3.33    3.21  1.0000
  -8  -1   2       3      50                                                         -43    3.28    2.92  1.0000
   8   1   2      28      48                                                          52    3.33    3.21  1.0000
  -1   8   2       4      59                                                         -62    3.35    3.02  1.0000
   0   8  -2       1      10                                                         -13    0.92    1.90  1.0000
   0   8   2       0     104                                                         -43    0.84   -0.98  1.0000
  -8   0   2      57      54                                                          53    1.01   -1.28  1.0000
   8   0   2       1      57                                                         -30    0.87   -1.47  1.0000
   0   8   2      53      56                                                          49    0.84   -0.98  1.0000
   0   8   2       0      59                                                          -1    0.84   -0.98  1.0000
   8   0   2       1      13                                                          -5    0.87   -1.47  1.0000
   1   8  -2    2575     117                                                        2783    4.69   -1.77  1.0000
   1   8   2    2782     151                                                        2982    4.40    0.54  1.0000
   1   8   2    2609     171                                                        2803    4.40    0.54  1.0000
   8  -1   2    2510     127                                                        2700    4.41    0.39  1.0000
  -8   1   2    2754     138                                                        2957    4.41    1.92  1.0000
   1   8   2    2747     128                                                        2946    4.40    0.54  1.0000
   2   8  -2     240      38                                                         192    3.96    0.82  1.0000
  -8   2  -2     243      47                                                         194    3.97    0.89  1.0000
   2   8   2     319      70                                                         266    3.71   -0.08  1.0000
  -2  -8   2     277      79                                                         225    3.96   -0.82  1.0000
  -8   2   2     140      57                                                         105    3.77   -0.13  1.0000
   8  -2   2     304      45                                                         249    3.97   -0.89  1.0000
   2   8   2     127     110                                                          94    3.71   -0.08  1.0000
  -8   3  -2     186      52                                                         145    3.81    0.57  1.0000
  -8   3   2     104      59                                                          74    3.78   -0.62  1.0000
   8  -3   2     261      56                                                         212    3.81   -0.57  1.0000
   3   8   2     216      69                                                         172    3.82   -0.50  1.0000
   3   8   2     333     112                                                         277    3.82   -0.50  1.0000
  -8   4  -2      43      51                                                          27    3.30    0.12  1.0000
   4   8   2     118      71                                                          89    3.35   -0.04  1.0000
  -8   4   2      13      60                                                           5    3.19    0.21  1.0000
   8  -4   2      59      64                                                          40    3.30   -0.12  1.0000
   4   8   2      59      94                                                          39    3.35   -0.04  1.0000
  -8   5  -2     212      55                                                         190    1.96    1.15  1.0000
   5   8   2     193      71                                                         170    2.09   -0.37  1.0000
  -8   5   2     193      68                                                         170    2.04   -0.46  1.0000
  -8   6  -2    4159     180                                                        4078   -1.45    1.11  1.0000
  -8   6   2    4656     200                                                        4586   -1.18   -0.93  1.0000
   6   8   2    4407     197                                                        4322   -1.47   -1.39  1.0000
  -8   7  -2     147      56                                                         123    2.44    0.35  1.0000
   7   8   2      73      79                                                          56    2.55   -1.10  1.0000
  -8   7   2      27      75                                                          17    2.47   -0.45  1.0000
   7   8   2       1     126                                                         -58    2.55   -1.10  1.0000
  -8   8  -2      79      60                                                          64    2.19    0.50  1.0000
  -8   8   2     141      78                                                         119    2.37   -0.36  1.0000
   8   8   2       1     125                                                         -90    2.12   -0.25  1.0000
   8   8   2      51      81                                                          39    2.12   -0.25  1.0000
  -8   9  -2       7      58                                                           8    0.29    2.82  1.0000
  -8   9   2      59      80                                                          60    0.10   -1.63  1.0000
   9   8   2     130     119                                                         137    0.34   -2.60  1.0000
   9   8   2      39      78                                                          42    0.34   -2.60  1.0000
  -7   9  -2     165      56                                                         168    0.27    1.47  1.0000
   9   7   2      38      74                                                          39    0.31   -1.01  1.0000
   9   7   2      13     110                                                          14    0.31   -1.01  1.0000
  -7   9   2      56      79                                                          59    0.44   -0.77  1.0000
  -6   9  -2     200      52                                                         175    2.13   -0.35  1.0000
  -6   9   2       1      73                                                          -1    1.96    0.48  1.0000
   9   6   2     160      67                                                         138    2.08    0.51  1.0000
  -5   9  -2      50      46                                                          22    5.56   -0.88  1.0000
  -5   9   2       6      20                                                         -45    5.57    2.15  1.0000
   9   5   2     211      63                                                         149    5.51    2.01  1.0000
  -4   9  -2     245      45                                                         239    0.40   -1.83  1.0000
   9   4   2     229      60                                                         223    0.39    1.94  1.0000
  -3   9  -2    1135      88                                                        1103    1.15    0.14  1.0000
  -3   9   2    1136     158                                                        1097    1.39   -0.18  1.0000
  -9  -3   2    1175      95                                                        1137    1.32   -0.12  1.0000
   9   3   2    1032     109                                                         998    1.29   -0.18  1.0000
  -2   9  -2    2326     114                                                        2460    3.15   -1.56  1.0000
   9   2   2    2148     107                                                        2278    3.19    1.69  1.0000
  -2   9   2    2483     172                                                        2608    2.86    1.44  1.0000
  -9  -2   2    2305     126                                                        2431    3.00    1.17  1.0000
   9   2   2    2330     133                                                        2465    3.19    1.69  1.0000
  -1   9  -2      42      41                                                          29    2.62   -0.67  1.0000
   9   1   2       1      42                                                          -2    2.56    0.48  1.0000
   9   1   2      35      61                                                          23    2.56    0.48  1.0000
  -9  -1   2      64      57                                                          48    2.46    0.24  1.0000
  -1   9   2      87      62                                                          71    2.19    0.00  1.0000
  -1   9   2      64     119                                                          50    2.19    0.00  1.0000
   0   9  -2       6      42                                                          18    0.27   -4.12  1.0000
  -9   0   2      19      58                                                          38    0.35    4.27  1.0000
   0   9   2      36      66                                                          59    0.19    4.07  1.0000
   0   9   2       3     112                                                        -112    0.19    4.07  1.0000
   9   0   2       3      62                                                         -84    0.13    4.08  1.0000
   9   0   2       6      14                                                          18    0.13    4.08  1.0000
   0   9   2       3      60                                                         -36    0.19    4.07  1.0000
   1   9   2     318      71                                                         315    0.21   -0.43  1.0000
   1   9   2     390      70                                                         387    0.21   -0.43  1.0000
   9  -1   2     394      71                                                         392    0.18   -0.54  1.0000
  -9   1   2     205      65                                                         204    0.13   -0.53  1.0000
   1   9   2     243     115                                                         241    0.21   -0.43  1.0000
  -9   2  -2       3      12                                                          -5    3.85   -1.03  1.0000
   2   9   2      49      72                                                          30    3.75    0.75  1.0000
   9  -2   2      61      16                                                          40    3.85    1.03  1.0000
  -9   2   2       3      61                                                         -42    3.80    1.43  1.0000
   2   9   2       3     120                                                        -115    3.75    0.75  1.0000
  -9   3  -2      21      50                                                          20   -0.31    0.44  1.0000
  -9   3   2       0      63                                                         -10   -0.34   -0.18  1.0000
   3   9   2       0      73                                                          -7   -0.39   -0.12  1.0000
   3   9   2     150     128                                                         146   -0.39   -0.12  1.0000
  -9   4  -2      60      57                                                          51    1.41   -0.30  1.0000
  -9   4   2      13      65                                                          10    1.08    0.90  1.0000
   4   9   2      46      72                                                          39    1.30    0.82  1.0000
   4   9   2      40     119                                                          33    1.30    0.82  1.0000
   9  -4   2      93      64                                                          82    1.41    0.30  1.0000
  -9   5  -2      27      57                                                          37   -2.01    0.03  1.0000
   5   9   2       5      20                                                          10   -2.38    0.38  1.0000
   5   9   2       1      74                                                         -11   -2.38    0.38  1.0000
  -9   5   2      29      67                                                          41   -2.39    0.31  1.0000
  -9   6  -2     642      68                                                         602    2.14    2.96  1.0000
  -9   6   2     629      83                                                         589    2.10   -2.40  1.0000
   6   9   2     528      91                                                         491    2.13   -2.60  1.0000
   6   9   2     557      84                                                         519    2.13   -2.60  1.0000
  -9   7  -2      68      61                                                          77   -1.13    0.96  1.0000
   7   9   2      68     141                                                          77   -1.12   -1.03  1.0000
   7   9   2     229      86                                                         245   -1.12   -1.03  1.0000
  -9   7   2      61      79                                                          67   -0.89   -0.48  1.0000
  -9   8  -2     548      73                                                         554    0.30    0.42  1.0000
   8   9   2     389     138                                                         395    0.36   -0.41  1.0000
  -9   8   2     438      87                                                         440    0.11   -0.48  1.0000
   8   9   2     454      93                                                         460    0.36   -0.41  1.0000
  -9   9  -2      57      62                                                          38    3.36    0.11  1.0000
  -9   9   2       2      79                                                         -18    3.53    0.06  1.0000
   9   9   2       2     129                                                         -65    3.38    0.67  1.0000
   9   9   2       2      81                                                        -108    3.38    0.67  1.0000
  -9  10  -2       3      63                                                          -8   -3.99    1.37  1.0000
  10   9   2      52     126                                                          80   -4.16   -0.51  1.0000
  -9  10   2       3      83                                                          -7   -4.39    0.25  1.0000
  10   9   2       1      80                                                           7   -4.16   -0.51  1.0000
  -8  10  -2      72      60                                                         104   -3.62   -2.20  1.0000
  10   8   2     153     116                                                         204   -3.67    3.28  1.0000
  -8  10   2       4      82                                                         -20   -3.48    3.18  1.0000
  10   8   2       4      75                                                         -34   -3.67    3.28  1.0000
  -7  10  -2       0      55                                                         -18   -0.50    1.15  1.0000
  10   7   2       0      74                                                          -8   -0.75   -0.42  1.0000
  -7  10   2       0      81                                                         -66   -0.87    0.17  1.0000
  10   7   2      12     104                                                          14   -0.75   -0.42  1.0000
  -6  10  -2      32      53                                                          48    2.84   -1.24  1.0000
  10   6   2      41      68                                                          59    2.86    1.49  1.0000
  -6  10   2      51      80                                                          71    2.94    1.00  1.0000
  -5  10  -2     734      94                                                         749    0.55   -1.53  1.0000
  10   5   2     425      73                                                         435    0.47    1.31  1.0000
  -5  10   2     713     133                                                         725    0.41    1.66  1.0000
  -4  10  -2      79      50                                                          81   -0.33   -0.48  1.0000
  -4  10   2     184      67                                                         187   -0.27    0.75  1.0000
  10   4   2     142      67                                                         145   -0.32    0.77  1.0000
  -3  10  -2      18      48                                                          38   -4.74   -2.47  1.0000
  10   3   2      81      62                                                         121   -4.76    1.73  1.0000
  -3  10   2      88      56                                                         130   -4.85    1.39  1.0000
  -3  10   2       5     128                                                         -10   -4.85    1.39  1.0000
  -2  10  -2      87      47                                                          74    2.62    4.24  1.0000
  -2  10   2     110     131                                                          99    2.39   -4.71  1.0000
  10   2   2       5      60                                                         -50    2.55   -4.70  1.0000
  10   2   2       5      63                                                         -54    2.55   -4.70  1.0000
  -2  10   2     100      70                                                          90    2.39   -4.71  1.0000
 -10  -2   2       4      59                                                         -67    2.53   -4.08  1.0000
  -1  10  -2     784      88                                                         751    1.41   -0.49  1.0000
 -10  -1   2     779     112                                                         748    1.29    0.97  1.0000
  -1  10   2    1088     165                                                        1054    1.20    0.79  1.0000
  -1  10   2     886     121                                                         855    1.20    0.79  1.0000
  10   1   2     819      80                                                         787    1.33    0.57  1.0000
  10   1   2     726      97                                                         696    1.33    0.57  1.0000
   0  10  -2    4689     191                                                        4854    2.87    0.70  1.0000
 -10   0   2    4406     198                                                        4566    2.87   -0.76  1.0000
   0  10   2    4578     235                                                        4740    2.83   -0.16  1.0000
   0  10   2    4920     203                                                        5088    2.83   -0.16  1.0000
  10   0   2    4310     187                                                        4476    2.98   -0.14  1.0000
   0  10   2    4333     206                                                        4491    2.83   -0.16  1.0000
 -10   1   2      48      67                                                          38    1.88    1.81  1.0000
   1  10   2      85      73                                                          72    1.76    1.55  1.0000
   1  10   2       1     122                                                         -87    1.76    1.55  1.0000
   1  10   2      57      49                                                          46    1.76    1.55  1.0000
  10  -1   2      38      73                                                          31    1.41    1.18  1.0000
 -10   2  -2      21      11                                                          14    2.17    1.01  1.0000
  10  -2   2      74      36                                                          60    2.17   -1.01  1.0000
 -10   2   2       1      68                                                         -46    1.97   -0.65  1.0000
   2  10   2       1     134                                                         -10    2.14   -0.17  1.0000
   2  10   2      28      79                                                          19    2.14   -0.17  1.0000
 -10   3  -2       2      41                                                         -67    3.03   -0.43  1.0000
   3  10   2      20     139                                                          32    2.72    0.35  1.0000
 -10   3   2       1      68                                                         -61    2.81    0.18  1.0000
   3  10   2       1      76                                                         -48    2.72    0.35  1.0000
 -10   4  -2       3      63                                                         -39    4.42    0.11  1.0000
 -10   4   2       3      70                                                        -120    4.34   -0.43  1.0000
   4  10   2       3      75                                                         -79    4.37    0.01  1.0000
   4  10   2       3     140                                                        -158    4.37    0.01  1.0000
  10  -4   2       3      64                                                         -27    4.42   -0.11  1.0000
 -10   5  -2     751     120                                                         797    2.00    0.47  1.0000
   5  10   2     704     146                                                         747    1.94   -0.73  1.0000
 -10   5   2     674     132                                                         714    1.86   -1.77  1.0000
   5  10   2     800     141                                                         846    1.94   -0.73  1.0000
 -10   6  -2      41      63                                                          48   -1.15    1.24  1.0000
 -10   6   2      49      78                                                          54   -0.70   -1.45  1.0000
   6  10   2      42      80                                                          48   -1.02   -1.13  1.0000
   6  10   2     135     149                                                         146   -1.02   -1.13  1.0000
 -10   7  -2       6      65                                                           6    0.22    0.87  1.0000
   7  10   2      45      84                                                          43    0.40   -0.89  1.0000
   7  10   2     261     142                                                         257    0.40   -0.89  1.0000
 -10   7   2      10      79                                                           9    0.28   -1.25  1.0000
 -10   8  -2       4      67                                                           9   -0.54   -3.35  1.0000
   8  10   2       2      87                                                         -58   -0.36    3.09  1.0000
 -10   8   2      21      80                                                          27   -0.07    2.27  1.0000
   8  10   2      14     135                                                          23   -0.36    3.09  1.0000
 -10   9  -2      41      68                                                          22    4.56    2.02  1.0000
   9  10   2      16      89                                                           5    4.40   -1.41  1.0000
 -10   9   2       3      82                                                         -48    4.28   -0.84  1.0000
   9  10   2      82     133                                                          54    4.40   -1.41  1.0000
 -10  10  -2     389      75                                                         396    0.47    0.35  1.0000
  10  10   2     385      92                                                         394    0.53    0.12  1.0000
  10  10   2     343     134                                                         351    0.53    0.12  1.0000
 -10  10   2     269      91                                                         279    0.72    0.15  1.0000
 -10  11  -2       3      67                                                         -40   -4.19   -0.19  1.0000
  11  10   2       3      85                                                         -37   -3.98   -0.97  1.0000
 -10  11   2      56      89                                                          85   -4.14   -0.56  1.0000
  11  10   2      40     130                                                          65   -3.98   -0.97  1.0000
  -9  11  -2     153      67                                                         166   -1.29   -0.81  1.0000
  11   9   2     211      85                                                         226   -1.22    0.83  1.0000
  11   9   2      56     121                                                          64   -1.22    0.83  1.0000
  -9  11   2     248      92                                                         266   -1.40    0.55  1.0000
  -8  11  -2     184      63                                                         197    1.18    0.47  1.0000
  11   8   2     200      78                                                         213    1.10   -0.90  1.0000
  -8  11   2     102      87                                                         109    0.82   -0.68  1.0000
  11   8   2     333     113                                                         349    1.10   -0.90  1.0000
  -7  11  -2       1      55                                                         -14    2.58    0.33  1.0000
  11   7   2       1      73                                                         -12    2.52   -1.16  1.0000
  -7  11   2      67      85                                                          55    2.68   -1.61  1.0000
  -6  11  -2      29      56                                                          57   -4.88    1.38  1.0000
  -6  11   2      75      84                                                         120   -4.58   -3.47  1.0000
  11   6   2       6      70                                                         -32   -4.65   -3.29  1.0000
  -5  11  -2      18      53                                                          13    1.83    2.21  1.0000
  11   5   2      67      74                                                          56    2.04   -1.87  1.0000
  -5  11   2       1      84                                                         -28    1.85   -1.92  1.0000
  -4  11  -2       4      53                                                           3   -0.60   -0.98  1.0000
  11   4   2       1      71                                                         -79   -0.68    1.55  1.0000
  -4  11   2     144      83                                                         141   -0.59    1.49  1.0000
  -3  11  -2      16      52                                                          22    1.66    0.23  1.0000
  11   3   2      30      68                                                          39    1.71    0.33  1.0000
  -3  11   2     120      77                                                         137    1.76    0.03  1.0000
  -2  11  -2     126      53                                                         103    2.55   -0.28  1.0000
 -11  -2   2     155      68                                                         127    2.74    0.83  1.0000
  11   2   2      81      64                                                          62    2.66    0.44  1.0000
  -2  11   2     154     141                                                         126    2.82    1.05  1.0000
  -2  11   2     121      76                                                          96    2.82    1.05  1.0000
  11   1   2      20      70                                                           7    4.29    0.33  1.0000
  -1  11   2       3      76                                                         -30    4.13    0.83  1.0000
  -1  11   2       3      74                                                         -12    4.13    0.83  1.0000
 -11  -1   2       3      67                                                         -59    4.32    0.09  1.0000
  -1  11   2       3     135                                                         -85    4.13    0.83  1.0000
   0  11   2     243     127                                                         202    3.14    2.44  1.0000
 -11   0   2     267      72                                                         223    3.25    2.80  1.0000
   0  11   2     429      70                                                         375    3.14    2.44  1.0000
  11   0   2     400      78                                                         353    2.82    2.27  1.0000
   0  11   2     350      82                                                         301    3.14    2.44  1.0000
 -11   1  -2     208      61                                                         208   -0.03   -0.27  1.0000
   1  11   2     369      83                                                         366    0.17    0.43  1.0000
   1  11   2     521     141                                                         517    0.17    0.43  1.0000
 -11   1   2     359      76                                                         360   -0.12    0.97  1.0000
  11  -1   2     404      82                                                         404   -0.03    0.27  1.0000
 -11   2  -2     998     123                                                         997   -0.11   -1.28  1.0000
 -11   2   2     948     134                                                         947   -0.13    1.48  1.0000
   2  11   2     945     144                                                         943   -0.19    1.66  1.0000
   2  11   2     947     176                                                         945   -0.19    1.66  1.0000
  11  -2   2     777      90                                                         776   -0.11    1.28  1.0000
 -11   3  -2       0      66                                                         -20    1.25    0.57  1.0000
 -11   3   2       1      75                                                         -58    1.35   -1.15  1.0000
   3  11   2     104      85                                                          95    1.17   -0.77  1.0000
   3  11   2      82     150                                                          74    1.17   -0.77  1.0000
  11  -3   2       0      64                                                          -2    1.25   -0.57  1.0000
 -11   4  -2       7      69                                                          14    2.70    0.07  1.0000
   4  11   2       1      79                                                        -115    2.53   -0.57  1.0000
   4  11   2       1     150                                                         -73    2.53   -0.57  1.0000
 -11   4   2       1      75                                                          -9    2.75   -0.09  1.0000
 -11   5  -2     110      67                                                         133   -2.59   -1.03  1.0000
   5  11   2     248      85                                                         284   -2.64    1.18  1.0000
   5  11   2     176     147                                                         206   -2.64    1.18  1.0000
 -11   5   2     148      80                                                         175   -2.59    0.93  1.0000
 -11   6  -2       2      66                                                         -42   -3.31   -1.57  1.0000
   6  11   2       2      82                                                          -8   -3.37    1.30  1.0000
   6  11   2      53     150                                                          77   -3.37    1.30  1.0000
 -11   6   2      99      80                                                         130   -3.44    0.28  1.0000
 -11   7  -2      72      71                                                          79    0.90   -0.46  1.0000
   7  11   2      34      84                                                          39    0.85    1.02  1.0000
   7  11   2     111     151                                                         119    0.85    1.02  1.0000
 -11   7   2      29      81                                                          35    1.11    1.30  1.0000
 -11   8  -2      13      72                                                          25   -3.00    1.94  1.0000
 -11   8   2      22      85                                                          39   -3.21   -2.27  1.0000
   8  11   2       1      92                                                           5   -3.04   -2.24  1.0000
   8  11   2     167     147                                                         207   -3.04   -2.24  1.0000
 -11   9  -2       1      73                                                         -16    0.41   -2.38  1.0000
   9  11   2       1     145                                                        -100    0.62    2.00  1.0000
 -11   9   2       1      84                                                         -14    0.74    1.89  1.0000
   9  11   2       1      91                                                        -160    0.62    2.00  1.0000
 -11  10  -2     206      76                                                         223   -1.17    1.93  1.0000
 -11  10   2     109      90                                                         123   -1.31   -2.23  1.0000
  10  11   2     167     146                                                         182   -1.18   -2.09  1.0000
  10  11   2      94      92                                                         106   -1.18   -2.09  1.0000
 -11  11  -2      26      75                                                          56   -4.97   -3.93  1.0000
  11  11   2      29     145                                                          55   -4.31    3.28  1.0000
 -11  11   2      58      94                                                          93   -4.45    2.32  1.0000
  11  11   2       1      90                                                           3   -4.31    3.28  1.0000
 -11  12  -2      56      74                                                          54   -0.24    0.48  1.0000
  12  11   2      43      90                                                          42   -0.25   -0.04  1.0000
 -11  12   2      41      95                                                          40   -0.10   -0.04  1.0000
  12  11   2     180     133                                                         177   -0.25   -0.04  1.0000
 -10  12  -2       3      68                                                         -47    4.39   -0.19  1.0000
 -10  12   2       3      94                                                         -11    4.31   -0.38  1.0000
  12  10   2       3     130                                                         -21    4.34    0.12  1.0000
  12  10   2       3      83                                                         -78    4.34    0.12  1.0000
  -9  12  -2       5      66                                                         -34    0.69    5.09  1.0000
  12   9   2       3     109                                                          13    0.48   -5.87  1.0000
  -9  12   2      80      94                                                         120    0.50   -5.52  1.0000
  12   9   2       6      79                                                         -96    0.48   -5.87  1.0000
  -8  12  -2       0      64                                                          -2   -0.22   -0.40  1.0000
  12   8   2      26      80                                                          27   -0.28   -0.12  1.0000
  -8  12   2       0      91                                                         -28   -0.30   -0.27  1.0000
  -7  12  -2     341      67                                                         333    0.58    0.66  1.0000
  -7  12   2     326      93                                                         321    0.34   -0.49  1.0000
  12   7   2     300      89                                                         296    0.33   -0.70  1.0000
  -6  12  -2     571     107                                                         587    0.79    0.26  1.0000
  -6  12   2     533      98                                                         552    0.95    0.19  1.0000
  12   6   2     443      89                                                         460    0.91    0.35  1.0000
  -5  12  -2      72      58                                                          80   -1.07   -0.13  1.0000
  12   5   2       0      74                                                        -112   -0.90    0.94  1.0000
  -5  12   2      25      89                                                          30   -1.13    1.11  1.0000
  -4  12  -2       9      58                                                          64   11.99    1.03  1.0000
  12   4   2       1      73                                                          36   11.94    0.52  1.0000
  -4  12   2       1      85                                                          17   11.94    0.59  1.0000
  -3  12  -2      12      57                                                         -64    1.33   -7.97  1.0000
  -3  12   2      33      84                                                          88    1.08    8.96  1.0000
  12   3   2      54      72                                                         121    1.11    8.98  1.0000
  12   2   2      46      72                                                          93    6.72    0.03  1.0000
  -2  12   2      26      83                                                          62    6.63    0.19  1.0000
  -2  12   2      49     145                                                          96    6.63    0.19  1.0000
  -1  12   2     356     152                                                         391    2.02    1.73  1.0000
  12   1   2     336      77                                                         364    1.70    1.42  1.0000
  -1  12   2     297      87                                                         329    2.02    1.73  1.0000
 -12  -1   2     243      77                                                         274    2.21    1.61  1.0000
  -1  12   2     586     113                                                         630    2.02    1.73  1.0000
   0  12   2      52      83                                                          47    0.78    1.26  1.0000
   0  12   2     130      66                                                         122    0.78    1.26  1.0000
 -12   0   2      66      75                                                          62    0.61    1.19  1.0000
  12   0   2       0      77                                                         -23    0.77    1.21  1.0000
   0  12   2     257     132                                                         246    0.78    1.26  1.0000
 -12   1  -2      90      67                                                          79    1.48    0.28  1.0000
 -12   1   2       1      77                                                         -23    1.70   -0.61  1.0000
  12  -1   2       0      63                                                          -1    1.48   -0.28  1.0000
   1  12   2       3     142                                                           1    1.62   -0.44  1.0000
   1  12   2       0      84                                                         -17    1.62   -0.44  1.0000
 -12   2  -2      26      72                                                          40   -2.88    0.36  1.0000
   2  12   2       2      87                                                         -81   -2.88    0.56  1.0000
  12  -2   2      20      66                                                          33   -2.88   -0.36  1.0000
 -12   2   2       1      79                                                         -42   -2.86    0.36  1.0000
   2  12   2       2     146                                                        -168   -2.88    0.56  1.0000
 -12   3  -2      75      72                                                          75   -0.07   -1.68  1.0000
 -12   3   2      96      79                                                          96   -0.05    1.80  1.0000
   3  12   2     211     154                                                         212   -0.16    2.16  1.0000
  12  -3   2     208      70                                                         208   -0.07    1.68  1.0000
   3  12   2     143      89                                                         144   -0.16    2.16  1.0000
 -12   4  -2    1009     136                                                        1015    0.25    0.51  1.0000
   4  12   2    1094     145                                                        1101    0.27   -0.45  1.0000
   4  12   2    1335     183                                                        1343    0.27   -0.45  1.0000
 -12   4   2     926     136                                                         930    0.16    0.23  1.0000
 -12   5  -2      58      73                                                          53    0.89   -1.70  1.0000
   5  12   2       1      82                                                         -15    0.62    2.16  1.0000
   5  12   2       1     151                                                        -108    0.62    2.16  1.0000
 -12   5   2      83      81                                                          81    0.50    1.92  1.0000
 -12   6  -2       8      72                                                          17   -3.15    0.18  1.0000
   6  12   2       0     157                                                           2   -3.31    1.33  1.0000
 -12   6   2      22      82                                                          37   -3.24    0.75  1.0000
   6  12   2      47      84                                                          69   -3.31    1.33  1.0000
 -12   7  -2       1      77                                                           2    0.94    3.32  1.0000
   7  12   2      76      86                                                          92    0.90   -3.16  1.0000
 -12   7   2       1      83                                                           1    0.86   -3.12  1.0000
   7  12   2      57     157                                                          71    0.90   -3.16  1.0000
 -12   8  -2      86      79                                                         113   -3.15    0.83  1.0000
   8  12   2       2     150                                                          -6   -3.14   -0.87  1.0000
 -12   8   2     139      87                                                         173   -3.08   -1.03  1.0000
   8  12   2       2      92                                                        -155   -3.14   -0.87  1.0000
 -12   9  -2      67      80                                                          62   -0.73    0.71  1.0000
   9  12   2      48      98                                                          43   -0.79   -1.24  1.0000
   9  12   2      76     151                                                          70   -0.79   -1.24  1.0000
 -12   9   2     119      89                                                         108   -1.12   -1.70  1.0000
 -12  10  -2       8      78                                                          10   -0.69   -0.46  1.0000
 -12  10   2     154      91                                                         162   -0.72    0.10  1.0000
  10  12   2       5     153                                                           7   -0.72    1.04  1.0000
  10  12   2       0      94                                                         -56   -0.72    1.04  1.0000
 -12  11  -2      32      81                                                          63   -5.16    2.30  1.0000
 -12  11   2      62      94                                                         103   -5.10   -2.31  1.0000
  11  12   2       3     155                                                          15   -5.07   -2.12  1.0000
  11  12   2       5      95                                                         -70   -5.07   -2.12  1.0000
 -10  13  -2      43      74                                                          48    0.78    1.04  1.0000
  13  10   2       0      88                                                        -125    0.65   -0.71  1.0000
 -10  13   2      26     100                                                          30    0.92   -0.18  1.0000
  13  10   2       0     119                                                         -53    0.65   -0.71  1.0000
  -9  13  -2     119      72                                                         107   -1.39   -0.63  1.0000
  13   9   2       0      96                                                          -6   -1.51    0.30  1.0000
  -9  13   2      33      98                                                          26   -1.54    0.46  1.0000
  -8  13  -2       4      68                                                          12   -3.56    0.04  1.0000
  -8  13   2      41      96                                                          63   -3.69    0.46  1.0000
  13   8   2       2      92                                                         -37   -3.50    0.11  1.0000
  -7  13  -2      21      66                                                          52    6.64   -2.09  1.0000
  13   7   2       9      86                                                         -38    6.32    2.83  1.0000
  -7  13   2       9      92                                                         -73    5.90    3.63  1.0000
  -6  13  -2      73      64                                                          54    3.20   -2.13  1.0000
  -6  13   2       3      94                                                         -82    3.31    1.98  1.0000
  13   6   2       3      83                                                         -50    3.09    2.48  1.0000
  -5  13  -2     336      68                                                         358   -1.25    1.54  1.0000
  -5  13   2     147      95                                                         164   -1.63   -0.50  1.0000
  13   5   2     221      83                                                         240   -1.37   -1.02  1.0000
  13   4   2     234      80                                                         235    0.11   -0.08  1.0000
  -4  13   2     426      91                                                         426    0.00    0.20  1.0000
  13   3   2       4      69                                                         -45    4.74    1.33  1.0000
  -3  13   2      43      87                                                          21    4.75    0.42  1.0000
  -2  13   2       1      86                                                         -76   -1.18    1.76  1.0000
  -1  13   2       1     142                                                        -123    1.20   -2.28  1.0000
  -1  13   2      78      79                                                          72    1.20   -2.28  1.0000
  -1  13   2      80      86                                                          74    1.20   -2.28  1.0000
  13   1   2       1      76                                                         -44    1.38   -2.32  1.0000
 -13   0  -2      48      70                                                          63   -0.52   -4.34  1.0000
  13   0   2       3      79                                                         -70   -0.52    4.34  1.0000
   0  13   2     140     135                                                         164   -0.54    4.15  1.0000
   0  13   2       3      84                                                         -55   -0.54    4.15  1.0000
 -13   0   2      66      78                                                          77   -0.13    3.19  1.0000
 -13   1  -2      34      77                                                          27   -1.55   -0.11  1.0000
 -13   1   2      14      78                                                          10   -1.45    0.73  1.0000
   1  13   2       1      87                                                        -155   -1.49    1.03  1.0000
   1  13   2       1     145                                                         -21   -1.49    1.03  1.0000
  13  -1   2      50      64                                                          41   -1.55    0.11  1.0000
 -13   2  -2       4      77                                                           3    0.32   -0.80  1.0000
 -13   2   2      17      81                                                          16    0.16    0.65  1.0000
   2  13   2       0     154                                                         -96    0.21    1.05  1.0000
   2  13   2     158      91                                                         156    0.21    1.05  1.0000
  13  -2   2      58      66                                                          56    0.32    0.80  1.0000
 -13   3  -2       3      77                                                         -89   -3.63   -1.52  1.0000
 -13   3   2       3      82                                                          12   -3.72    1.36  1.0000
   3  13   2     114     157                                                         148   -3.48    0.84  1.0000
  13  -3   2       2      66                                                           8   -3.63    1.52  1.0000
   3  13   2       0      90                                                           3   -3.48    0.84  1.0000
 -13   4  -2      10      78                                                           3    3.38   -1.01  1.0000
 -13   4   2     197      83                                                         160    3.25    1.39  1.0000
   4  13   2      85      83                                                          62    3.19    1.16  1.0000
   4  13   2      72     164                                                          51    3.19    1.16  1.0000
 -13   5  -2       8      78                                                          10   -0.91    3.07  1.0000
   5  13   2      38     154                                                          46   -1.22   -2.90  1.0000
   5  13   2      53      86                                                          63   -1.22   -2.90  1.0000
 -13   5   2      83      84                                                          93   -0.96   -2.59  1.0000
 -13   6  -2     162      83                                                         143   -1.78    0.55  1.0000
 -13   6   2     113      85                                                          98   -1.71   -0.73  1.0000
   6  13   2     189     155                                                         170   -1.66   -0.31  1.0000
   6  13   2     131      87                                                         115   -1.66   -0.31  1.0000
 -13   7  -2       0      83                                                         -81   -1.07   -0.23  1.0000
   7  13   2       0     168                                                        -110   -1.10    0.53  1.0000
 -13   7   2      63      86                                                          70   -1.02    0.29  1.0000
   7  13   2       0      85                                                         -94   -1.10    0.53  1.0000
 -13   8  -2       6      86                                                          38    7.79    3.98  1.0000
   8  13   2      73     164                                                         148    7.35   -4.56  1.0000
 -13   8   2       0      87                                                           9    7.53   -4.09  1.0000
   8  13   2      13      96                                                        -175    7.35   -4.56  1.0000
 -13   9  -2       7      85                                                           5    0.82   -0.77  1.0000
 -13   9   2       0      92                                                         -13    0.92    1.27  1.0000
   9  13   2     219     164                                                         209    0.79    1.31  1.0000
   9  13   2      72     102                                                          66    0.79    1.31  1.0000
 -13  10  -2       2      84                                                         -38    2.21    2.85  1.0000
  10  13   2       2     101                                                         -74    2.03   -2.68  1.0000
  10  13   2       2     163                                                        -106    2.03   -2.68  1.0000
 -13  10   2       8      93                                                          16    2.27   -2.68  1.0000
  -9  14  -2      28      75                                                          37    0.52    3.05  1.0000
  14   9   2      46     100                                                          47    0.16   -0.91  1.0000
  -9  14   2      23     104                                                          24   -0.13    0.02  1.0000
  -8  14  -2       3      71                                                         -53   -4.21   -0.76  1.0000
  -8  14   2       3     102                                                         -12   -4.13    0.67  1.0000
  14   8   2      29      95                                                          16   -3.98    0.35  1.0000
  -7  14  -2      49      70                                                          51    0.39    0.50  1.0000
  14   7   2     132      92                                                         135    0.32   -0.44  1.0000
  -7  14   2     142     104                                                         145    0.27   -0.02  1.0000
  -6  14  -2      31      69                                                          17    3.74    1.23  1.0000
  14   6   2     106      91                                                          80    3.57   -1.13  1.0000
  -6  14   2       2      99                                                         -33    3.51   -0.17  1.0000
  14   5   2      16      83                                                          98  -13.40    4.20  1.0000
  -5  14   2       9      94                                                          78  -13.30    3.62  1.0000
  -4  14   2      70      95                                                         127   -4.54   -5.71  1.0000
  -3  14   2     179      95                                                         203   -2.12    0.51  1.0000
  -2  14   2     407      99                                                         467    3.37    0.67  1.0000
  -2  14   2     842     126                                                         928    3.37    0.67  1.0000
 -14  -1  -2      53      78                                                          54    0.08    1.19  1.0000
  -1  14   2     145     156                                                         147   -0.16    0.30  1.0000
  14   1   2      29      77                                                          29    0.08   -1.19  1.0000
  -1  14   2       6      81                                                           6   -0.16    0.30  1.0000
  -1  14   2       0      91                                                        -113   -0.16    0.30  1.0000
 -14   0  -2       0      80                                                           8   -5.14   -1.89  1.0000
  14   0   2       5      76                                                         -12   -5.14    1.89  1.0000
   0  14   2      61      91                                                          98   -4.86    0.83  1.0000
   0  14   2      10     139                                                          27   -4.86    0.83  1.0000
 -14   1  -2       2      83                                                           5    0.55   -2.42  1.0000
   1  14   2      13      94                                                          21    0.54    2.53  1.0000
 -14   1   2       5      83                                                          10    0.87    2.12  1.0000
   1  14   2       1     149                                                         -87    0.54    2.53  1.0000
  14  -1   2      18      67                                                          27    0.55    2.42  1.0000
 -14   2  -2       8      84                                                         -40   -4.70    4.81  1.0000
   2  14   2      33     161                                                          73   -5.04   -4.36  1.0000
 -14   2   2       8      85                                                          -6   -5.32   -4.24  1.0000
  14  -2   2       7      68                                                          31   -4.70   -4.81  1.0000
   2  14   2       8      93                                                         -63   -5.04   -4.36  1.0000
 -14   3  -2      50      85                                                          41   -1.76   -2.11  1.0000
   3  14   2     135      95                                                         117   -2.13    1.99  1.0000
 -14   3   2     206      87                                                         184   -2.06    2.14  1.0000
   3  14   2      69     163                                                          56   -2.13    1.99  1.0000
 -14   4  -2     114      88                                                         163   -4.90    0.57  1.0000
   4  14   2       4     160                                                        -202   -5.02   -0.02  1.0000
   4  14   2      65      84                                                         104   -5.02   -0.02  1.0000
 -14   4   2       1      85                                                          10   -4.81    0.60  1.0000
 -14   5  -2      19      86                                                          19    0.81   -2.77  1.0000
 -14   5   2      43      84                                                          40    1.12    2.13  1.0000
   5  14   2      12      85                                                          11    1.04    2.51  1.0000
   5  14   2       1     160                                                         -78    1.04    2.51  1.0000
 -14   6  -2       7      87                                                         -28   -6.34   -1.01  1.0000
   6  14   2       7      87                                                          -3   -6.41    0.10  1.0000
   6  14   2      53     162                                                          99   -6.41    0.10  1.0000
 -14   6   2       7      86                                                         -30   -6.45   -0.33  1.0000
 -14   7  -2       2      90                                                         -40    3.26   -1.01  1.0000
 -14   7   2     178      91                                                         144    3.20    1.16  1.0000
   7  14   2       2      88                                                        -129    3.36    1.09  1.0000
   7  14   2       2     159                                                        -107    3.36    1.09  1.0000
 -14   8  -2     108      96                                                          99   -1.04    0.21  1.0000
   8  14   2     195     159                                                         182   -1.13    0.03  1.0000
 -14   8   2      46      91                                                          41   -0.85   -0.37  1.0000
   8  14   2      21     101                                                          17   -1.13    0.03  1.0000
 -14   9  -2       9      93                                                          11    2.59    1.51  1.0000
   9  14   2       2     157                                                         -24    2.68   -2.14  1.0000
   9  14   2       2     104                                                        -104    2.68   -2.14  1.0000
 -14   9   2       2      93                                                        -141    2.69   -1.65  1.0000
  -7  15   2      32     108                                                          66   -5.81   -0.72  1.0000
  15   7   2      70      97                                                         116   -5.67   -0.88  1.0000
  -6  15   2      44     102                                                          75    4.83   -0.24  1.0000
  15   6   2      51      91                                                          84    4.81   -0.53  1.0000
  -5  15   2      22      99                                                           6   -5.21   -0.58  1.0000
  -4  15   2      86      98                                                         155   -7.53   -0.03  1.0000
  -3  15   2       3      96                                                          21    5.03   -5.87  1.0000
 -15  -2  -2      24      83                                                          14    3.03   -2.66  1.0000
  -2  15   2     137      92                                                         109    3.17    1.82  1.0000
  -2  15   2       2      97                                                         -26    3.17    1.82  1.0000
 -15  -1  -2       4      87                                                           2    1.31    0.94  1.0000
  15   1   2     137      82                                                         125    1.31   -0.94  1.0000
  -1  15   2      40      78                                                          33    1.44   -0.48  1.0000
  -1  15   2      58      96                                                          49    1.44   -0.48  1.0000
 -15   0  -2     120      91                                                          91   -3.43   -1.15  1.0000
   0  15   2     243      98                                                         200   -3.47    0.55  1.0000
  15   0   2      86      65                                                          62   -3.43    1.15  1.0000
   0  15   2     126     142                                                          96   -3.47    0.55  1.0000
 -15   1  -2      68      92                                                         107   -4.50   -3.02  1.0000
   1  15   2       7     158                                                          20   -4.39    1.80  1.0000
  15  -1   2      11      64                                                          28   -4.50    3.02  1.0000
 -15   1   2     157      97                                                         204   -4.15    0.98  1.0000
   1  15   2      77     101                                                         114   -4.39    1.80  1.0000
 -15   2  -2      40      93                                                          51    1.86    0.50  1.0000
   2  15   2       2     164                                                        -112    0.77    2.87  1.0000
 -15   2   2      53      88                                                          67    1.29    1.85  1.0000
   2  15   2       2      95                                                        -112    0.77    2.87  1.0000
  15  -2   2       1      69                                                         -67    1.86   -0.50  1.0000
 -15   3  -2      38      92                                                          70   -5.16   -0.52  1.0000
 -15   3   2       8      89                                                          25   -5.32    0.23  1.0000
   3  15   2      73     171                                                         115   -5.19    0.32  1.0000
   3  15   2      60      98                                                          99   -5.19    0.32  1.0000
 -15   4  -2      22      94                                                          66    0.58   -8.20  1.0000
 -15   4   2      19      89                                                          68    1.51    9.06  1.0000
   4  15   2       6     167                                                          39    1.14    9.12  1.0000
   4  15   2      15      84                                                        -100    1.14    9.12  1.0000
 -15   5  -2      85      92                                                          85   -0.07   -1.12  1.0000
   5  15   2       0      87                                                         -46   -0.15    1.44  1.0000
 -15   5   2     208      90                                                         211    0.04    1.59  1.0000
   5  15   2       0     166                                                        -104   -0.15    1.44  1.0000
 -15   6  -2       2      92                                                        -140    2.91   -0.60  1.0000
   6  15   2       2      88                                                        -117    3.03    0.60  1.0000
 -15   6   2       2      90                                                         -25    3.11    0.75  1.0000
   6  15   2       2     175                                                         -31    3.03    0.60  1.0000
 -15   7  -2      93     103                                                         181   -8.98   -0.91  1.0000
   7  15   2      59     169                                                         132   -8.90    1.65  1.0000
 -15   7   2      45      94                                                         111   -8.95    1.12  1.0000
   7  15   2      15      90                                                         -22   -8.90    1.65  1.0000
  -5  16   2       1     105                                                        -150    1.76    1.25  1.0000
  -4  16   2       4     102                                                         -13   -4.66   -0.90  1.0000
 -16  -3  -2       1      86                                                         -32   -1.47    1.29  1.0000
  -3  16   2     318      97                                                         296   -1.48   -1.05  1.0000
  -3  16   2       1     102                                                         -85   -1.48   -1.05  1.0000
 -16  -2  -2      62      92                                                          61    0.24    0.62  1.0000
  -2  16   2       0      95                                                         -10    0.29   -0.48  1.0000
  16   2   2      16      82                                                          15    0.24   -0.62  1.0000
  -2  16   2       0     102                                                         -76    0.29   -0.48  1.0000
 -16  -1  -2       3      95                                                         -30   -0.10   -3.98  1.0000
  16   1   2      94      67                                                         125   -0.10    3.98  1.0000
  -1  16   2       2     101                                                           7    0.12    4.41  1.0000
 -16   0  -2     221     100                                                         297   -5.57    0.66  1.0000
   0  16   2       2     100                                                          14   -5.69    0.21  1.0000
  16   0   2       0      69                                                           4   -5.57   -0.66  1.0000
 -16   1  -2     168      99                                                         179   -0.93   -2.54  1.0000
  16  -1   2       1      69                                                          -2   -0.93    2.54  1.0000
   1  16   2      95     163                                                         104   -1.06    2.64  1.0000
   1  16   2       1     106                                                         -81   -1.06    2.64  1.0000
 -16   2  -2     156     103                                                         161    0.48   -0.28  1.0000
   2  16   2     321     178                                                         331    0.58    1.11  1.0000
 -16   2   2      48     102                                                          52    0.56    0.99  1.0000
   2  16   2      80     101                                                          85    0.58    1.11  1.0000
 -16   3  -2       0      99                                                        -148    0.89   -1.32  1.0000
   3  16   2       1     176                                                        -115    0.90    1.77  1.0000
   3  16   2       1     102                                                         -44    0.90    1.77  1.0000
 -16   3   2      18      94                                                          17    0.68    1.92  1.0000
 -16   4  -2       0     101                                                           0   -0.90    0.39  1.0000
   4  16   2       0      87                                                        -149   -0.65   -0.98  1.0000
   4  16   2      37     175                                                          42   -0.65   -0.98  1.0000
 -16   4   2      51      93                                                          56   -0.70   -0.35  1.0000
 -16   5  -2      22     104                                                          40    3.75   -1.15  1.0000
   5  16   2       5      89                                                         -94    3.89    3.90  1.0000
 -16   5   2      45      92                                                          83    4.00    4.08  1.0000
   5  16   2       5     174                                                         -96    3.89    3.90  1.0000
   0   0   3    8268     270                                                        7586   -9.37    5.07  1.0000
   0   0   3    8454     312                                                        7764   -9.37    5.07  1.0000
   0   0   3    8874     285                                                        8167   -9.37    5.07  1.0000
   0   1   3     122      54                                                          89    3.85    0.40  1.0000
   0  -1   3      71      34                                                          44    4.25    1.09  1.0000
   0   1   3     132      60                                                          97    3.85    0.40  1.0000
   0  -1   3      60      58                                                          35    4.25    1.09  1.0000
   0   1   3     113      46                                                          81    3.85    0.40  1.0000
  -1   0   3     152      41                                                         113    4.00    0.72  1.0000
   1   0   3     251      62                                                         198    4.21    0.69  1.0000
   1   0   3      99      41                                                          67    4.21    0.69  1.0000
  -1   0   3      46      57                                                          26    4.00    0.72  1.0000
   1   0   3      71      56                                                          44    4.21    0.69  1.0000
  -1   0   3     121      55                                                          87    4.00    0.72  1.0000
   0  -1   3       3      65                                                         -11    4.25    1.09  1.0000
  -1  -1   3      48      33                                                          61   -2.17    0.18  1.0000
   1   1   3       1      55                                                        -125   -2.65   -0.29  1.0000
   1  -1   3      11      35                                                          19   -2.33    0.21  1.0000
  -1   1   3      99      56                                                         120   -2.41   -0.01  1.0000
   1  -1   3      76      59                                                          94   -2.33    0.21  1.0000
  -1   1   3      57      54                                                          73   -2.41   -0.01  1.0000
  -1  -1   3      70      55                                                          86   -2.17    0.18  1.0000
   1   1   3      10      42                                                          18   -2.65   -0.29  1.0000
   1  -1   3      69      67                                                          86   -2.33    0.21  1.0000
   1   1   3       1      39                                                         -71   -2.65   -0.29  1.0000
  -1  -1   3      20      62                                                          29   -2.17    0.18  1.0000
  -1   1   3      86      46                                                         106   -2.41   -0.01  1.0000
  -1   2   3       4      54                                                          26    6.81   -2.27  1.0000
   1  -2   3      21      57                                                          59    7.01   -1.79  1.0000
  -2  -1   3      10      59                                                          -4    7.24   -1.76  1.0000
   2   1   3       7      45                                                          32    6.57   -2.57  1.0000
   2   1   3       8      62                                                          33    6.57   -2.57  1.0000
   2   1   3       9      56                                                         -12    6.57   -2.57  1.0000
   1  -2   3      72      73                                                         133    7.01   -1.79  1.0000
   1  -2   3       4      30                                                          26    7.01   -1.79  1.0000
  -1   2   3      22      54                                                          59    6.81   -2.27  1.0000
  -1   2   3       3      57                                                          22    6.81   -2.27  1.0000
  -2  -1   3      21      35                                                          59    7.24   -1.76  1.0000
   0   2   3       1      50                                                          -4   -1.66    0.96  1.0000
  -2   0   3       1      58                                                         -11   -0.95    2.04  1.0000
  -2   0   3       5      42                                                           9   -0.95    2.04  1.0000
   2   0   3      94      66                                                         109   -1.74   -0.10  1.0000
   0   2   3      58      57                                                          70   -1.66    0.96  1.0000
   0  -2   3      74      68                                                          86   -1.22    1.28  1.0000
   0  -2   3       1      27                                                          -7   -1.22    1.28  1.0000
   2   0   3       2      42                                                           5   -1.74   -0.10  1.0000
   2   0   3      26      59                                                          34   -1.74   -0.10  1.0000
   0  -2   3      51      55                                                          61   -1.22    1.28  1.0000
   0   2   3      10      55                                                          15   -1.66    0.96  1.0000
   2  -1   3       2      35                                                           1    5.72    1.85  1.0000
  -2   1   3       5      50                                                         -11    5.10    1.56  1.0000
   1   2   3       9      58                                                          30    5.66    1.83  1.0000
   1   2   3       0      49                                                          10    5.66    1.83  1.0000
  -1  -2   3     110      67                                                         163    5.26    1.11  1.0000
  -2   1   3       4      53                                                          18    5.10    1.56  1.0000
   2  -1   3       6      60                                                         -56    5.72    1.85  1.0000
  -1  -2   3       5      53                                                          -4    5.26    1.11  1.0000
  -2   1   3       5      61                                                          -1    5.10    1.56  1.0000
   1   2   3       1      44                                                          11    5.66    1.83  1.0000
  -1  -2   3      12      26                                                          33    5.26    1.11  1.0000
   2   2   3     182      62                                                         172   -0.94    0.61  1.0000
  -2   2   3     234      66                                                         225   -0.82    1.00  1.0000
   2  -2   3     203      35                                                         190   -1.21    1.04  1.0000
  -2   2   3     162      53                                                         154   -0.82    1.00  1.0000
   2   2   3     126      48                                                         118   -0.94    0.61  1.0000
   2  -2   3     236      62                                                         222   -1.21    1.04  1.0000
  -2   2   3     228      56                                                         219   -0.82    1.00  1.0000
   2   2   3     154      63                                                         145   -0.94    0.61  1.0000
  -2  -2   3     298      64                                                         284   -1.10    1.54  1.0000
  -2   3   3       1      55                                                         -59    2.26    0.76  1.0000
   3   2   3      92      51                                                          77    2.01    1.64  1.0000
  -2   3   3       1      62                                                         -31    2.26    0.76  1.0000
  -2   3   3      43      60                                                          31    2.26    0.76  1.0000
   3   2   3       1      59                                                          -5    2.01    1.64  1.0000
   2  -3   3      69      62                                                          58    1.72   -0.23  1.0000
   2  -3   3       1      30                                                          -8    1.72   -0.23  1.0000
  -1   3   3       6      58                                                          11   -1.94    0.58  1.0000
   1  -3   3      59      77                                                          69   -1.44   -0.52  1.0000
  -1   3   3      48      58                                                          60   -1.94    0.58  1.0000
  -3  -1   3      55      39                                                          64   -1.39    0.42  1.0000
   1  -3   3      11      27                                                          15   -1.44   -0.52  1.0000
   3   1   3      53      57                                                          65   -1.84   -0.69  1.0000
   3   1   3      22      47                                                          30   -1.84   -0.69  1.0000
   1  -3   3      66      58                                                          76   -1.44   -0.52  1.0000
  -1   3   3       1      61                                                         -43   -1.94    0.58  1.0000
   0  -3   3     231      75                                                         269    2.80    0.98  1.0000
   0  -3   3     130      27                                                         159    2.80    0.98  1.0000
   3   0   3     153      44                                                         182    2.60    0.57  1.0000
   0   3   3     196      58                                                         230    2.71    1.31  1.0000
   0  -3   3     277      57                                                         318    2.80    0.98  1.0000
   0   3   3     222      57                                                         259    2.71    1.31  1.0000
   3   0   3     207      61                                                         240    2.60    0.57  1.0000
   0   3   3     188      64                                                         222    2.71    1.31  1.0000
  -3   0   3     190      47                                                         227    2.95    1.36  1.0000
  -3   0   3     219      67                                                         259    2.95    1.36  1.0000
  -3   1   3    5813     221                                                        5956   -2.34    3.23  1.0000
  -1  -3   3    6122     257                                                        6286   -2.56    2.12  1.0000
   1   3   3    5890     230                                                        6049   -2.55    2.51  1.0000
  -3   1   3    5950     253                                                        6094   -2.34    3.23  1.0000
   3  -1   3    6073     229                                                        6249   -2.72    1.24  1.0000
   1   3   3    6004     231                                                        6164   -2.55    2.51  1.0000
   3  -1   3    5767     216                                                        5939   -2.72    1.24  1.0000
   1   3   3    5564     246                                                        5718   -2.55    2.51  1.0000
  -3   2   3       1      56                                                         -13    2.74   -0.34  1.0000
   3  -2   3      45      37                                                          61    2.63    0.49  1.0000
   2   3   3       1      59                                                          -5    2.66    0.35  1.0000
  -2  -3   3       1      65                                                          -2    2.73   -0.19  1.0000
  -3   2   3       1      51                                                         -20    2.74   -0.34  1.0000
   3  -2   3      48      62                                                          65    2.63    0.49  1.0000
   2   3   3      10      58                                                          19    2.66    0.35  1.0000
   2   3   3       1      52                                                         -21    2.66    0.35  1.0000
   3   3   3       3      52                                                           7   -2.20    0.54  1.0000
   3  -3   3      40      33                                                          51   -1.85   -0.40  1.0000
   3  -3   3       1      63                                                         -22   -1.85   -0.40  1.0000
  -3   3   3       5      55                                                           9   -1.61    0.40  1.0000
  -3   3   3       0      53                                                         -45   -1.61    0.40  1.0000
   3   3   3       1      62                                                         -22   -2.20    0.54  1.0000
  -3   4  -3     142      32                                                         116    2.75    0.15  1.0000
   4   3   3     107      54                                                          88    2.25   -0.20  1.0000
   3  -4   3     217      61                                                         184    2.75   -0.15  1.0000
  -3   4   3     272      65                                                         243    2.19   -0.47  1.0000
   4   3   3      91      65                                                          74    2.25   -0.20  1.0000
  -3   4   3     235      58                                                         208    2.19   -0.47  1.0000
  -2   4   3    4974     212                                                        5342    5.96    2.30  1.0000
   4   2   3    4860     209                                                        5219    5.93    1.34  1.0000
  -2   4   3    5075     208                                                        5446    5.96    2.30  1.0000
   2  -4   3    4895     207                                                        5254    5.93    1.15  1.0000
  -2   4   3    5136     231                                                        5509    5.96    2.30  1.0000
   4   2   3    5123     207                                                        5491    5.93    1.34  1.0000
  -1   4  -3      48      23                                                          37    1.95   -0.58  1.0000
   1  -4   3      63      75                                                          51    1.95    0.58  1.0000
  -1   4   3       8      63                                                           4    1.82    0.76  1.0000
  -1   4   3       1      58                                                         -55    1.82    0.76  1.0000
   4   1   3      52      60                                                          41    1.88    0.36  1.0000
   4   1   3       1      46                                                         -16    1.88    0.36  1.0000
  -4  -1   3       1      40                                                           0    1.91    0.88  1.0000
  -1   4   3      22      58                                                          15    1.82    0.76  1.0000
   1  -4   3      15      56                                                           9    1.95    0.58  1.0000
   0   4  -3       3      20                                                           8    2.07   -3.14  1.0000
   4   0   3       1      41                                                         -63    0.66   -2.13  1.0000
  -4   0   3       3      44                                                         -40    2.40    3.61  1.0000
   0   4   3       0      62                                                         -11    0.31    0.08  1.0000
   0   4   3      97      62                                                          95    0.31    0.08  1.0000
   4   0   3       1      58                                                         -60    0.66   -2.13  1.0000
   0   4   3      19      22                                                          18    0.31    0.08  1.0000
   0  -4   3       3      54                                                         -92    2.07    3.14  1.0000
   0  -4   3     118      77                                                         149    2.07    3.14  1.0000
   4  -1   3     249      46                                                         310    4.31    0.61  1.0000
   1   4   3     271      68                                                         336    4.34    1.42  1.0000
   1   4   3     263      62                                                         327    4.34    1.42  1.0000
  -1  -4   3     482     107                                                         571    4.54    0.86  1.0000
   1   4   3     222      62                                                         281    4.34    1.42  1.0000
   4  -1   3     347      67                                                         419    4.31    0.61  1.0000
  -4   1   3     242      51                                                         307    4.56    1.46  1.0000
   2   4   3       0      64                                                          -6   -1.21    0.20  1.0000
   2   4   3     103      61                                                          93   -1.21    0.20  1.0000
   2   4   3      74      55                                                          66   -1.21    0.20  1.0000
  -4   2   3      71      51                                                          66   -0.81    0.94  1.0000
   4  -2   3     154      67                                                         145   -0.91    0.13  1.0000
   4  -2   3      56      40                                                          50   -0.91    0.13  1.0000
  -2  -4   3     179      73                                                         174   -0.55    0.93  1.0000
   4  -3   3      25      64                                                          20   -1.14    0.08  1.0000
   3   4   3      87      57                                                          76   -1.45    0.92  1.0000
  -4   3   3     100      54                                                          88   -1.44   -0.31  1.0000
   3   4   3       1      68                                                          -7   -1.45    0.92  1.0000
  -4   4  -3       1      35                                                          -1   -2.63   -0.12  1.0000
  -4   4   3      25      60                                                          38   -2.74    0.65  1.0000
  -4   4   3       1      58                                                           4   -2.74    0.65  1.0000
   4   4   3      29      70                                                          43   -2.85    0.47  1.0000
   4  -4   3       1      62                                                        -100   -2.63    0.12  1.0000
   4   4   3      29      57                                                          44   -2.85    0.47  1.0000
  -4   5  -3      57      37                                                          47    1.61    0.14  1.0000
   5   4   3      44      72                                                          36    1.54    0.17  1.0000
   5   4   3      48      59                                                          39    1.54    0.17  1.0000
   4  -5   3       0      65                                                         -10    1.61   -0.14  1.0000
  -4   5   3      58      64                                                          49    1.39    0.07  1.0000
  -3   5  -3     100      33                                                          69    4.05   -1.02  1.0000
   5   3   3      55      67                                                          33    3.93    1.30  1.0000
  -3   5   3     125      65                                                          92    3.80    2.04  1.0000
  -3   5   3      32      60                                                          16    3.80    2.04  1.0000
   5   3   3       3      55                                                         -11    3.93    1.30  1.0000
  -2   5  -3     105      25                                                          65    5.19   -0.89  1.0000
  -2   5   3     148      64                                                          98    5.39    0.83  1.0000
   5   2   3     111      52                                                          69    5.28    0.54  1.0000
  -2   5   3      26      66                                                           8    5.39    0.83  1.0000
  -2   5   3     200      62                                                         141    5.39    0.83  1.0000
   5   2   3     311      68                                                         237    5.28    0.54  1.0000
  -1   5  -3      52      25                                                          35    3.09   -0.21  1.0000
  -1   5   3      85      61                                                          66    2.58    1.18  1.0000
  -5  -1   3      21      40                                                          11    2.99    1.03  1.0000
   5   1   3      77      63                                                          58    2.72    0.07  1.0000
  -1   5   3     111      70                                                          89    2.58    1.18  1.0000
  -1   5   3      86      62                                                          67    2.58    1.18  1.0000
   5   1   3     190      49                                                         160    2.72    0.07  1.0000
   0   5   3      48      46                                                          32   -3.01   -0.18  1.0000
   5   0   3      48      44                                                          33   -2.74    0.12  1.0000
   0   5   3      39      67                                                          25   -3.01   -0.18  1.0000
   5   0   3       1      62                                                         -21   -2.74    0.12  1.0000
   0   5   3      73      65                                                          53   -3.01   -0.18  1.0000
   0  -5   3     150      82                                                         126   -2.46    0.80  1.0000
  -5   0   3     112      46                                                          90   -2.61    0.38  1.0000
   5  -1   3      50      66                                                          38    2.10    0.19  1.0000
  -1  -5   3      26      77                                                          18    2.20    0.92  1.0000
   1   5   3       1      60                                                         -30    1.81    0.75  1.0000
   5  -1   3      16      45                                                          10    2.10    0.19  1.0000
   1   5   3      62      57                                                          51    1.81    0.75  1.0000
   1   5   3       1      70                                                         -34    1.81    0.75  1.0000
  -5   1   3       1      48                                                         -29    2.12    1.16  1.0000
   5  -2   3       1      43                                                         -14   -0.54    2.06  1.0000
   2   5   3      79      64                                                          84   -0.28    1.38  1.0000
   5  -2   3       1      69                                                           1   -0.54    2.06  1.0000
  -5   2   3      70      54                                                          78   -0.91   -1.04  1.0000
   2   5   3       0      53                                                         -54   -0.28    1.38  1.0000
   2   5   3      21      72                                                          23   -0.28    1.38  1.0000
  -2  -5   3       5      74                                                           7   -0.94   -0.87  1.0000
   3   5   3      53      60                                                          80   -3.90    1.29  1.0000
  -5   3   3      79      58                                                         107   -3.52    1.68  1.0000
   3   5   3      33      73                                                          54   -3.90    1.29  1.0000
   5  -3   3      39      69                                                          62   -3.88    0.51  1.0000
  -5   4  -3       2      40                                                         -60   -3.11   -0.65  1.0000
  -5   4   3       2      61                                                         -38   -3.18   -0.10  1.0000
   4   5   3       2      77                                                         -99   -3.15    0.50  1.0000
   4   5   3       2      52                                                         -20   -3.15    0.50  1.0000
   5  -4   3      48      64                                                          32   -3.11    0.65  1.0000
  -5   5   3    1241     119                                                        1107    4.63    0.30  1.0000
   5   5   3     693      85                                                         593    4.65    0.41  1.0000
  -5   6  -3       0      41                                                          -6   -0.16   -0.51  1.0000
  -5   6   3       0      71                                                         -86   -0.18    0.72  1.0000
   6   5   3       0      12                                                         -30   -0.07    0.76  1.0000
  -4   6  -3     188      40                                                         208    1.51   -1.97  1.0000
  -4   6   3     169      67                                                         189    1.60    2.27  1.0000
   6   4   3     164      16                                                         184    1.66    2.34  1.0000
  -3   6  -3       7      33                                                          -9   -6.05   -0.79  1.0000
  -3   6   3       6      63                                                           0   -5.89    0.39  1.0000
  -3   6   3     132      72                                                          81   -5.89    0.39  1.0000
   6   3   3     110      55                                                          63   -6.09    0.52  1.0000
  -2   6  -3      80      32                                                          63    2.38   -1.09  1.0000
   6   2   3     110      52                                                          91    2.27    0.11  1.0000
  -2   6   3     131      75                                                         110    2.30    0.65  1.0000
  -2   6   3       1      68                                                         -48    2.30    0.65  1.0000
  -2   6   3       1      64                                                          -1    2.30    0.65  1.0000
   6   2   3     160      31                                                         137    2.27    0.11  1.0000
  -1   6  -3      41      22                                                          34    1.79    2.22  1.0000
  -1   6   3       1      65                                                         -11    2.16   -0.50  1.0000
  -1   6   3      38      75                                                          28    2.16   -0.50  1.0000
   6   1   3      27      47                                                          19    2.08   -0.62  1.0000
   6   1   3      52      63                                                          40    2.08   -0.62  1.0000
  -1   6   3      76      64                                                          61    2.16   -0.50  1.0000
  -6  -1   3       1      42                                                         -36    1.68   -1.51  1.0000
   0   6  -3      30      28                                                          31   -0.04   -1.70  1.0000
   6   0   3      78      66                                                          77   -0.27    1.08  1.0000
   6   0   3      54      52                                                          53   -0.27    1.08  1.0000
   0   6   3      34      66                                                          32   -0.53    0.85  1.0000
  -6   0   3      43      48                                                          42   -0.31    1.49  1.0000
   0   6   3      45      80                                                          42   -0.53    0.85  1.0000
   0   6   3      25      56                                                          23   -0.53    0.85  1.0000
   0  -6   3     148      83                                                         150   -0.04    1.70  1.0000
  -6   1   3      90      54                                                          88    0.26    0.68  1.0000
   1   6   3      82      82                                                          81    0.12    0.37  1.0000
  -1  -6   3     146      88                                                         146    0.02    0.44  1.0000
   1   6   3     151      59                                                         150    0.12    0.37  1.0000
   1   6   3      72      67                                                          71    0.12    0.37  1.0000
   6  -1   3      74      50                                                          73    0.11    0.12  1.0000
   6  -1   3     175      73                                                         174    0.11    0.12  1.0000
  -6   2   3    3261     155                                                        3410    3.01    0.84  1.0000
   6  -2   3    3277     147                                                        3425    3.03   -0.13  1.0000
   2   6   3    3331     167                                                        3473    2.89   -0.12  1.0000
   2   6   3    3383     153                                                        3526    2.89   -0.12  1.0000
  -2  -6   3    3461     181                                                        3617    3.05    1.09  1.0000
   6  -2   3    3211     155                                                        3357    3.03   -0.13  1.0000
   2   6   3    3399     172                                                        3542    2.89   -0.12  1.0000
   3   6   3       1      33                                                         -41   -1.33    1.41  1.0000
   6  -3   3     138      72                                                         151   -1.26    1.45  1.0000
   3   6   3     127      91                                                         140   -1.33    1.41  1.0000
  -3  -6   3     110      80                                                         121   -1.17    1.44  1.0000
  -6   3   3       8      62                                                          11   -1.32    1.42  1.0000
  -6   4  -3      88      48                                                          70    2.44   -0.98  1.0000
  -6   4   3      27      66                                                          17    2.57    1.78  1.0000
   6  -4   3      92      70                                                          73    2.44    0.98  1.0000
   4   6   3       1      93                                                         -22    2.47    0.77  1.0000
  -6   5  -3     265      52                                                         299    2.42    0.56  1.0000
  -6   5   3     224      74                                                         256    2.48   -0.68  1.0000
   6  -5   3     402      79                                                         443    2.42   -0.56  1.0000
   5   6   3     133      70                                                         158    2.48   -0.26  1.0000
  -6   6  -3       0      45                                                          -3    0.79    0.29  1.0000
  -6   6   3      18      74                                                          21    0.76    0.15  1.0000
   6   6   3       0      17                                                         -40    0.67    0.60  1.0000
  -6   7  -3     180      48                                                         145   -3.31   -0.19  1.0000
   7   6   3     229      71                                                         185   -3.72    0.83  1.0000
  -6   7   3     266      81                                                         219   -3.67    1.35  1.0000
   7   6   3     181      46                                                         142   -3.72    0.83  1.0000
  -5   7  -3       0      42                                                         -15    1.41   -0.07  1.0000
   7   5   3      90      25                                                          80    1.50    0.61  1.0000
   7   5   3       0      14                                                         -35    1.50    0.61  1.0000
  -5   7   3       1      76                                                         -18    1.61    0.98  1.0000
  -4   7  -3      27      39                                                          27   -0.07    0.17  1.0000
  -4   7   3       0      68                                                          -6    0.04   -0.99  1.0000
   7   4   3      54      22                                                          55    0.06   -1.18  1.0000
   7   4   3       0      10                                                         -31    0.06   -1.18  1.0000
  -3   7  -3       3      37                                                           1    1.79   -1.54  1.0000
  -3   7   3     142      68                                                         124    2.01    1.84  1.0000
  -3   7   3      32      89                                                          23    2.01    1.84  1.0000
   7   3   3      66      26                                                          54    1.92    1.98  1.0000
  -2   7  -3     335      41                                                         310   -1.68   -0.07  1.0000
   7   2   3     343      55                                                         318   -1.61   -0.74  1.0000
  -2   7   3     291      70                                                         269   -1.49   -1.00  1.0000
  -2   7   3     287      91                                                         265   -1.49   -1.00  1.0000
  -2   7   3     249      75                                                         229   -1.49   -1.00  1.0000
   7   1   3     799      23                                                         587    9.53    0.95  1.0000
  -7   0   3      27      52                                                          29   -0.35    0.34  1.0000
   0   7   3      44      68                                                          48   -0.71    0.95  1.0000
   7   0   3      30      46                                                          34   -0.76    0.04  1.0000
   7   0   3      50      53                                                          55   -0.76    0.04  1.0000
   0   7   3      77      59                                                          82   -0.71    0.95  1.0000
   0   7   3      32      94                                                          35   -0.71    0.95  1.0000
  -7   1   3      38      57                                                          49   -1.86    1.70  1.0000
   1   7   3     136      60                                                         159   -2.22    0.49  1.0000
  -1  -7   3      17      90                                                          23   -1.67    1.73  1.0000
   7  -1   3       1      50                                                         -33   -1.91    0.27  1.0000
   1   7   3      23      54                                                          33   -2.22    0.49  1.0000
   1   7   3       1      98                                                         -98   -2.22    0.49  1.0000
   7  -1   3      52      77                                                          64   -1.91    0.27  1.0000
   2   7   3     109     102                                                         111   -0.25   -0.12  1.0000
  -7   2   3      73      62                                                          76   -0.36   -0.41  1.0000
   7  -2   3      81      77                                                          83   -0.25   -0.08  1.0000
  -2  -7   3     259      91                                                         265   -0.43   -0.36  1.0000
   3   7   3      53     104                                                          42    1.91    0.06  1.0000
  -7   3   3      67      66                                                          55    1.87   -0.07  1.0000
   7  -3   3      53      73                                                          42    1.92    0.64  1.0000
  -7   4  -3     119      54                                                          71   -5.92   -0.38  1.0000
  -7   4   3       6      69                                                         -58   -5.76    0.40  1.0000
   7  -4   3     166      74                                                         108   -5.92    0.38  1.0000
   4   7   3     150     105                                                          95   -5.93    0.50  1.0000
  -7   5  -3      13      53                                                           7    2.27    0.53  1.0000
   5   7   3      29      89                                                          20    2.17   -0.23  1.0000
  -7   5   3       1      74                                                         -57    2.38   -0.23  1.0000
   7  -5   3      76      77                                                          61    2.27   -0.53  1.0000
   5   7   3       1      29                                                         -49    2.17   -0.23  1.0000
  -7   6  -3       5      52                                                         -30   -5.32    0.06  1.0000
   6   7   3      81      23                                                         130   -5.67    1.02  1.0000
  -7   6   3      60      81                                                         102   -5.57   -0.08  1.0000
   6   7   3      13      75                                                          37   -5.67    1.02  1.0000
  -7   7  -3      87      53                                                         123   -4.22    0.22  1.0000
   7   7   3     129      97                                                         176   -4.50   -0.15  1.0000
   7   7   3      45      80                                                          74   -4.50   -0.15  1.0000
  -7   7   3      60      84                                                          94   -4.55   -0.32  1.0000
  -7   8  -3       3      54                                                         -63   -3.84   -0.17  1.0000
   8   7   3      39     103                                                          63   -3.84    1.02  1.0000
   8   7   3       3      80                                                         -29   -3.84    1.02  1.0000
  -7   8   3      20      86                                                          38   -3.59    1.58  1.0000
  -6   8  -3       0      51                                                         -20    0.53   -0.31  1.0000
  -6   8   3       0      82                                                          -7    0.28    0.67  1.0000
   8   6   3       0      95                                                         -44    0.50    0.24  1.0000
   8   6   3      24      75                                                          22    0.50    0.24  1.0000
  -5   8  -3     144      48                                                         155   -1.06    0.42  1.0000
  -5   8   3     208      82                                                         217   -0.76    0.42  1.0000
   8   5   3     169      69                                                         179   -0.88    0.05  1.0000
   8   5   3     136      84                                                         145   -0.88    0.05  1.0000
  -4   8  -3    1318      93                                                        1343    0.84    0.27  1.0000
  -4   8   3    1442     137                                                        1475    1.02   -0.01  1.0000
   8   4   3    1178      98                                                        1213    1.19   -0.08  1.0000
  -3   8  -3       0      39                                                         -20   -0.21   -1.09  1.0000
   8   3   3       0      71                                                         -51   -0.02    0.50  1.0000
  -3   8   3       0      96                                                        -114   -0.12    0.70  1.0000
  -3   8   3      89      70                                                          90   -0.12    0.70  1.0000
   8   3   3       0      10                                                         -12   -0.02    0.50  1.0000
  -2   8  -3       6      37                                                          10    0.47   -4.18  1.0000
  -2   8   3       3      69                                                         -82    0.51    4.31  1.0000
  -2   8   3      11     102                                                          17    0.51    4.31  1.0000
   8   2   3      18      35                                                          26    0.59    4.24  1.0000
   8   2   3       3      10                                                         -14    0.59    4.24  1.0000
  -2   8   3      37      56                                                          51    0.51    4.31  1.0000
  -8  -1   3       3      53                                                         -26   -3.28   -1.92  1.0000
  -1   8   3     112     105                                                          83   -3.49   -2.03  1.0000
   8   1   3       4      52                                                         -23   -3.53   -2.91  1.0000
  -1   8   3      19      48                                                           8   -3.49   -2.03  1.0000
  -8   0   3      23      58                                                          34    2.47    2.01  1.0000
   8   0   3      40      60                                                          56    2.61    1.60  1.0000
   0   8   3      32     111                                                          46    2.47    1.96  1.0000
   0   8   3     168      64                                                         198    2.47    1.96  1.0000
   8  -1   3      96      53                                                          70   -3.40    0.30  1.0000
  -8   1   3      29      62                                                          16   -3.31    0.28  1.0000
   8  -1   3     111      27                                                          83   -3.40    0.30  1.0000
   1   8   3     159      60                                                         126   -3.32    0.92  1.0000
   1   8   3      32     111                                                          18   -3.32    0.92  1.0000
   8  -2   3       0      77                                                         -81    0.12    0.61  1.0000
  -8   2   3      65      65                                                          64    0.18    0.02  1.0000
  -2  -8   3      49      98                                                          48    0.11    0.77  1.0000
   2   8   3       0     116                                                         -66    0.18   -0.31  1.0000
  -8   3  -3       1      54                                                          -1   -2.14    0.26  1.0000
   3   8   3      33     122                                                          43   -2.03    0.33  1.0000
  -8   3   3       9      69                                                          15   -2.01    0.08  1.0000
   8  -3   3       3      73                                                           7   -2.14   -0.26  1.0000
   3   8   3       1      16                                                         -48   -2.03    0.33  1.0000
  -8   4  -3     114      61                                                          90   -2.88   -0.19  1.0000
   4   8   3      57     128                                                          39   -3.07   -0.17  1.0000
   8  -4   3     153      77                                                         125   -2.88    0.19  1.0000
  -8   4   3       2      74                                                          -4   -2.93   -0.50  1.0000
   4   8   3      27      59                                                          15   -3.07   -0.17  1.0000
  -8   5  -3      75      61                                                          83   -1.01   -0.39  1.0000
   8  -5   3       0      80                                                         -29   -1.01    0.39  1.0000
  -8   5   3       0      79                                                         -60   -1.04    0.89  1.0000
   5   8   3      49      79                                                          56   -1.17    0.68  1.0000
   5   8   3      74     126                                                          83   -1.17    0.68  1.0000
  -8   6  -3     986     116                                                        1063    2.91    1.34  1.0000
  -8   6   3    1038     149                                                        1120    3.03   -1.43  1.0000
   6   8   3     862     146                                                         938    3.04   -0.96  1.0000
   6   8   3    1163     147                                                        1251    3.04   -0.96  1.0000
  -8   7  -3      35      58                                                          71   -5.96    1.01  1.0000
   7   8   3     126      87                                                         190   -6.09   -0.34  1.0000
  -8   7   3      45      89                                                          85   -5.81   -1.45  1.0000
   7   8   3      68     123                                                         117   -6.09   -0.34  1.0000
  -8   8  -3       0      58                                                         -30    1.06   -0.25  1.0000
  -8   8   3      86      89                                                          80    0.84    1.25  1.0000
   8   8   3       0      82                                                         -57    0.85    0.88  1.0000
   8   8   3      42     116                                                          37    0.85    0.88  1.0000
  -8   9  -3      28      61                                                          28   -0.07   -0.14  1.0000
   9   8   3     124      87                                                         124    0.03   -0.25  1.0000
   9   8   3      61     114                                                          61    0.03   -0.25  1.0000
  -8   9   3     116      92                                                         117    0.19   -0.90  1.0000
  -7   9  -3       0      55                                                         -20    1.57    0.27  1.0000
  -7   9   3       1      88                                                         -27    1.71   -0.39  1.0000
   9   7   3      93      81                                                          81    1.46    0.20  1.0000
   9   7   3       0      98                                                         -25    1.46    0.20  1.0000
  -6   9  -3       7      51                                                          25   -5.37    2.33  1.0000
   9   6   3      73      77                                                         118   -5.28   -2.30  1.0000
  -6   9   3      61      89                                                         104   -5.39   -2.36  1.0000
   9   6   3      41      93                                                          76   -5.28   -2.30  1.0000
  -5   9  -3       7      49                                                           9   -0.68   -1.00  1.0000
   9   5   3      39      71                                                          43   -0.72    0.39  1.0000
   9   5   3      31      84                                                          34   -0.72    0.39  1.0000
  -5   9   3       0      83                                                          -7   -0.82    0.07  1.0000
  -4   9  -3      54      45                                                          45    1.81    2.66  1.0000
  -4   9   3       2      77                                                          -1    1.47   -2.51  1.0000
   9   4   3     119      85                                                         109    1.53   -2.87  1.0000
   9   4   3     103      64                                                          93    1.53   -2.87  1.0000
  -3   9  -3     142      42                                                         106    3.80   -0.19  1.0000
   9   3   3       3      36                                                          -1    3.74    0.39  1.0000
   9   3   3      75      86                                                          50    3.74    0.39  1.0000
  -3   9   3      29      74                                                          15    3.54    0.89  1.0000
  -2   9   3     192     121                                                         190   -0.22    0.79  1.0000
   9   2   3     373      83                                                         368   -0.28    0.03  1.0000
  -2   9   3     126      66                                                         124   -0.22    0.79  1.0000
   9   1   3       6      31                                                           4    1.14    0.22  1.0000
  -1   9   3       0     123                                                        -103    1.26    0.58  1.0000
  -1   9   3       0      21                                                         -27    1.26    0.58  1.0000
   9   1   3     160      59                                                         148    1.14    0.22  1.0000
  -1   9   3      53      76                                                          46    1.26    0.58  1.0000
   0   9   3       1     124                                                         -71    2.14   -1.56  1.0000
   9   0   3      21      56                                                          18    2.01   -1.88  1.0000
   0   9   3       1      64                                                         -22    2.14   -1.56  1.0000
  -9   0   3       1      61                                                         -89    2.13   -1.72  1.0000
   1   9   3     119      63                                                          81    4.53    1.48  1.0000
  -9   1   3       4      67                                                         -12    4.57    1.77  1.0000
   1   9   3       4     126                                                        -112    4.53    1.48  1.0000
   2   9   3       2      50                                                         -33   -3.34   -0.11  1.0000
  -2  -9   3      41     100                                                          24   -3.43   -1.25  1.0000
   2   9   3       2     134                                                        -203   -3.34   -0.11  1.0000
  -9   2   3       8      70                                                           2   -3.42   -0.56  1.0000
   9  -2   3      15      65                                                           6   -3.35   -0.73  1.0000
  -9   3  -3     194      63                                                         196   -0.17    0.47  1.0000
   9  -3   3     169      78                                                         171   -0.17   -0.47  1.0000
  -9   3   3      81      77                                                          84   -0.33   -1.17  1.0000
   3   9   3     264      85                                                         269   -0.30   -0.67  1.0000
   3   9   3     177     143                                                         181   -0.30   -0.67  1.0000
  -9   4  -3      36      66                                                          57   -3.64    0.97  1.0000
  -9   4   3       2      80                                                          -9   -3.52   -0.59  1.0000
   4   9   3      63      82                                                          90   -3.64   -0.24  1.0000
   9  -4   3       3      78                                                         -33   -3.64   -0.97  1.0000
   4   9   3     124     137                                                         161   -3.64   -0.24  1.0000
  -9   5  -3       1      66                                                         -29    1.80    1.17  1.0000
   5   9   3       2      81                                                        -131    1.84   -2.36  1.0000
  -9   5   3      48      84                                                          46    2.03   -2.61  1.0000
   9  -5   3       1      81                                                         -87    1.80   -1.17  1.0000
   5   9   3       2     137                                                         -68    1.84   -2.36  1.0000
  -9   6  -3      36      65                                                          29    1.41   -0.28  1.0000
  -9   6   3     156      87                                                         139    1.60    0.97  1.0000
   6   9   3       1     128                                                         -70    1.52    0.87  1.0000
   6   9   3      29      82                                                          22    1.52    0.87  1.0000
  -9   7  -3      46      63                                                          60   -2.05    1.89  1.0000
   7   9   3      99     123                                                         120   -2.14   -1.75  1.0000
  -9   7   3       2      87                                                         -18   -2.07   -2.40  1.0000
   7   9   3       1      90                                                         -28   -2.14   -1.75  1.0000
  -9   8  -3       2      64                                                          -5   -3.29    0.30  1.0000
   8   9   3      95      90                                                          69   -3.44   -0.05  1.0000
   8   9   3     257     117                                                         213   -3.44   -0.05  1.0000
  -9   8   3       2      89                                                         -69   -3.39   -0.03  1.0000
  -9   9  -3      33      67                                                          63   -5.11    1.42  1.0000
   9   9   3      11     116                                                          30   -5.05   -1.58  1.0000
   9   9   3      45      94                                                          79   -5.05   -1.58  1.0000
  -9   9   3      78      93                                                         121   -5.11   -0.91  1.0000
  -9  10  -3       2      65                                                         -40   -2.25    2.21  1.0000
  10   9   3      39     115                                                          60   -2.10   -3.32  1.0000
  10   9   3      25      91                                                          42   -2.10   -3.32  1.0000
  -9  10   3     142      97                                                         198   -1.83   -5.12  1.0000
  -8  10  -3       8      60                                                          15   -1.55    1.96  1.0000
  -8  10   3      39      91                                                          55   -1.39   -2.73  1.0000
  10   8   3       1     108                                                         -16   -1.33   -2.52  1.0000
  10   8   3       1      84                                                        -131   -1.33   -2.52  1.0000
  -7  10  -3      79      56                                                          82   -0.33    0.53  1.0000
  10   7   3      26      79                                                          27   -0.26   -0.32  1.0000
  10   7   3       0      95                                                        -102   -0.26   -0.32  1.0000
  -7  10   3       0      90                                                         -59   -0.06   -1.36  1.0000
  -6  10  -3      92      52                                                          84   -0.94    1.12  1.0000
  -6  10   3     112      89                                                         102   -1.15   -0.27  1.0000
  10   6   3     109      90                                                          99   -1.09   -0.58  1.0000
  10   6   3      68      73                                                          60   -1.09   -0.58  1.0000
  -5  10  -3      61      49                                                          60   -0.06    0.92  1.0000
  10   5   3     146      84                                                         145   -0.08   -1.08  1.0000
  10   5   3      40      71                                                          39   -0.08   -1.08  1.0000
  -5  10   3      17      80                                                          16   -0.26   -1.13  1.0000
  -4  10  -3      14      47                                                           5    3.68   -1.51  1.0000
  10   4   3       3      86                                                         -67    3.67    1.52  1.0000
  -4  10   3       3      78                                                         -58    3.65    1.23  1.0000
  10   4   3       3      65                                                         -41    3.67    1.52  1.0000
  -3  10   3     110      78                                                          93    2.84   -2.07  1.0000
  10   3   3       3      91                                                         -96    2.80   -2.51  1.0000
  10   3   3       3      68                                                         -30    2.80   -2.51  1.0000
  10   2   3       9      65                                                         -73    2.56    6.77  1.0000
  -2  10   3       9      78                                                         -98    2.63    6.63  1.0000
  -2  10   3      46     134                                                          96    2.63    6.63  1.0000
  10   2   3      54      85                                                         108    2.56    6.77  1.0000
  -2  10   3       9      77                                                          36    2.63    6.63  1.0000
  10   1   3      96      63                                                         105   -1.06    0.15  1.0000
  -1  10   3      77     137                                                          84   -0.91    0.20  1.0000
  10   1   3      57      87                                                          64   -1.06    0.15  1.0000
  -1  10   3      72      79                                                          79   -0.91    0.20  1.0000
  -1  10   3      86      81                                                          93   -0.91    0.20  1.0000
   0  10   3    1046     104                                                        1019   -0.99    0.07  1.0000
   0  10   3     874     152                                                         850   -0.99    0.07  1.0000
  10   0   3    1043     110                                                        1011   -1.21    0.25  1.0000
   0  10   3     988     136                                                         962   -0.99    0.07  1.0000
 -10   0   3    1066     125                                                        1037   -1.08    0.18  1.0000
  10   0   3     871     106                                                         841   -1.21    0.25  1.0000
 -10   1   3      24      73                                                          23    0.20    0.21  1.0000
   1  10   3       0     147                                                         -99    0.29    0.71  1.0000
  10  -1   3      27      85                                                          25    0.55    0.32  1.0000
   1  10   3      19      82                                                          18    0.29    0.71  1.0000
  10  -2   3       1      69                                                         -46   -1.98   -0.62  1.0000
   2  10   3      22      80                                                          33   -2.28   -1.11  1.0000
   2  10   3      59     150                                                          75   -2.28   -1.11  1.0000
 -10   2   3      61      75                                                          77   -2.15   -0.91  1.0000
 -10   3  -3       2      68                                                         -28   -2.99    1.28  1.0000
 -10   3   3      61      82                                                          43   -2.95   -0.39  1.0000
   3  10   3       2     148                                                          -5   -2.94   -0.57  1.0000
  10  -3   3      11      76                                                           4   -2.99   -1.28  1.0000
   3  10   3       2      86                                                          -3   -2.94   -0.57  1.0000
 -10   4  -3       1      71                                                         -19   -2.41    0.41  1.0000
   4  10   3       1     143                                                         -91   -2.52   -0.10  1.0000
  10  -4   3       1      79                                                         -56   -2.41   -0.41  1.0000
   4  10   3      28      84                                                          18   -2.52   -0.10  1.0000
 -10   4   3      21      83                                                          13   -2.42   -0.11  1.0000
 -10   5  -3      77      72                                                          69   -1.20   -0.89  1.0000
   5  10   3     137     138                                                         126   -1.28    1.52  1.0000
 -10   5   3     174      87                                                         162   -1.25    1.79  1.0000
   5  10   3       1      84                                                         -27   -1.28    1.52  1.0000
  10  -5   3      78      85                                                          70   -1.20    0.89  1.0000
 -10   6  -3       1      71                                                         -24    1.69    0.44  1.0000
   6  10   3       0      82                                                        -100    1.59    0.00  1.0000
   6  10   3      28     134                                                          21    1.59    0.00  1.0000
 -10   6   3       0      86                                                         -43    1.48    0.26  1.0000
 -10   7  -3      60      69                                                          80   -2.85    0.39  1.0000
   7  10   3       2      86                                                        -179   -2.92    0.11  1.0000
 -10   7   3       1      87                                                        -100   -2.73    0.40  1.0000
   7  10   3      60     128                                                          81   -2.92    0.11  1.0000
 -10   8  -3       7      71                                                         -13   -5.88    2.41  1.0000
   8  10   3      35      96                                                          11   -6.14   -2.35  1.0000
   8  10   3       8     126                                                        -113   -6.14   -2.35  1.0000
 -10   8   3      91      92                                                          49   -6.11   -2.13  1.0000
 -10   9  -3      41      72                                                          77   -5.62   -0.53  1.0000
   9  10   3      84     124                                                         133   -5.67    0.43  1.0000
 -10   9   3       5      95                                                          -4   -5.51   -0.13  1.0000
   9  10   3       7     100                                                          25   -5.67    0.43  1.0000
 -10  10  -3     186      75                                                         152   -3.08    1.13  1.0000
  10  10   3     157      97                                                         126   -3.06   -1.06  1.0000
  10  10   3     176     121                                                         143   -3.06   -1.06  1.0000
 -10  10   3     144      98                                                         115   -2.99   -1.32  1.0000
 -10  11  -3      12      71                                                          13   -0.37    0.39  1.0000
  11  10   3       0     121                                                         -81   -0.59   -0.20  1.0000
  11  10   3       0      95                                                          -8   -0.59   -0.20  1.0000
 -10  11   3     126      99                                                         131   -0.43   -0.69  1.0000
  -9  11  -3      51      66                                                          77   -3.74    1.33  1.0000
  11   9   3      34      92                                                          56   -3.80   -0.90  1.0000
  11   9   3       3     119                                                         -35   -3.80   -0.90  1.0000
  -9  11   3     106      97                                                         139   -3.48   -0.74  1.0000
  -8  11  -3      50      62                                                          26   -4.70    0.76  1.0000
  -8  11   3     107      95                                                          70   -4.64   -0.76  1.0000
  11   8   3     346     103                                                         277   -4.62   -1.13  1.0000
  11   8   3       4      84                                                          -3   -4.62   -1.13  1.0000
  -7  11  -3      60      57                                                          75   -1.66   -1.92  1.0000
  11   7   3      81      96                                                         102   -1.58    2.72  1.0000
  -7  11   3      79      95                                                         109   -1.49    4.04  1.0000
  11   7   3       2      76                                                         -36   -1.58    2.72  1.0000
  -6  11  -3      44      53                                                          44    3.26    3.10  1.0000
  11   6   3       2      75                                                         -24    2.93   -1.72  1.0000
  11   6   3      97      89                                                          84    2.93   -1.72  1.0000
  -6  11   3      30      89                                                          21    2.65   -1.03  1.0000
  11   5   3       3      72                                                          12   -4.19    2.59  1.0000
  -5  11   3      50      82                                                          81   -4.29    2.83  1.0000
  11   5   3      75      90                                                         111   -4.19    2.59  1.0000
  -4  11   3     105      82                                                          85   -2.35   -1.48  1.0000
  11   4   3      90      71                                                          72   -2.30   -1.34  1.0000
  11   4   3     108      94                                                          88   -2.30   -1.34  1.0000
  11   3   3       7      69                                                          12   -1.81   -0.84  1.0000
  -3  11   3       1      79                                                         -19   -1.81   -0.56  1.0000
  11   3   3      32      87                                                          42   -1.81   -0.84  1.0000
  -2  11   3      44     147                                                          55   -1.59   -1.80  1.0000
  -2  11   3      66      83                                                          79   -1.59   -1.80  1.0000
  11   2   3       1      85                                                          -7   -1.46   -1.06  1.0000
  -2  11   3      96      80                                                         112   -1.59   -1.80  1.0000
  11   2   3       1      68                                                          -2   -1.46   -1.06  1.0000
  11   1   3      18      65                                                          24   -1.65    0.18  1.0000
  -1  11   3      94     146                                                         108   -1.66    0.29  1.0000
  -1  11   3       1      80                                                         -19   -1.66    0.29  1.0000
  11   1   3      20      88                                                          27   -1.65    0.18  1.0000
  -1  11   3       1      81                                                         -28   -1.66    0.29  1.0000
   0  11   3      85      84                                                         112   -2.88   -2.67  1.0000
   0  11   3      23     152                                                          37   -2.88   -2.67  1.0000
  11   0   3      60      87                                                          80   -2.61   -2.87  1.0000
   0  11   3      33      68                                                          50   -2.88   -2.67  1.0000
   1  11   3     216     158                                                         196    1.68   -0.39  1.0000
 -11   1   3      81      74                                                          67    1.95   -0.65  1.0000
   1  11   3       1      86                                                         -52    1.68   -0.39  1.0000
  11  -1   3       1      90                                                         -20    1.77   -0.57  1.0000
 -11   2  -3     198      69                                                         196   -0.18    0.75  1.0000
  11  -2   3     132      72                                                         130   -0.18   -0.75  1.0000
   2  11   3     244     155                                                         240   -0.31   -0.30  1.0000
 -11   2   3     185      81                                                         183   -0.17    0.12  1.0000
   2  11   3     244      90                                                         240   -0.31   -0.30  1.0000
 -11   3  -3      58      75                                                          71   -1.86    1.03  1.0000
 -11   3   3       1      80                                                           3   -1.93   -0.77  1.0000
  11  -3   3      36      74                                                          47   -1.86   -1.03  1.0000
   3  11   3     142     152                                                         163   -1.91   -0.88  1.0000
   3  11   3       1      88                                                         -54   -1.91   -0.88  1.0000
 -11   4  -3      17      76                                                          28   -2.41   -1.53  1.0000
  11  -4   3      11      80                                                          20   -2.41    1.53  1.0000
   4  11   3      25      84                                                          47   -2.38    4.17  1.0000
 -11   4   3      54      86                                                          81   -2.57    3.49  1.0000
   4  11   3     166     150                                                         217   -2.38    4.17  1.0000
 -11   5  -3      19      76                                                          32   -2.87    2.00  1.0000
 -11   5   3     168      90                                                         202   -2.80   -1.65  1.0000
   5  11   3      82      88                                                         106   -2.85   -1.32  1.0000
   5  11   3       3     142                                                           9   -2.85   -1.32  1.0000
 -11   6  -3      76      77                                                          91    1.51    1.82  1.0000
   6  11   3       1      87                                                          -9    1.61   -1.22  1.0000
   6  11   3       1     138                                                         -92    1.61   -1.22  1.0000
 -11   6   3       7      90                                                          11    1.60   -1.04  1.0000
 -11   7  -3       6      76                                                          30   -6.80    3.07  1.0000
 -11   7   3      37      92                                                          85   -6.59   -3.41  1.0000
   7  11   3      10     133                                                        -124   -6.65   -3.29  1.0000
   7  11   3      10      89                                                         -50   -6.65   -3.29  1.0000
 -11   8  -3       0      75                                                        -109   -0.36   -0.43  1.0000
   8  11   3      10      99                                                          11   -0.33    0.66  1.0000
   8  11   3      24     128                                                          25   -0.33    0.66  1.0000
 -11   8   3      41      92                                                          42   -0.24    0.45  1.0000
 -11   9  -3       3      78                                                          -7   -3.75    2.24  1.0000
   9  11   3     112     127                                                         151   -3.80   -1.60  1.0000
   9  11   3      21     103                                                          40   -3.80   -1.60  1.0000
 -11   9   3      58      98                                                          87   -3.92   -1.22  1.0000
 -11  10  -3      15      77                                                          16   -0.31    0.44  1.0000
  10  11   3       0     127                                                         -38   -0.25   -0.06  1.0000
  10  11   3      73     101                                                          75   -0.25   -0.06  1.0000
 -11  10   3     119     101                                                         120   -0.12    0.20  1.0000
 -11  11  -3      29      78                                                          52   -3.49    2.69  1.0000
  11  11   3       3      98                                                        -152   -3.59   -1.99  1.0000
  11  11   3       3     127                                                         -77   -3.59   -1.99  1.0000
 -11  11   3      62     104                                                          90   -3.52   -1.56  1.0000
 -10  12  -3      43      74                                                          92   -7.22   -0.70  1.0000
  12  10   3      50      98                                                         103   -7.19    1.51  1.0000
 -10  12   3      25     103                                                          65   -7.02    2.54  1.0000
  12  10   3      10     125                                                          39   -7.19    1.51  1.0000
  -9  12  -3       1      66                                                         -35    2.00   -1.50  1.0000
  12   9   3      42      91                                                          56    1.85    1.65  1.0000
  12   9   3       1     109                                                         -47    1.85    1.65  1.0000
  -9  12   3       1      99                                                         -25    1.91    1.75  1.0000
  -8  12  -3      46      62                                                          75   -3.90    2.38  1.0000
  12   8   3      91     102                                                         127   -3.85   -1.51  1.0000
  12   8   3       3      86                                                          -3   -3.85   -1.51  1.0000
  -8  12   3       3     100                                                         -41   -3.90   -0.75  1.0000
  -7  12  -3       2      63                                                           9   -3.53    1.15  1.0000
  12   7   3     154      95                                                         193   -3.41   -1.28  1.0000
  -7  12   3      81      95                                                         112   -3.62   -1.11  1.0000
  12   7   3     133      86                                                         169   -3.41   -1.28  1.0000
  -6  12   3      84      88                                                          65   -2.63   -0.39  1.0000
  12   6   3     335      92                                                         296   -2.60   -0.33  1.0000
  12   6   3     212      85                                                         181   -2.60   -0.33  1.0000
  12   5   3      96      91                                                         134   -1.50   -4.64  1.0000
  -5  12   3       5      86                                                         -35   -1.64   -4.88  1.0000
  12   5   3       4      80                                                         -22   -1.50   -4.64  1.0000
  -4  12   3      13      86                                                          60   -9.57    1.65  1.0000
  12   4   3       6      75                                                          42   -9.54    2.17  1.0000
  12   4   3      32      97                                                          95   -9.54    2.17  1.0000
  -3  12   3      23      84                                                          80   -1.48  -10.23  1.0000
  12   3   3      20      74                                                         -22   -1.54  -10.51  1.0000
  12   3   3      32      90                                                          99   -1.54  -10.51  1.0000
  -2  12   3      28      83                                                          16   -3.07   -1.35  1.0000
  -2  12   3      32      85                                                          19   -3.07   -1.35  1.0000
  12   2   3       2      69                                                         -52   -2.93   -1.28  1.0000
  12   2   3     157      92                                                         127   -2.93   -1.28  1.0000
  -1  12   3       0      80                                                         -23    0.45   -0.67  1.0000
  -1  12   3      67      85                                                          70    0.45   -0.67  1.0000
  12   1   3       0      94                                                        -112    0.79   -0.52  1.0000
  -1  12   3      64     158                                                          67    0.45   -0.67  1.0000
   0  12   3      18      85                                                          21   -0.72   -0.77  1.0000
  12   0   3      50      86                                                          56   -0.82   -1.42  1.0000
   0  12   3       0      70                                                         -63   -0.72   -0.77  1.0000
   0  12   3       0     160                                                        -133   -0.72   -0.77  1.0000
   1  12   3       2      90                                                         -90    2.41    2.01  1.0000
   1  12   3       2     160                                                         -77    2.41    2.01  1.0000
  12  -1   3       4      86                                                           1    2.37    2.08  1.0000
 -12   2  -3       4      70                                                         -38    4.93    0.21  1.0000
  12  -2   3       4      74                                                          -1    4.93   -0.21  1.0000
   2  12   3      98     157                                                         144    5.00    0.12  1.0000
 -12   2   3      41      80                                                          73    5.13   -0.37  1.0000
   2  12   3      62      92                                                         100    5.00    0.12  1.0000
 -12   3  -3       1      79                                                         -31   -1.41    1.62  1.0000
  12  -3   3       1      74                                                         -29   -1.41   -1.62  1.0000
   3  12   3       1     151                                                           2   -1.41   -1.51  1.0000
   3  12   3      83      93                                                          95   -1.41   -1.51  1.0000
 -12   3   3      74      85                                                          85   -1.30   -1.72  1.0000
 -12   4  -3     361      85                                                         369    0.54    1.90  1.0000
  12  -4   3     349      87                                                         356    0.54   -1.90  1.0000
   4  12   3     183      90                                                         187    0.40   -0.92  1.0000
   4  12   3     295     154                                                         300    0.40   -0.92  1.0000
 -12   4   3     230      90                                                         236    0.52   -1.47  1.0000
 -12   5  -3     116      82                                                         129   -1.15    1.47  1.0000
   5  12   3     186     152                                                         202   -1.07   -1.50  1.0000
 -12   5   3       1      88                                                         -36   -1.00   -1.78  1.0000
   5  12   3       1      88                                                         -35   -1.07   -1.50  1.0000
 -12   6  -3      45      81                                                          48    0.86    3.11  1.0000
   6  12   3       4     146                                                        -153    0.98   -4.48  1.0000
   6  12   3       4      88                                                         -46    0.98   -4.48  1.0000
 -12   6   3      46      93                                                          52    1.09   -3.91  1.0000
 -12   7  -3      91      82                                                          99    0.85   -0.83  1.0000
 -12   7   3       0      92                                                         -22    0.76    0.55  1.0000
   7  12   3      24     143                                                          28    0.74    1.13  1.0000
   7  12   3       6      93                                                           8    0.74    1.13  1.0000
 -12   8  -3     180      88                                                         203   -1.84    0.84  1.0000
   8  12   3       1     138                                                         -22   -1.78   -0.53  1.0000
   8  12   3       1     102                                                         -93   -1.78   -0.53  1.0000
 -12   8   3       1      93                                                        -193   -1.78   -0.36  1.0000
 -12   9  -3      76      86                                                          64   -1.66   -0.04  1.0000
 -12   9   3      38      98                                                          31   -1.58    0.82  1.0000
   9  12   3     125     139                                                         110   -1.71    0.76  1.0000
   9  12   3       1     105                                                        -146   -1.71    0.76  1.0000
 -12  10  -3       3      85                                                         -32   -4.19    1.18  1.0000
 -12  10   3      24     100                                                          44   -4.05   -0.23  1.0000
  10  12   3     102     134                                                         142   -4.23   -1.02  1.0000
  10  12   3       3     105                                                        -152   -4.23   -1.02  1.0000
  -9  13  -3      66      75                                                          61   -0.94    1.51  1.0000
  13   9   3       0      92                                                        -156   -0.99   -0.49  1.0000
  -9  13   3     251     109                                                         241   -0.83   -0.74  1.0000
  13   9   3      29     108                                                          25   -0.99   -0.49  1.0000
  13   8   3       2      99                                                         -12    1.43   -3.30  1.0000
  -8  13   3       3     100                                                         -40    1.27   -3.75  1.0000
  13   8   3      91     102                                                          96    1.43   -3.30  1.0000
  -7  13   3      54      97                                                         141  -10.74   -0.80  1.0000
  13   7   3      15      95                                                          74  -11.12    0.20  1.0000
  13   7   3      63      96                                                         160  -11.12    0.20  1.0000
  13   6   3      70      88                                                          91   -1.71   -3.54  1.0000
  13   6   3      28      98                                                          42   -1.71   -3.54  1.0000
  -6  13   3       2      93                                                          -8   -1.82   -3.19  1.0000
  -5  13   3       0      92                                                          -1    0.75   -1.06  1.0000
  13   5   3     183      98                                                         175    0.78   -0.80  1.0000
  13   5   3       0      81                                                         -51    0.78   -0.80  1.0000
  13   4   3      99      77                                                          88   -1.34   -2.29  1.0000
  -4  13   3     155      95                                                         140   -1.47   -2.38  1.0000
  13   4   3     260     102                                                         243   -1.34   -2.29  1.0000
  13   3   3     136      93                                                         180   -4.03   -1.13  1.0000
  13   3   3       9      73                                                          22   -4.03   -1.13  1.0000
  -3  13   3     148      90                                                         196   -4.30   -0.05  1.0000
  -3  13   3       1      91                                                           7   -4.30   -0.05  1.0000
  -2  13   3       3      90                                                        -141    0.48   -4.36  1.0000
  13   2   3      39      69                                                          56    0.42   -4.25  1.0000
  13   2   3      25      95                                                          39    0.42   -4.25  1.0000
  -2  13   3      40      88                                                          58    0.48   -4.36  1.0000
  -1  13   3       2      89                                                         -42   -2.90    2.09  1.0000
  13   1   3      86      92                                                         112   -2.92    1.76  1.0000
  -1  13   3      74     172                                                          98   -2.90    2.09  1.0000
  -1  13   3       2      79                                                         -18   -2.90    2.09  1.0000
  13   0   3      67      93                                                          81    1.84   -2.22  1.0000
   0  13   3       1      70                                                        -125    1.82   -1.84  1.0000
   0  13   3       1      93                                                         -50    1.82   -1.84  1.0000
   0  13   3      81     171                                                          96    1.82   -1.84  1.0000
 -13   1  -3       9      72                                                          26    4.95    1.34  1.0000
   1  13   3       5     161                                                        -117    5.04   -1.45  1.0000
   1  13   3       8      96                                                          25    5.04   -1.45  1.0000
  13  -1   3       5      70                                                          -3    4.95   -1.34  1.0000
 -13   2  -3       4      79                                                         -81    4.78    0.41  1.0000
  13  -2   3       4      77                                                          -7    4.78   -0.41  1.0000
   2  13   3       4     158                                                         -84    4.67   -0.01  1.0000
   2  13   3       4      92                                                        -156    4.67   -0.01  1.0000
 -13   3  -3      16      85                                                          28    1.28    4.90  1.0000
  13  -3   3      35      79                                                          53    1.28   -4.90  1.0000
 -13   3   3       6      86                                                         -83    1.46   -5.54  1.0000
   3  13   3     139     157                                                         174    1.16   -4.75  1.0000
   3  13   3      23      95                                                          37    1.16   -4.75  1.0000
 -13   4  -3       1      85                                                         -29   -2.69   -0.38  1.0000
   4  13   3      53     155                                                          71   -2.75   -0.01  1.0000
 -13   4   3      66      89                                                          85   -2.62   -0.46  1.0000
  13  -4   3      37      81                                                          52   -2.69    0.38  1.0000
   4  13   3       1      87                                                         -86   -2.75   -0.01  1.0000
 -13   5  -3       8      85                                                           8   -0.14   -1.23  1.0000
   5  13   3       0     152                                                        -199   -0.23    1.40  1.0000
   5  13   3       0      85                                                        -127   -0.23    1.40  1.0000
 -13   5   3       0      91                                                         -11   -0.28    1.32  1.0000
 -13   6  -3      90      88                                                         109    2.16   -1.05  1.0000
   6  13   3     275     154                                                         305    2.00    1.01  1.0000
 -13   6   3       3      93                                                           6    2.05    1.08  1.0000
   6  13   3      85      93                                                         102    2.00    1.01  1.0000
 -13   7  -3       5      89                                                          16   -3.93    1.37  1.0000
 -13   7   3      40      96                                                          65   -3.94   -1.23  1.0000
   7  13   3      11      95                                                          26   -4.08   -1.35  1.0000
   7  13   3      29     153                                                          51   -4.08   -1.35  1.0000
 -13   8  -3      12      94                                                          54   -8.80   -2.26  1.0000
   8  13   3      95     148                                                         187   -8.67    3.33  1.0000
   8  13   3      15     106                                                          -9   -8.67    3.33  1.0000
 -13   8   3      44     100                                                         111   -8.88    2.49  1.0000
 -13   9  -3      12      94                                                          41   -6.91    1.21  1.0000
   9  13   3     154     147                                                         234   -6.76   -1.09  1.0000
   9  13   3       8     108                                                        -123   -6.76   -1.09  1.0000
 -13   9   3      83     103                                                         145   -6.86   -1.03  1.0000
  -7  14   3      10     103                                                           7   -1.24   -1.87  1.0000
  14   7   3     164     100                                                         153   -1.13   -1.72  1.0000
  14   7   3     153     101                                                         143   -1.13   -1.72  1.0000
  14   6   3       1      92                                                          14   -6.35    1.74  1.0000
  14   6   3     116     103                                                         183   -6.35    1.74  1.0000
  -6  14   3      32     102                                                          69   -6.20    0.94  1.0000
  14   5   3      28      89                                                         105    8.98   -7.81  1.0000
  14   5   3       3     109                                                          42    8.98   -7.81  1.0000
  -5  14   3       1      98                                                          21    8.57   -7.08  1.0000
  14   4   3      15      80                                                          32    0.73    4.54  1.0000
  -4  14   3       2      96                                                         -31    0.28    3.02  1.0000
  14   4   3      79      98                                                         114    0.73    4.54  1.0000
  -3  14   3       3      97                                                         -63   -2.96   -2.41  1.0000
  14   3   3     137     100                                                         168   -2.78   -2.17  1.0000
  14   3   3     104      76                                                         132   -2.78   -2.17  1.0000
  -3  14   3     111      93                                                         142   -2.96   -2.41  1.0000
  -2  14   3     223      95                                                         172   -4.30   -2.51  1.0000
  14   2   3     234      96                                                         182   -4.22   -2.35  1.0000
  -2  14   3      98      98                                                          65   -4.30   -2.51  1.0000
  -1  14   3      22      96                                                          24   -0.02   -1.55  1.0000
  14   1   3      38      95                                                          40   -0.21   -0.70  1.0000
  -1  14   3       0      79                                                        -128   -0.02   -1.55  1.0000
 -14   0  -3       3      74                                                         -82    2.63    3.15  1.0000
   0  14   3       2      99                                                         -43    2.23   -1.97  1.0000
   0  14   3       2     173                                                        -115    2.23   -1.97  1.0000
  14   0   3     163      96                                                         183    2.63   -3.15  1.0000
 -14   1  -3       1      80                                                         -55    1.35    1.49  1.0000
  14  -1   3      68      76                                                          80    1.35   -1.49  1.0000
   1  14   3       1      99                                                         -94    1.20   -1.72  1.0000
   1  14   3      70     169                                                          82    1.20   -1.72  1.0000
 -14   2  -3       7      86                                                          19    3.92   -1.74  1.0000
   2  14   3       4      97                                                         -41    3.97    2.24  1.0000
  14  -2   3      73      74                                                         106    3.92    1.74  1.0000
   2  14   3      60     162                                                          92    3.97    2.24  1.0000
 -14   3  -3       3      87                                                         -26   -3.71    1.04  1.0000
  14  -3   3      24      80                                                          11   -3.71   -1.04  1.0000
   3  14   3       3     100                                                         -14   -3.59   -1.17  1.0000
   3  14   3      16     158                                                           6   -3.59   -1.17  1.0000
 -14   4  -3      31      92                                                          36   -1.03    0.24  1.0000
   4  14   3       0      86                                                        -202   -1.01    0.33  1.0000
   4  14   3     155     159                                                         166   -1.01    0.33  1.0000
 -14   4   3      15      91                                                          18   -0.90   -0.46  1.0000
 -14   5  -3     109      95                                                         116   -0.80   -0.62  1.0000
   5  14   3       0      91                                                         -57   -1.10    1.19  1.0000
   5  14   3       0     157                                                         -11   -1.10    1.19  1.0000
 -14   5   3       0      93                                                          -9   -1.05    1.26  1.0000
 -14   6  -3     102      94                                                         121    1.70    2.00  1.0000
 -14   6   3      15      96                                                          21    1.73   -0.15  1.0000
   6  14   3      12      95                                                          18    1.71   -1.13  1.0000
   6  14   3       1     159                                                         -43    1.71   -1.13  1.0000
 -14   7  -3      80      97                                                         127   -5.38    0.99  1.0000
   7  14   3      22      98                                                          48   -5.40   -0.38  1.0000
 -14   7   3      68     101                                                         110   -5.36   -0.37  1.0000
   7  14   3      41     160                                                          75   -5.40   -0.38  1.0000
  15   5   3       9      91                                                           8   -0.57   -0.28  1.0000
  15   5   3     146     106                                                         140   -0.57   -0.28  1.0000
  -5  15   3       0     106                                                         -24   -0.67   -0.22  1.0000
  -4  15   3     197      98                                                         207    1.71   -3.45  1.0000
  15   4   3      41     101                                                          43    1.98   -3.39  1.0000
  -4  15   3       3     102                                                        -103    1.71   -3.45  1.0000
  15   3   3      71     101                                                         147   -7.67    4.50  1.0000
  -3  15   3      14     103                                                         -43   -7.80    4.02  1.0000
  -3  15   3      16      98                                                          58   -7.80    4.02  1.0000
  -2  15   3      47     104                                                          67   -2.38   -2.86  1.0000
  15   2   3      79      96                                                         106   -2.35   -3.27  1.0000
  -2  15   3       2      90                                                         -37   -2.38   -2.86  1.0000
 -15  -1  -3      99      84                                                         110   -1.17    1.20  1.0000
  -1  15   3       1      82                                                         -18   -1.30   -1.09  1.0000
  -1  15   3       1     101                                                         -18   -1.30   -1.09  1.0000
  15   1   3      50      97                                                          58   -1.17   -1.20  1.0000
 -15   0  -3       0      84                                                        -117   -0.14    0.57  1.0000
   0  15   3     133     107                                                         130   -0.25   -0.17  1.0000
  15   0   3     180      77                                                         178   -0.14   -0.57  1.0000
 -15   1  -3       1      89                                                         -83   -0.20    2.59  1.0000
  15  -1   3      34      79                                                          40   -0.20   -2.59  1.0000
   1  15   3     100     174                                                         110   -0.32   -2.36  1.0000
   1  15   3       1     101                                                         -67   -0.32   -2.36  1.0000
 -15   2  -3       1      91                                                         -23   -1.54   -1.96  1.0000
  15  -2   3      42      80                                                          55   -1.54    1.96  1.0000
   2  15   3       0     164                                                        -176   -1.13    1.08  1.0000
   2  15   3       1     101                                                           3   -1.13    1.08  1.0000
 -15   3  -3      28      94                                                          27    1.18    2.45  1.0000
   3  15   3      71     164                                                          69    1.01   -1.81  1.0000
   3  15   3       1     104                                                         -71    1.01   -1.81  1.0000
  15  -3   3      53      83                                                          53    1.18   -2.45  1.0000
 -15   4  -3     140      99                                                         191   -1.08    5.34  1.0000
   4  15   3       6     163                                                         -35   -1.24   -5.67  1.0000
   4  15   3       1      94                                                           5   -1.24   -5.67  1.0000
 -15   5  -3     138      99                                                         147    0.86    1.03  1.0000
 -15   5   3      92      98                                                          99    0.85   -0.60  1.0000
   5  15   3       0      92                                                        -109    0.89   -0.44  1.0000
   5  15   3       0     161                                                         -82    0.89   -0.44  1.0000
   0   0   4   16064     578                                                       16661    5.63   -2.22  1.0000
   0   0   4   15158     621                                                       15738    5.63   -2.22  1.0000
   0   0   4   15939     550                                                       16533    5.63   -2.22  1.0000
  -1   0   4     676      88                                                         686   -0.45    0.21  1.0000
   0  -1   4     588      86                                                         599   -0.56    0.12  1.0000
   1   0   4     871     137                                                         885   -0.61    0.67  1.0000
  -1   0   4     810     135                                                         821   -0.45    0.21  1.0000
   0   1   4     798      89                                                         809   -0.49    0.58  1.0000
   0  -1   4     748     137                                                         761   -0.56    0.12  1.0000
   0   1   4     599      65                                                         609   -0.49    0.58  1.0000
   1   0   4     819      90                                                         833   -0.61    0.67  1.0000
   0  -1   4     840      83                                                         854   -0.56    0.12  1.0000
   0   1   4     685     141                                                         695   -0.49    0.58  1.0000
  -1   0   4     653      90                                                         662   -0.45    0.21  1.0000
   1   0   4     852      93                                                         866   -0.61    0.67  1.0000
  -1   1   4     675     125                                                         643    1.42    2.03  1.0000
  -1  -1   4     578      78                                                         549    1.42    1.66  1.0000
  -1  -1   4     565      93                                                         536    1.42    1.66  1.0000
  -1   1   4     431      62                                                         405    1.42    2.03  1.0000
   1   1   4     569      99                                                         540    1.41    1.37  1.0000
   1  -1   4     728      82                                                         696    1.39    1.01  1.0000
  -1  -1   4     570      87                                                         541    1.42    1.66  1.0000
  -1   1   4     523      85                                                         495    1.42    2.03  1.0000
   1  -1   4     572      76                                                         544    1.39    1.01  1.0000
   1  -1   4     746     136                                                         714    1.39    1.01  1.0000
   1   1   4     552      75                                                         523    1.41    1.37  1.0000
   1  -2   4    4953     237                                                        4696   -4.49    1.83  1.0000
   1  -2   4    5123     173                                                        4862   -4.49    1.83  1.0000
   2   1   4    4877     191                                                        4635   -4.28    2.10  1.0000
   1  -2   4    5003     192                                                        4745   -4.49    1.83  1.0000
  -1   2   4    4966     190                                                        4707   -4.48    1.25  1.0000
   2   1   4    4681     221                                                        4444   -4.28    2.10  1.0000
  -2  -1   4    4923     222                                                        4653   -4.68    1.08  1.0000
  -1   2   4    4739     220                                                        4486   -4.48    1.25  1.0000
  -2  -1   4    4844     174                                                        4576   -4.68    1.08  1.0000
   2   1   4    4843     188                                                        4602   -4.28    2.10  1.0000
  -1   2   4    4936     194                                                        4678   -4.48    1.25  1.0000
   0  -2   4     222      90                                                         211    0.93   -0.01  1.0000
   0   2   4     187      72                                                         173    1.27   -0.52  1.0000
  -2   0   4     118      52                                                         109    1.00   -0.63  1.0000
   2   0   4     201      51                                                         188    1.11    0.37  1.0000
   2   0   4     134      88                                                         123    1.11    0.37  1.0000
   0  -2   4     250      71                                                         238    0.93   -0.01  1.0000
   2   0   4     119      73                                                         109    1.11    0.37  1.0000
   0   2   4     205      81                                                         190    1.27   -0.52  1.0000
   0   2   4     209      61                                                         194    1.27   -0.52  1.0000
  -2   0   4     396      76                                                         380    1.00   -0.63  1.0000
  -2   0   4     310      80                                                         296    1.00   -0.63  1.0000
   0  -2   4     119      37                                                         111    0.93   -0.01  1.0000
   2  -1   4      81      75                                                          96   -1.83   -0.26  1.0000
   1   2   4       1      44                                                         -51   -1.72   -0.52  1.0000
  -2   1   4     183      75                                                         200   -1.45   -0.33  1.0000
  -1  -2   4     153      92                                                         169   -1.54    0.11  1.0000
   2  -1   4      70      45                                                          84   -1.83   -0.26  1.0000
  -2   1   4      73      56                                                          84   -1.45   -0.33  1.0000
  -1  -2   4      87      36                                                          99   -1.54    0.11  1.0000
   1   2   4      37      59                                                          47   -1.72   -0.52  1.0000
  -1  -2   4     154      69                                                         170   -1.54    0.11  1.0000
   1   2   4     137      72                                                         155   -1.72   -0.52  1.0000
  -2   1   4     147      69                                                         162   -1.45   -0.33  1.0000
   2   2   4     271      85                                                         266    0.41   -0.78  1.0000
  -2   2   4     117      68                                                         113    0.46   -0.66  1.0000
  -2   2   4     179      62                                                         174    0.46   -0.66  1.0000
   2   2   4     120      62                                                         117    0.41   -0.78  1.0000
   2  -2   4       0      73                                                          -2    0.37   -1.13  1.0000
   2  -2   4     159      42                                                         156    0.37   -1.13  1.0000
  -2  -2   4     104      37                                                         101    0.40   -0.95  1.0000
   2   2   4     104      69                                                         101    0.41   -0.78  1.0000
  -2  -2   4      66      86                                                          64    0.40   -0.95  1.0000
  -2   2   4     168      75                                                         163    0.46   -0.66  1.0000
  -2   3   4     446      72                                                         427    1.15   -0.90  1.0000
   2  -3   4     377      45                                                         353    1.48    0.25  1.0000
  -3  -2   4     451      86                                                         426    1.42   -0.48  1.0000
   2  -3   4     388      78                                                         364    1.48    0.25  1.0000
   3   2   4     479      88                                                         454    1.39   -0.43  1.0000
   3   2   4     219      66                                                         202    1.39   -0.43  1.0000
  -2   3   4     392      81                                                         374    1.15   -0.90  1.0000
  -2   3   4     311      73                                                         295    1.15   -0.90  1.0000
   1  -3   4     666      90                                                         597    3.33   -0.85  1.0000
   3   1   4     521      65                                                         461    3.25   -0.68  1.0000
  -3  -1   4     400      50                                                         347    3.30   -1.05  1.0000
  -3  -1   4     572      84                                                         509    3.30   -1.05  1.0000
   1  -3   4     536     106                                                         474    3.33   -0.85  1.0000
  -1   3   4     412      79                                                         356    3.45   -0.98  1.0000
   1  -3   4     556      64                                                         493    3.33   -0.85  1.0000
   3   1   4     657      82                                                         590    3.25   -0.68  1.0000
  -1   3   4     437      71                                                         379    3.45   -0.98  1.0000
  -1   3   4     586      79                                                         519    3.45   -0.98  1.0000
   0  -3   4       3      32                                                           2    0.40    0.07  1.0000
   0  -3   4     171      67                                                         167    0.40    0.07  1.0000
   0   3   4     183      78                                                         177    0.49    0.04  1.0000
   3   0   4       0      51                                                         -11    0.29    0.70  1.0000
   0   3   4      18      65                                                          16    0.49    0.04  1.0000
   0   3   4      76      70                                                          72    0.49    0.04  1.0000
   3   0   4     154      78                                                         151    0.29    0.70  1.0000
  -3   0   4     138      77                                                         133    0.51   -0.60  1.0000
   0  -3   4     203      95                                                         198    0.40    0.07  1.0000
  -3   0   4      67      51                                                          64    0.51   -0.60  1.0000
   1   3   4     427      80                                                         505    4.26    0.02  1.0000
  -3   1   4     466     101                                                         548    4.31   -0.22  1.0000
  -1  -3   4     466      98                                                         548    4.34   -0.33  1.0000
  -3   1   4     539     121                                                         627    4.31   -0.22  1.0000
   3  -1   4     448      86                                                         528    4.30    0.04  1.0000
  -1  -3   4     366      53                                                         439    4.34   -0.33  1.0000
   3  -1   4     489      80                                                         573    4.30    0.04  1.0000
   1   3   4     307      71                                                         373    4.26    0.02  1.0000
   1   3   4     316      77                                                         383    4.26    0.02  1.0000
  -3   2   4     129      66                                                         158   -2.88    2.13  1.0000
  -2  -3   4      67      93                                                          88   -2.80    1.64  1.0000
   2   3   4     226      84                                                         264   -2.86    2.32  1.0000
   2   3   4      90      79                                                         114   -2.86    2.32  1.0000
   3  -2   4      15      77                                                          26   -2.88    1.80  1.0000
   2   3   4      45      63                                                          62   -2.86    2.32  1.0000
  -3   2   4      80      77                                                         103   -2.88    2.13  1.0000
   3  -2   4      98      47                                                         123   -2.88    1.80  1.0000
   3   3   4     244      81                                                         212    2.53    0.51  1.0000
   3  -3   4     180      77                                                         152    2.53    0.48  1.0000
  -3   3   4     100      68                                                          80    2.45    1.20  1.0000
  -3  -3   4      97      88                                                          78    2.40    1.18  1.0000
   3   3   4     128      68                                                         105    2.53    0.51  1.0000
   3  -3   4     182      44                                                         154    2.53    0.48  1.0000
  -3   3   4     132      81                                                         109    2.45    1.20  1.0000
   4   3   4     868     124                                                         842    0.99    1.35  1.0000
  -4  -3   4     682     132                                                         661    0.93    0.71  1.0000
  -3   4   4     892     122                                                         867    0.95    1.27  1.0000
   4   3   4     855     103                                                         829    0.99    1.35  1.0000
   3  -4   4     852      97                                                         829    0.88    0.86  1.0000
  -3   4   4     733     127                                                         710    0.95    1.27  1.0000
   4   2   4    9540     339                                                        9517   -0.26   -0.51  1.0000
   2  -4   4    9206     340                                                        9187   -0.20   -0.73  1.0000
  -2   4   4    9306     343                                                        9294   -0.14   -0.07  1.0000
   4   2   4    8738     340                                                        8716   -0.26   -0.51  1.0000
  -4  -2   4    9224     371                                                        9215   -0.10   -0.29  1.0000
  -2   4   4    9235     371                                                        9223   -0.14   -0.07  1.0000
  -2   4   4    9502     341                                                        9490   -0.14   -0.07  1.0000
   1  -4   4     355      74                                                         327    1.85   -0.47  1.0000
   4   1   4     214      61                                                         194    1.68    0.02  1.0000
  -1   4   4     298      77                                                         276    1.56   -0.11  1.0000
   1  -4   4     292     101                                                         266    1.85   -0.47  1.0000
  -1   4   4     221      74                                                         202    1.56   -0.11  1.0000
  -4  -1   4     214      48                                                         194    1.70   -0.65  1.0000
   4   1   4     276      82                                                         253    1.68    0.02  1.0000
  -1   4   4     304      77                                                         282    1.56   -0.11  1.0000
  -4  -1   4     281      82                                                         258    1.70   -0.65  1.0000
   0   4   4     194      79                                                         195   -0.08   -0.06  1.0000
   0  -4   4     143     101                                                         154   -0.80   -2.68  1.0000
   0   4   4      12      70                                                          12   -0.08   -0.06  1.0000
   4   0   4      80      82                                                          82   -0.29    0.46  1.0000
  -4   0   4      71      81                                                          80   -1.02   -2.35  1.0000
  -4   0   4     251      58                                                         268   -1.02   -2.35  1.0000
   4   0   4      62      54                                                          64   -0.29    0.46  1.0000
   4  -1   4      34      49                                                          47   -2.48    1.38  1.0000
   1   4   4      84      72                                                         106   -2.63    1.31  1.0000
   1   4   4      39      79                                                          54   -2.63    1.31  1.0000
   1   4   4     196      83                                                         228   -2.63    1.31  1.0000
  -4   1   4     135      60                                                         163   -2.75    0.89  1.0000
  -1  -4   4     135      94                                                         161   -2.59    0.80  1.0000
  -4   1   4      37      82                                                          52   -2.75    0.89  1.0000
   4  -1   4      94      83                                                         116   -2.48    1.38  1.0000
   2   4   4     136      80                                                         128    0.83    1.05  1.0000
  -2  -4   4      64      96                                                          59    0.83    0.01  1.0000
   2   4   4      16      80                                                          13    0.83    1.05  1.0000
  -4   2   4     155      83                                                         147    0.74    0.61  1.0000
   2   4   4     125      73                                                         117    0.83    1.05  1.0000
  -4   2   4     193      66                                                         184    0.74    0.61  1.0000
   4  -2   4      22      82                                                          18    0.95    0.62  1.0000
   4  -2   4      42      48                                                          37    0.95    0.62  1.0000
   4  -3   4    3083     137                                                        3139    1.16    0.71  1.0000
   4  -3   4    3236     156                                                        3293    1.16    0.71  1.0000
   3   4   4    3007     156                                                        3065    1.21    0.54  1.0000
  -4   3   4    3000     180                                                        3051    1.08    0.30  1.0000
  -4   3   4    2965     161                                                        3016    1.08    0.30  1.0000
   3   4   4    3020     170                                                        3078    1.21    0.54  1.0000
  -3  -4   4    3260     198                                                        3312    1.06    0.44  1.0000
  -4   4   4       2      81                                                         -81    3.51   -0.32  1.0000
   4  -4   4     137      78                                                         105    3.47   -0.54  1.0000
   4   4   4      31      74                                                          17    3.41   -0.42  1.0000
  -4   4   4      23      71                                                          11    3.51   -0.32  1.0000
   4   4   4      25      89                                                          13    3.41   -0.42  1.0000
  -4   5  -4      49      45                                                          68   -2.88    0.95  1.0000
   5   4   4     109      76                                                         135   -2.74   -0.98  1.0000
   4  -5   4      83      82                                                         107   -2.88   -0.95  1.0000
  -4   5   4      95      89                                                         119   -2.71   -1.07  1.0000
   5   4   4      73      95                                                          94   -2.74   -0.98  1.0000
  -4   5   4     141      75                                                         170   -2.71   -1.07  1.0000
  -3   5  -4     166      41                                                         174   -0.76   -0.34  1.0000
   5   3   4     147      86                                                         156   -0.81   -0.32  1.0000
  -3   5   4      89      75                                                          95   -0.70   -0.27  1.0000
   5   3   4     128      75                                                         136   -0.81   -0.32  1.0000
  -3   5   4      82      85                                                          88   -0.70   -0.27  1.0000
   3  -5   4     194      79                                                         203   -0.76    0.34  1.0000
  -2   5  -4     418      63                                                         426   -0.46   -0.14  1.0000
   5   2   4     353      71                                                         361   -0.54    0.30  1.0000
   5   2   4     425      85                                                         434   -0.54    0.30  1.0000
  -2   5   4     221      78                                                         229   -0.60   -0.02  1.0000
  -2   5   4     306      85                                                         315   -0.60   -0.02  1.0000
   2  -5   4     448      80                                                         456   -0.46    0.14  1.0000
  -2   5   4     450      86                                                         461   -0.60   -0.02  1.0000
   5   1   4     720      91                                                         693    1.23   -0.26  1.0000
  -5  -1   4     543      94                                                         520    1.20   -0.41  1.0000
  -1   5   4     895     133                                                         865    1.24   -0.55  1.0000
  -1   5   4     370      77                                                         351    1.24   -0.55  1.0000
   5   1   4     503      68                                                         480    1.23   -0.26  1.0000
  -1   5   4     782      99                                                         754    1.24   -0.55  1.0000
   5   0   4    2918     147                                                        3039    2.66   -0.80  1.0000
  -5   0   4    3140     144                                                        3279    2.97   -1.36  1.0000
  -5   0   4    2872     177                                                        3005    2.97   -1.36  1.0000
   0   5   4    3049     155                                                        3183    2.89   -0.83  1.0000
   0   5   4    2952     176                                                        3084    2.89   -0.83  1.0000
   5   0   4    2829     153                                                        2948    2.66   -0.80  1.0000
   0  -5   4    3087     205                                                        3222    2.90   -1.30  1.0000
   1   5   4     260      84                                                         239    1.63   -0.69  1.0000
  -5   1   4     203      63                                                         186    1.56   -1.06  1.0000
   5  -1   4     171      56                                                         155    1.49   -0.34  1.0000
   1   5   4     140      77                                                         125    1.63   -0.69  1.0000
  -1  -5   4     363     105                                                         340    1.53   -0.95  1.0000
   1   5   4     122      85                                                         108    1.63   -0.69  1.0000
  -5   1   4     197      87                                                         180    1.56   -1.06  1.0000
   5  -1   4     255      89                                                         236    1.49   -0.34  1.0000
  -2  -5   4      97      99                                                          85    1.41    1.24  1.0000
   5  -2   4     207      88                                                         191    1.30    0.52  1.0000
   5  -2   4     137      55                                                         124    1.30    0.52  1.0000
   2   5   4     273      79                                                         256    1.20    0.91  1.0000
   2   5   4     165      77                                                         152    1.20    0.91  1.0000
  -5   2   4      37      63                                                          30    1.38    1.50  1.0000
   2   5   4     128      92                                                         117    1.20    0.91  1.0000
   5  -3   4     620      87                                                         546    3.70   -0.85  1.0000
   3   5   4     496      83                                                         431    3.66   -1.04  1.0000
  -5   3   4     452      72                                                         392    3.57   -1.26  1.0000
   5  -3   4     667     105                                                         590    3.70   -0.85  1.0000
   3   5   4     761      99                                                         680    3.66   -1.04  1.0000
  -3  -5   4     602     107                                                         532    3.56   -1.08  1.0000
   4   5   4      87      76                                                          78    1.15    0.15  1.0000
   4   5   4       0      96                                                         -65    1.15    0.15  1.0000
  -5   4   4      91      71                                                          83    1.07    0.06  1.0000
   5  -4   4       0      80                                                          -4    1.26   -0.83  1.0000
  -5   5  -4     110      51                                                         125    1.64    0.00  1.0000
   5  -5   4     115      85                                                         130    1.64    0.00  1.0000
  -5   5   4     184      76                                                         204    1.72    0.26  1.0000
   5   5   4     284     102                                                         306    1.49    0.28  1.0000
   5   5   4     190      82                                                         208    1.49    0.28  1.0000
  -5   6  -4      30      48                                                          24    1.42    0.69  1.0000
   6   5   4      67      81                                                          59    1.40   -1.05  1.0000
   6   5   4       5     103                                                           3    1.40   -1.05  1.0000
  -5   6   4     107      80                                                          97    1.45   -1.42  1.0000
  -4   6  -4      30      43                                                          31   -0.06    1.34  1.0000
   6   4   4     196     100                                                         201   -0.27   -1.29  1.0000
  -4   6   4      35      94                                                          36   -0.18   -1.15  1.0000
   6   4   4     195      79                                                         200   -0.27   -1.29  1.0000
  -4   6   4       0      75                                                         -94   -0.18   -1.15  1.0000
  -3   6  -4    1213      84                                                        1226    0.49    1.23  1.0000
  -3   6   4    1301     141                                                        1308    0.27   -0.98  1.0000
  -3   6   4    1275     138                                                        1282    0.27   -0.98  1.0000
   6   3   4    1306     129                                                        1315    0.35   -0.81  1.0000
   6   3   4    1272     118                                                        1281    0.35   -0.81  1.0000
  -2   6   4      55      76                                                          42    2.27   -0.23  1.0000
   6   2   4       1      82                                                         -33    2.14    0.48  1.0000
  -2   6   4     162      92                                                         139    2.27   -0.23  1.0000
   6   2   4     188      67                                                         164    2.14    0.48  1.0000
  -2   6   4     247      85                                                         218    2.27   -0.23  1.0000
  -1   6   4       1      80                                                         -40    1.88    0.43  1.0000
   6   1   4       1      58                                                         -31    1.72    0.14  1.0000
  -1   6   4      21      96                                                          14    1.88    0.43  1.0000
   6   1   4       1      87                                                         -65    1.72    0.14  1.0000
  -1   6   4      48      15                                                          38    1.88    0.43  1.0000
   0   6   4       1      54                                                         -19    2.07    0.29  1.0000
   6   0   4      43      89                                                          33    1.95    0.26  1.0000
   0   6   4      91      77                                                          75    2.07    0.29  1.0000
   0   6   4       1      90                                                         -13    2.07    0.29  1.0000
   6   0   4      27      59                                                          19    1.95    0.26  1.0000
   0  -6   4     144     105                                                         125    1.97   -0.23  1.0000
   6  -1   4     622      99                                                         632   -0.49   -0.07  1.0000
   6  -1   4     333      65                                                         341   -0.49   -0.07  1.0000
   1   6   4     539      98                                                         547   -0.39   -0.11  1.0000
  -1  -6   4     800     160                                                         810   -0.41   -0.18  1.0000
   1   6   4     411      86                                                         418   -0.39   -0.11  1.0000
  -6   1   4     205      64                                                         211   -0.44   -0.28  1.0000
   1   6   4     465      85                                                         472   -0.39   -0.11  1.0000
   2   6   4    5330     232                                                        5287   -0.76    0.85  1.0000
   6  -2   4    5465     214                                                        5420   -0.75    0.48  1.0000
  -6   2   4    5271     217                                                        5226   -0.76    0.42  1.0000
   2   6   4    5742     234                                                        5697   -0.76    0.85  1.0000
   2   6   4    5399     240                                                        5355   -0.76    0.85  1.0000
  -2  -6   4    5443     262                                                        5392   -0.80   -0.20  1.0000
   6  -2   4    5593     227                                                        5548   -0.75    0.48  1.0000
   3   6   4       9     100                                                           9    0.03   -0.21  1.0000
  -6   3   4     154      70                                                         155   -0.05   -0.37  1.0000
  -3  -6   4      93     104                                                          93    0.12   -1.75  1.0000
   3   6   4      79      80                                                          79    0.03   -0.21  1.0000
   6  -3   4     140      90                                                         139    0.21   -1.53  1.0000
   4   6   4     219     105                                                         205    1.19   -0.73  1.0000
   6  -4   4      70      84                                                          61    1.50   -1.34  1.0000
  -6   4   4      40      74                                                          34    1.34   -1.14  1.0000
   4   6   4      72      78                                                          64    1.19   -0.73  1.0000
  -6   5  -4       0      55                                                          -8   -1.06   -0.61  1.0000
  -6   5   4      35      77                                                          41   -1.15    0.79  1.0000
   5   6   4      74     106                                                          82   -1.09    0.58  1.0000
   6  -5   4     111      89                                                         121   -1.06    0.61  1.0000
   5   6   4       0      82                                                          -3   -1.09    0.58  1.0000
  -6   6  -4       1      53                                                         -18    2.79   -0.19  1.0000
   6   6   4       2     105                                                        -137    2.93   -0.44  1.0000
   6   6   4      22      85                                                          12    2.93   -0.44  1.0000
  -6   6   4       2      81                                                          -6    2.93   -0.02  1.0000
  -6   7  -4     915      99                                                         905   -0.35    0.76  1.0000
   7   6   4    1047     122                                                        1040   -0.19   -1.05  1.0000
  -6   7   4     798     146                                                         789   -0.30   -1.29  1.0000
   7   6   4     763     102                                                         757   -0.19   -1.05  1.0000
  -5   7  -4      40      46                                                          27    2.72   -1.36  1.0000
  -5   7   4       1      81                                                         -52    2.57    0.85  1.0000
   7   5   4      31      79                                                          20    2.63    1.18  1.0000
   7   5   4       1     103                                                         -49    2.63    1.18  1.0000
  -4   7  -4       2      43                                                           2   -0.58    1.54  1.0000
   7   4   4      93      76                                                         100   -0.73   -0.90  1.0000
   7   4   4      92     104                                                          99   -0.73   -0.90  1.0000
  -4   7   4      70      98                                                          75   -0.66   -1.09  1.0000
  -4   7   4     118      79                                                         125   -0.66   -1.09  1.0000
  -3   7   4     150      91                                                         155   -0.47   -0.43  1.0000
   7   3   4     157      72                                                         163   -0.58   -0.27  1.0000
  -3   7   4     165      82                                                         170   -0.47   -0.43  1.0000
   7   3   4      98      92                                                         103   -0.58   -0.27  1.0000
  -2   7   4     106      87                                                          97    1.05   -0.02  1.0000
   7   2   4       0      85                                                        -155    0.96   -0.08  1.0000
  -2   7   4       0      76                                                        -175    1.05   -0.02  1.0000
  -2   7   4       0     101                                                         -17    1.05   -0.02  1.0000
   7   2   4      71      63                                                          64    0.96   -0.08  1.0000
   7   1   4     220      93                                                         209   -0.94    0.53  1.0000
  -1   7   4       5      39                                                           3   -1.00    0.56  1.0000
  -1   7   4     345     105                                                         330   -1.00    0.56  1.0000
   7   1   4      76      61                                                          69   -0.94    0.53  1.0000
  -1   7   4     153      86                                                         143   -1.00    0.56  1.0000
   7   0   4      43      93                                                          41    0.25    1.25  1.0000
   7   0   4      11      63                                                          10    0.25    1.25  1.0000
   0   7   4     117     105                                                         115    0.23    1.35  1.0000
   0   7   4      24      82                                                          23    0.23    1.35  1.0000
   0   7   4     225      80                                                         222    0.23    1.35  1.0000
   7  -1   4      46      62                                                          31    2.79    0.21  1.0000
   1   7   4       1      81                                                         -12    2.69    0.12  1.0000
   7  -1   4       1      95                                                         -39    2.79    0.21  1.0000
   1   7   4      14      83                                                           7    2.69    0.12  1.0000
  -1  -7   4     130     113                                                         104    2.92   -0.42  1.0000
  -7   1   4      65      63                                                          47    2.87   -0.53  1.0000
   1   7   4       1     105                                                         -26    2.69    0.12  1.0000
  -2  -7   4     407     115                                                         390    1.12   -1.15  1.0000
   2   7   4     311      88                                                         297    0.97    0.10  1.0000
   7  -2   4     628     113                                                         607    1.06   -0.77  1.0000
   2   7   4     394     112                                                         378    0.97    0.10  1.0000
  -7   2   4     361      70                                                         346    0.99   -0.30  1.0000
   2   7   4     430      78                                                         413    0.97    0.10  1.0000
   7  -2   4     345      65                                                         329    1.06   -0.77  1.0000
   3   7   4     272     112                                                         237    2.56    0.59  1.0000
   7  -3   4     213      93                                                         181    2.74   -0.38  1.0000
  -7   3   4     218      74                                                         184    2.79    0.59  1.0000
   3   7   4      69      84                                                          52    2.56    0.59  1.0000
  -7   4  -4     945     118                                                         962    0.70    0.96  1.0000
   4   7   4     776     147                                                         788    0.50   -0.20  1.0000
   7  -4   4     924     109                                                         941    0.70   -0.96  1.0000
   4   7   4    1220     138                                                        1235    0.50   -0.20  1.0000
  -7   4   4     963     138                                                         975    0.44    0.19  1.0000
  -7   5  -4      55      61                                                          56   -0.18   -0.55  1.0000
   7  -5   4      14      92                                                          14   -0.18    0.55  1.0000
   5   7   4     150     114                                                         151   -0.15    0.64  1.0000
  -7   5   4     162      83                                                         164   -0.25    1.08  1.0000
   5   7   4     163      82                                                         164   -0.15    0.64  1.0000
  -7   6  -4       1      56                                                         -91   -2.03    0.81  1.0000
   6   7   4      62     111                                                          76   -1.88   -0.91  1.0000
   6   7   4     119      90                                                         138   -1.88   -0.91  1.0000
  -7   6   4       1      84                                                         -32   -1.96   -0.43  1.0000
  -7   7  -4     213      58                                                         206    0.55   -0.08  1.0000
  -7   7   4     236      88                                                         228    0.61    0.31  1.0000
   7   7   4     383     114                                                         373    0.63    0.22  1.0000
   7   7   4     272      90                                                         263    0.63    0.22  1.0000
  -7   8  -4      84      57                                                         131   -5.41    0.46  1.0000
   8   7   4       2     108                                                           1   -5.51   -0.65  1.0000
   8   7   4       5      89                                                         -38   -5.51   -0.65  1.0000
  -7   8   4       6      85                                                        -169   -5.57   -1.12  1.0000
  -6   8  -4       1      49                                                         -24   -2.67    0.47  1.0000
  -6   8   4      41      87                                                          56   -2.56   -0.36  1.0000
   8   6   4      15     103                                                          24   -2.57   -0.08  1.0000
   8   6   4       1      81                                                         -33   -2.57   -0.08  1.0000
   8   5   4     342      80                                                         356   -0.83   -1.07  1.0000
  -5   8   4     398      89                                                         415   -0.92   -1.39  1.0000
   8   5   4     340     109                                                         354   -0.83   -1.07  1.0000
   8   4   4    1983     142                                                        2071    2.32    0.13  1.0000
  -4   8   4    1771     153                                                        1856    2.38    0.02  1.0000
  -4   8   4    1789     170                                                        1875    2.38    0.02  1.0000
   8   4   4    1738     137                                                        1821    2.32    0.13  1.0000
  -3   8   4      30      83                                                          39   -1.67   -1.26  1.0000
  -3   8   4       3      90                                                           6   -1.67   -1.26  1.0000
   8   3   4       1      93                                                         -45   -1.66   -1.17  1.0000
   8   3   4      99      69                                                         114   -1.66   -1.17  1.0000
   8   2   4      28      93                                                          28    0.04   -0.34  1.0000
   8   2   4      26      66                                                          26    0.04   -0.34  1.0000
  -2   8   4      31      81                                                          32   -0.06   -0.61  1.0000
  -2   8   4      89      88                                                          90   -0.06   -0.61  1.0000
   8   1   4       3      68                                                         -87    3.90   -0.52  1.0000
  -1   8   4       3     117                                                        -127    3.79   -0.21  1.0000
   8   1   4      55      94                                                          34    3.90   -0.52  1.0000
  -1   8   4       3      79                                                         -39    3.79   -0.21  1.0000
  -1   8   4       3      84                                                         -43    3.79   -0.21  1.0000
   0   8   4       1     118                                                         -65    2.34   -0.04  1.0000
   0   8   4       1      84                                                          -1    2.34   -0.04  1.0000
   8   0   4     107      97                                                          87    2.43   -0.15  1.0000
   8   0   4       1      68                                                         -15    2.43   -0.15  1.0000
   0   8   4      53      81                                                          40    2.34   -0.04  1.0000
   1   8   4     957     125                                                        1009    1.96   -0.03  1.0000
   1   8   4     791     146                                                         838    1.96   -0.03  1.0000
   8  -1   4     795     113                                                         845    2.08   -0.01  1.0000
   8  -1   4     948     121                                                        1003    2.08   -0.01  1.0000
   1   8   4     845     149                                                         894    1.96   -0.03  1.0000
  -1  -8   4     838     163                                                         889    2.07   -0.13  1.0000
  -2  -8   4      26     118                                                          17    2.35   -1.11  1.0000
   2   8   4       1      82                                                         -69    2.24   -0.58  1.0000
   8  -2   4       1      96                                                         -34    2.34   -1.01  1.0000
   2   8   4       1     118                                                          -4    2.24   -0.58  1.0000
  -8   2   4      27      73                                                          18    2.20   -0.63  1.0000
   3   8   4     205     120                                                         201    0.35    1.12  1.0000
  -8   3   4      25      77                                                          25    0.08    0.97  1.0000
   8  -3   4       0      93                                                         -19    0.38    0.38  1.0000
   3   8   4       0      85                                                         -23    0.35    1.12  1.0000
  -8   4  -4       1      64                                                         -46    1.90    0.28  1.0000
   4   8   4       1      84                                                         -16    1.89    0.17  1.0000
   4   8   4       1     120                                                         -22    1.89    0.17  1.0000
   8  -4   4       1      89                                                         -67    1.90   -0.28  1.0000
  -8   4   4      16      83                                                          10    1.96    0.44  1.0000
  -8   5  -4      88      67                                                         105   -2.11   -0.39  1.0000
   8  -5   4     113      93                                                         133   -2.11    0.39  1.0000
   5   8   4      10      83                                                          17   -2.20    0.18  1.0000
  -8   5   4     208      87                                                         236   -2.26    0.05  1.0000
   5   8   4      72     116                                                          88   -2.20    0.18  1.0000
  -8   6  -4    1426     129                                                        1338   -2.87   -1.00  1.0000
   6   8   4    1389     141                                                        1300   -2.93    0.63  1.0000
   6   8   4    1254     167                                                        1169   -2.93    0.63  1.0000
  -8   6   4    1556     161                                                        1458   -3.01    0.10  1.0000
  -8   7  -4     100      63                                                         130   -3.38   -0.63  1.0000
   7   8   4      49      93                                                          71   -3.42    0.31  1.0000
  -8   7   4      26      91                                                          43   -3.44    0.33  1.0000
   7   8   4       2     113                                                         -35   -3.42    0.31  1.0000
  -8   8  -4      22      60                                                          33   -2.37   -1.57  1.0000
  -8   8   4      12      93                                                          19   -2.21    0.62  1.0000
   8   8   4      30     109                                                          42   -2.30    0.79  1.0000
   8   8   4       6      92                                                          11   -2.30    0.79  1.0000
  -8   9  -4       3      63                                                         -11   -3.93   -0.54  1.0000
   9   8   4      49     107                                                          76   -4.01    1.04  1.0000
   9   8   4       3      89                                                        -106   -4.01    1.04  1.0000
  -8   9   4       3      93                                                         -12   -3.89    1.00  1.0000
  -7   9  -4      10      57                                                         -38   -7.65   -0.34  1.0000
  -7   9   4      10      90                                                          -8   -7.66    0.47  1.0000
   9   7   4      10      86                                                         -22   -7.50    0.29  1.0000
   9   7   4     106     107                                                          51   -7.50    0.29  1.0000
   9   6   4      51     102                                                          52   -0.06   -1.27  1.0000
   9   6   4       0      76                                                         -33   -0.06   -1.27  1.0000
  -6   9   4     100      88                                                         102   -0.05   -1.44  1.0000
   9   5   4       0     104                                                         -20    0.12    0.49  1.0000
  -5   9   4       0      85                                                         -15    0.11    0.62  1.0000
   9   5   4       0      72                                                         -95    0.12    0.49  1.0000
  -4   9   4      58      81                                                          73   -2.26    1.01  1.0000
   9   4   4      90      92                                                         108   -2.16    0.96  1.0000
   9   4   4       3      71                                                           7   -2.16    0.96  1.0000
  -4   9   4      87      91                                                         105   -2.26    1.01  1.0000
  -3   9   4     252      90                                                         264   -0.91    0.58  1.0000
   9   3   4     281      74                                                         293   -0.90    0.96  1.0000
   9   3   4     365      97                                                         379   -0.90    0.96  1.0000
  -3   9   4      71      84                                                          77   -0.91    0.58  1.0000
  -2   9   4     912     128                                                         879   -1.28   -0.51  1.0000
   9   2   4     786     115                                                         755   -1.33   -0.34  1.0000
   9   2   4     867     122                                                         834   -1.33   -0.34  1.0000
  -2   9   4     984     138                                                         950   -1.28   -0.51  1.0000
   9   1   4       0      95                                                         -61    1.37   -0.71  1.0000
   9   1   4      61      72                                                          53    1.37   -0.71  1.0000
  -1   9   4       0      85                                                         -39    1.28   -0.73  1.0000
  -1   9   4      66      79                                                          58    1.28   -0.73  1.0000
  -1   9   4      10     129                                                           7    1.28   -0.73  1.0000
   0   9   4       0      81                                                         -75    0.63   -0.01  1.0000
   9   0   4      52      68                                                          48    0.71   -0.04  1.0000
   0   9   4       0      84                                                         -12    0.63   -0.01  1.0000
   9   0   4       0      97                                                        -121    0.71   -0.04  1.0000
   0   9   4       0     125                                                         -35    0.63   -0.01  1.0000
   1   9   4     233     130                                                         231    0.10    1.34  1.0000
   9  -1   4      68     104                                                          67    0.13    1.48  1.0000
   1   9   4     179      82                                                         177    0.10    1.34  1.0000
   1   9   4     132      85                                                         130    0.10    1.34  1.0000
   9  -1   4     113      67                                                         111    0.13    1.48  1.0000
   2   9   4       0      82                                                         -25    0.40    0.51  1.0000
   2   9   4       0     123                                                          -6    0.40    0.51  1.0000
  -2  -9   4      37     111                                                          35    0.36    0.37  1.0000
   9  -2   4      16      87                                                          15    0.33    0.74  1.0000
  -9   3   4      68      82                                                          90    2.96   -0.03  1.0000
   3   9   4       1      87                                                         -33    2.88    0.18  1.0000
   3   9   4     277     128                                                         319    2.88    0.18  1.0000
   9  -3   4     128      94                                                         155    2.76   -0.30  1.0000
  -9   4  -4      46      71                                                          45    0.17   -1.11  1.0000
   9  -4   4      95      92                                                          94    0.17    1.11  1.0000
   4   9   4       0      83                                                        -107    0.11    0.58  1.0000
  -9   4   4       6      84                                                           6    0.21   -0.21  1.0000
   4   9   4     111     125                                                         110    0.11    0.58  1.0000
  -9   5  -4      32      70                                                          28    0.95   -0.94  1.0000
   5   9   4       0      84                                                         -82    0.82    0.86  1.0000
   5   9   4       0     125                                                          -7    0.82    0.86  1.0000
  -9   5   4      26      86                                                          23    0.86    1.14  1.0000
   9  -5   4      96      96                                                          89    0.95    0.94  1.0000
  -9   6  -4     162      71                                                         209   -4.17   -0.58  1.0000
  -9   6   4      81      92                                                         117   -4.27   -0.27  1.0000
   6   9   4       1      90                                                           9   -4.41    0.54  1.0000
   6   9   4     165     125                                                         216   -4.41    0.54  1.0000
  -9   7  -4       0      67                                                           0   -0.37   -1.59  1.0000
   7   9   4     167      98                                                         170   -0.24    1.35  1.0000
  -9   7   4      37      95                                                          39   -0.34    0.80  1.0000
   7   9   4     128     121                                                         130   -0.24    1.35  1.0000
  -9   8  -4     227      71                                                         212   -1.20   -0.38  1.0000
   8   9   4      91      99                                                          81   -1.32    0.50  1.0000
  -9   8   4     305     100                                                         290   -1.04    0.39  1.0000
   8   9   4     158     118                                                         145   -1.32    0.50  1.0000
  -9   9  -4       1      68                                                         -73    1.52   -0.79  1.0000
  -9   9   4     164     102                                                         148    1.47    0.52  1.0000
   9   9   4       0     111                                                         -44    1.44    0.61  1.0000
   9   9   4       6      99                                                           3    1.44    0.61  1.0000
  -9  10  -4       0      71                                                         -31   -1.51   -0.66  1.0000
  -9  10   4     123     104                                                         147   -1.61    2.70  1.0000
  10   9   4       1      94                                                        -117   -1.60    1.53  1.0000
  10   9   4      44     114                                                          55   -1.60    1.53  1.0000
  10   8   4       3      91                                                          -2   -4.01    1.63  1.0000
  10   8   4     125     111                                                         168   -4.01    1.63  1.0000
  -8  10   4       3      94                                                         -69   -3.88    1.70  1.0000
  -7  10   4       2      92                                                         -87   -3.21    0.89  1.0000
  10   7   4      24      84                                                          39   -3.29    0.30  1.0000
  10   7   4     210     107                                                         252   -3.29    0.30  1.0000
  10   6   4      53     104                                                          81   -4.09    0.26  1.0000
  -6  10   4       3      88                                                         -83   -4.02    0.38  1.0000
  10   6   4       3      80                                                         -53   -4.09    0.26  1.0000
  -5  10   4     242      90                                                         232   -0.81    0.01  1.0000
  10   5   4      90      73                                                          83   -0.81   -0.59  1.0000
  10   5   4     369     110                                                         356   -0.81   -0.59  1.0000
  -4  10   4      16      82                                                          37   -4.94    0.38  1.0000
  10   4   4      70      98                                                         109   -4.90   -0.21  1.0000
  10   4   4       4      71                                                         -49   -4.90   -0.21  1.0000
  -4  10   4      81      93                                                         123   -4.94    0.38  1.0000
  -3  10   4       2      85                                                           6   -2.70   -0.60  1.0000
  -3  10   4       1      82                                                         -24   -2.70   -0.60  1.0000
  10   3   4      76      72                                                          97   -2.66   -0.42  1.0000
  10   3   4      11      94                                                          20   -2.66   -0.42  1.0000
  -2  10   4       4      86                                                         -48   -3.57   -2.73  1.0000
  10   2   4       4      72                                                          13   -3.45   -2.74  1.0000
  -2  10   4       4      82                                                         -70   -3.57   -2.73  1.0000
  10   2   4      17      98                                                          33   -3.45   -2.74  1.0000
  10   1   4     192      73                                                         210   -1.40   -1.56  1.0000
  -1  10   4     181     139                                                         201   -1.58   -1.43  1.0000
  -1  10   4     178      87                                                         197   -1.58   -1.43  1.0000
  -1  10   4     138      82                                                         155   -1.58   -1.43  1.0000
  10   1   4     328     109                                                         352   -1.40   -1.56  1.0000
  10   0   4    1188     129                                                        1217    1.01   -0.48  1.0000
   0  10   4    1362     160                                                        1385    0.78   -0.59  1.0000
   0  10   4    1269     122                                                        1292    0.78   -0.59  1.0000
  10   0   4    1372     126                                                        1403    1.01   -0.48  1.0000
   0  10   4    1095     150                                                        1116    0.78   -0.59  1.0000
   1  10   4       0     134                                                         -39    1.38    0.43  1.0000
   1  10   4       0      75                                                        -157    1.38    0.43  1.0000
  10  -1   4       0     103                                                           0    1.38    0.33  1.0000
   1  10   4       0      84                                                         -52    1.38    0.43  1.0000
  10  -2   4      20      85                                                          15    1.41    0.09  1.0000
   2  10   4       0     135                                                         -23    1.63    0.20  1.0000
   2  10   4      69      86                                                          58    1.63    0.20  1.0000
 -10   3  -4       1      71                                                          -8   -2.28    0.27  1.0000
 -10   3   4       1      88                                                         -89   -2.20   -0.70  1.0000
  10  -3   4      32      93                                                          44   -2.28   -0.27  1.0000
   3  10   4       1     133                                                         -30   -2.28   -0.25  1.0000
   3  10   4      95      87                                                         115   -2.28   -0.25  1.0000
 -10   4  -4       7      78                                                          11   -1.46    2.05  1.0000
   4  10   4      38     134                                                          47   -1.40   -1.46  1.0000
  10  -4   4       1      92                                                         -18   -1.46   -2.05  1.0000
 -10   4   4      52      88                                                          63   -1.44   -1.70  1.0000
   4  10   4       1      86                                                         -72   -1.40   -1.46  1.0000
 -10   5  -4     330      81                                                         303   -1.82    0.23  1.0000
   5  10   4     170      90                                                         150   -1.89   -0.25  1.0000
 -10   5   4     377      94                                                         347   -1.88    0.29  1.0000
   5  10   4     501     139                                                         466   -1.89   -0.25  1.0000
  10  -5   4     408     103                                                         377   -1.82   -0.23  1.0000
 -10   6  -4       0      75                                                         -36   -0.49   -0.23  1.0000
   6  10   4     272     135                                                         280   -0.54    0.40  1.0000
 -10   6   4       0      91                                                         -79   -0.54    0.47  1.0000
   6  10   4       0      89                                                        -204   -0.54    0.40  1.0000
 -10   7  -4      33      76                                                          65   -5.38    0.76  1.0000
   7  10   4     107     128                                                         160   -5.44    0.41  1.0000
 -10   7   4       5      95                                                         -40   -5.42   -0.51  1.0000
   7  10   4       5      95                                                        -116   -5.44    0.41  1.0000
 -10   8  -4      34      75                                                          35   -0.04    0.46  1.0000
 -10   8   4       0      98                                                         -67   -0.04   -0.16  1.0000
   8  10   4       0     124                                                         -17    0.06   -0.34  1.0000
   8  10   4       0     101                                                         -18    0.06   -0.34  1.0000
 -10   9  -4      70      78                                                          63    1.13    0.45  1.0000
   9  10   4       0     106                                                         -59    1.15    0.01  1.0000
 -10   9   4       0     103                                                           0    1.19    0.37  1.0000
   9  10   4      27     121                                                          22    1.15    0.01  1.0000
 -10  10  -4     121      81                                                         128    0.73   -0.85  1.0000
  10  10   4     140     110                                                         148    0.79    0.67  1.0000
  10  10   4     240     122                                                         251    0.79    0.67  1.0000
 -10  10   4     183     110                                                         193    0.81    0.73  1.0000
  11   9   4       0      97                                                         -67   -1.02    0.79  1.0000
  -9  11   4       8     103                                                          11   -1.21    0.70  1.0000
  11   9   4      87     116                                                          95   -1.02    0.79  1.0000
  -8  11   4      15      97                                                           9   -2.17    0.37  1.0000
  11   8   4     298     118                                                         266   -2.27    0.43  1.0000
  11   8   4       1      94                                                         -70   -2.27    0.43  1.0000
  -7  11   4     158      98                                                         245   -7.23   -0.89  1.0000
  11   7   4      50     109                                                         102   -7.18   -0.17  1.0000
  11   7   4      64      85                                                         121   -7.18   -0.17  1.0000
  11   6   4      18      78                                                          31   -3.14   -0.12  1.0000
  -6  11   4      12      93                                                          22   -2.98    0.00  1.0000
  11   6   4      52     112                                                          73   -3.14   -0.12  1.0000
  11   5   4     134     114                                                         153   -1.48   -2.21  1.0000
  -5  11   4       1      88                                                         -77   -1.43   -1.83  1.0000
  11   5   4      36      76                                                          46   -1.48   -2.21  1.0000
  -4  11   4       1      91                                                          -4   -2.48   -1.50  1.0000
  11   4   4       2      99                                                         -92   -2.28   -2.16  1.0000
  -4  11   4       8      88                                                          17   -2.48   -1.50  1.0000
  11   4   4      14      76                                                          26   -2.28   -2.16  1.0000
  11   3   4     200      98                                                         174   -2.25    0.06  1.0000
  -3  11   4     114      87                                                          94   -2.29   -0.45  1.0000
  11   3   4     126      78                                                         106   -2.25    0.06  1.0000
  -3  11   4      99      87                                                          81   -2.29   -0.45  1.0000
  11   2   4      69      98                                                          71   -0.19   -0.34  1.0000
  -2  11   4      99      90                                                         101   -0.25    0.21  1.0000
  11   2   4     117      75                                                         119   -0.19   -0.34  1.0000
  -2  11   4       0      79                                                        -150   -0.25    0.21  1.0000
  -1  11   4       1      81                                                           2   -0.88   -0.32  1.0000
  -1  11   4       0      85                                                         -20   -0.88   -0.32  1.0000
  11   1   4       0      67                                                         -68   -0.77   -0.57  1.0000
  11   1   4     197      99                                                         207   -0.77   -0.57  1.0000
  11   0   4      35      70                                                          35    0.12   -0.85  1.0000
   0  11   4      59      81                                                          58    0.24   -1.08  1.0000
   0  11   4      55      85                                                          54    0.24   -1.08  1.0000
   0  11   4      38     142                                                          37    0.24   -1.08  1.0000
  11   0   4      14      97                                                          14    0.12   -0.85  1.0000
  11  -1   4      30     105                                                          25    1.08    0.56  1.0000
   1  11   4     300     146                                                         285    1.00    0.35  1.0000
   1  11   4      78      87                                                          71    1.00    0.35  1.0000
   2  11   4     312      93                                                         305   -0.48    0.36  1.0000
  11  -2   4     445      92                                                         436   -0.55    0.61  1.0000
   2  11   4     515     150                                                         506   -0.48    0.36  1.0000
 -11   3  -4       2      78                                                         -50   -3.21   -0.09  1.0000
  11  -3   4      68      92                                                          92   -3.21    0.09  1.0000
   3  11   4       3      87                                                           9   -3.14    0.40  1.0000
   3  11   4      44     145                                                          63   -3.14    0.40  1.0000
 -11   4  -4       3      81                                                           8   -2.27    0.76  1.0000
   4  11   4     106     146                                                         130   -2.22   -1.73  1.0000
   4  11   4      14      88                                                          24   -2.22   -1.73  1.0000
  11  -4   4      40      93                                                          53   -2.27   -0.76  1.0000
 -11   4   4       1      92                                                         -84   -2.19   -1.69  1.0000
 -11   5  -4     112      84                                                          80    3.80   -0.58  1.0000
   5  11   4       3     145                                                         -11    3.89    0.12  1.0000
  11  -5   4      21      98                                                           9    3.80    0.58  1.0000
 -11   5   4     159      97                                                         121    3.83    0.55  1.0000
   5  11   4      83      90                                                          56    3.89    0.12  1.0000
 -11   6  -4       2      81                                                         -44   -2.86   -1.29  1.0000
   6  11   4      64     145                                                          88   -3.07    1.34  1.0000
 -11   6   4     160     100                                                         199   -2.92    2.23  1.0000
   6  11   4       2      91                                                         -89   -3.07    1.34  1.0000
 -11   7  -4      90      84                                                         103    1.50   -1.20  1.0000
   7  11   4     113     100                                                         127    1.40    1.61  1.0000
 -11   7   4      37      99                                                          44    1.27    1.38  1.0000
   7  11   4     273     144                                                         295    1.40    1.61  1.0000
 -11   8  -4       6      82                                                          23   -5.67    0.51  1.0000
   8  11   4      23     108                                                          52   -5.73    0.00  1.0000
 -11   8   4       2     102                                                          15   -5.62   -0.16  1.0000
   8  11   4      78     138                                                         126   -5.73    0.00  1.0000
 -11   9  -4      28      85                                                          28    0.69   -1.48  1.0000
   9  11   4       0     108                                                         -63    0.65    0.92  1.0000
   9  11   4       0     132                                                          -2    0.65    0.92  1.0000
 -11   9   4       0     105                                                          -8    0.74    0.98  1.0000
  12   8   4      21      96                                                          41   -4.17    0.46  1.0000
  -8  12   4       3     101                                                         -65   -4.19   -0.06  1.0000
  12   8   4      76     117                                                         110   -4.17    0.46  1.0000
  -7  12   4      38      99                                                          52   -2.55   -0.12  1.0000
  12   7   4      51     114                                                          68   -2.70   -0.10  1.0000
  12   7   4      20      87                                                          32   -2.70   -0.10  1.0000
  -6  12   4     211      97                                                         158   -4.65   -0.30  1.0000
  12   6   4     106      85                                                          69   -4.73   -0.45  1.0000
  12   6   4     244     121                                                         185   -4.73   -0.45  1.0000
  -5  12   4       0      92                                                        -116    0.33    0.68  1.0000
  12   5   4     138     105                                                         135    0.26    0.25  1.0000
  12   5   4       0      80                                                         -78    0.26    0.25  1.0000
  12   4   4       2      76                                                         -62   -2.56   -1.66  1.0000
  12   4   4      35     105                                                          51   -2.56   -1.66  1.0000
  -4  12   4      63      93                                                          84   -2.70   -1.00  1.0000
  -4  12   4      31      87                                                          46   -2.70   -1.00  1.0000
  12   3   4       2     106                                                         -33   -0.96    3.20  1.0000
  12   3   4       2      76                                                         -62   -0.96    3.20  1.0000
  -3  12   4       1      94                                                           1   -1.12    2.94  1.0000
  -3  12   4       2      85                                                         -90   -1.12    2.94  1.0000
  -2  12   4      17      85                                                          20   -0.25    1.67  1.0000
  12   2   4       8     103                                                          11   -0.45    1.62  1.0000
  12   2   4      34      72                                                          39   -0.45    1.62  1.0000
  -2  12   4      14      91                                                          17   -0.25    1.67  1.0000
  12   1   4     217     102                                                         170   -3.99   -1.35  1.0000
  -1  12   4     140      85                                                         103   -3.96   -0.83  1.0000
  12   1   4     128      69                                                          92   -3.99   -1.35  1.0000
  -1  12   4       3      90                                                         -36   -3.96   -0.83  1.0000
   0  12   4      59     155                                                          92   -4.38   -1.79  1.0000
  12   0   4       3     103                                                         -24   -4.29   -0.98  1.0000
   0  12   4       4      80                                                         -25   -4.38   -1.79  1.0000
   0  12   4       4      91                                                         -61   -4.38   -1.79  1.0000
   1  12   4       6      92                                                          -4   -5.41   -1.40  1.0000
   1  12   4     244     155                                                         323   -5.41   -1.40  1.0000
  12  -1   4       5      97                                                        -113   -5.24   -1.61  1.0000
 -12   2  -4       3      76                                                          15   -5.10   -0.43  1.0000
  12  -2   4      18      87                                                          41   -5.10    0.43  1.0000
   2  12   4       5     153                                                         -19   -5.21    0.26  1.0000
   2  12   4      45      95                                                          80   -5.21    0.26  1.0000
 -12   3  -4     198      86                                                         224   -2.12   -1.14  1.0000
   3  12   4     251     153                                                         279   -2.07    1.09  1.0000
   3  12   4       1      85                                                        -145   -2.07    1.09  1.0000
  12  -3   4      65      89                                                          80   -2.12    1.14  1.0000
 -12   4  -4     400      91                                                         327   -4.60   -0.58  1.0000
   4  12   4     428     158                                                         355   -4.39    0.10  1.0000
  12  -4   4     300      99                                                         237   -4.60    0.58  1.0000
   4  12   4     365      95                                                         298   -4.39    0.10  1.0000
 -12   5  -4     113      89                                                         118   -0.56    0.12  1.0000
   5  12   4       0      92                                                         -39   -0.49    0.18  1.0000
   5  12   4      66     152                                                          69   -0.49    0.18  1.0000
  12  -5   4      90     101                                                          95   -0.56   -0.12  1.0000
 -12   5   4      54      98                                                          57   -0.44    0.57  1.0000
 -12   6  -4       0      85                                                        -111   -0.76   -1.35  1.0000
 -12   6   4       1     101                                                         -35   -0.92    1.55  1.0000
   6  12   4       1      95                                                         -30   -0.83    1.69  1.0000
   6  12   4       1     151                                                        -144   -0.83    1.69  1.0000
 -12   7  -4      15      91                                                          45   -6.66   -1.23  1.0000
   7  12   4       2     148                                                          17   -6.60    1.42  1.0000
   7  12   4       8     102                                                        -100   -6.60    1.42  1.0000
 -12   7   4      97     107                                                         162   -6.64    1.72  1.0000
 -12   8  -4     118      93                                                         149   -3.19   -0.52  1.0000
 -12   8   4       2     105                                                         -13   -3.23    0.06  1.0000
   8  12   4       2     109                                                         -33   -3.30    0.33  1.0000
   8  12   4     143     150                                                         178   -3.30    0.33  1.0000
  13   7   4     154     126                                                         185   -2.52   -1.39  1.0000
  -7  13   4       1     103                                                         -78   -2.73   -0.57  1.0000
  13   7   4       1      96                                                        -110   -2.52   -1.39  1.0000
  13   6   4       3      90                                                          11   -4.02    0.68  1.0000
  -6  13   4      47     100                                                          74   -4.07    0.50  1.0000
  13   6   4      88     124                                                         123   -4.02    0.68  1.0000
  13   5   4     118     112                                                         161   -4.31    0.57  1.0000
  -5  13   4       3      90                                                        -110   -4.24    0.79  1.0000
  13   5   4       0      87                                                           2   -4.31    0.57  1.0000
  -5  13   4     184     100                                                         235   -4.24    0.79  1.0000
  -4  13   4     306      96                                                         268   -2.68    0.52  1.0000
  -4  13   4      76      92                                                          58   -2.68    0.52  1.0000
  13   4   4     188     108                                                         159   -2.65    0.23  1.0000
  13   4   4     247      83                                                         213   -2.65    0.23  1.0000
  -3  13   4      44      99                                                          84   -6.05   -0.10  1.0000
  -3  13   4      54      95                                                          98   -6.05   -0.10  1.0000
  13   3   4     153     113                                                         225   -6.26    0.37  1.0000
  13   3   4      54      76                                                         100   -6.26    0.37  1.0000
  -2  13   4       1      92                                                         -13   -2.27    0.64  1.0000
  13   2   4      52      76                                                          67   -2.23    0.82  1.0000
  -2  13   4       1      90                                                         -61   -2.27    0.64  1.0000
  13   2   4      25     109                                                          36   -2.23    0.82  1.0000
  13   1   4      99     106                                                         125   -2.92   -0.26  1.0000
  -1  13   4       2      99                                                         -14   -2.91   -0.29  1.0000
  -1  13   4       2      88                                                          -2   -2.91   -0.29  1.0000
  13   0   4      57     107                                                         136   -9.55   -2.15  1.0000
   0  13   4      18      94                                                          70   -9.57   -2.51  1.0000
   1  13   4     184     162                                                         114   -6.84   -0.07  1.0000
   1  13   4       8      98                                                          -7   -6.84   -0.07  1.0000
  13  -1   4       8      82                                                         -29   -6.69   -0.13  1.0000
 -13   2  -4       1      83                                                          11   -5.34   -0.33  1.0000
  13  -2   4       5      88                                                        -120   -5.34    0.33  1.0000
   2  13   4       5      97                                                        -198   -5.27    0.20  1.0000
   2  13   4      92     162                                                         140   -5.27    0.20  1.0000
 -13   3  -4       3      89                                                         -32   -3.82   -1.82  1.0000
   3  13   4       3      90                                                         -63   -3.84    1.75  1.0000
   3  13   4     172     161                                                         221   -3.84    1.75  1.0000
  13  -3   4      61      91                                                          91   -3.82    1.82  1.0000
 -13   4  -4     129      93                                                         175   -4.36    1.13  1.0000
   4  13   4       3      92                                                         -71   -4.37   -0.31  1.0000
  13  -4   4     107      99                                                         149   -4.36   -1.13  1.0000
   4  13   4      43     162                                                          71   -4.37   -0.31  1.0000
 -13   5  -4      32      93                                                          49   -3.22    0.39  1.0000
   5  13   4      73     159                                                          98   -3.14   -0.53  1.0000
   5  13   4       2      94                                                         -10   -3.14   -0.53  1.0000
 -13   6  -4     272      98                                                         208   -4.93    0.35  1.0000
   6  13   4       4      96                                                        -116   -5.00   -0.32  1.0000
   6  13   4      69     158                                                          38   -5.00   -0.32  1.0000
 -13   6   4     126     104                                                          83   -5.01   -0.12  1.0000
 -13   7  -4       1      97                                                         -55   -1.38   -1.53  1.0000
 -13   7   4       1     108                                                         -24   -1.53    1.24  1.0000
   7  13   4      55     107                                                          65   -1.41    1.51  1.0000
   7  13   4     263     160                                                         285   -1.41    1.51  1.0000
  -4  14   4      11      98                                                          33   -5.81   -0.18  1.0000
  14   4   4      12      81                                                          38   -6.06   -1.53  1.0000
  -4  14   4      35      98                                                          70   -5.81   -0.18  1.0000
  14   4   4      48     119                                                          91   -6.06   -1.53  1.0000
  14   3   4      26      80                                                          40   -2.95   -0.04  1.0000
  -3  14   4     140     100                                                         172   -3.02    0.03  1.0000
  14   3   4     153     115                                                         185   -2.95   -0.04  1.0000
  -3  14   4       2      97                                                           7   -3.02    0.03  1.0000
  -2  14   4     189      92                                                         163   -2.42    1.18  1.0000
  14   2   4     181     113                                                         155   -2.45    1.05  1.0000
  -2  14   4     107      99                                                          88   -2.42    1.18  1.0000
  -1  14   4       1     103                                                        -117   -2.04    0.25  1.0000
  14   1   4      93     103                                                         108   -1.77   -0.20  1.0000
  -1  14   4       1      90                                                        -136   -2.04    0.25  1.0000
   0  14   4       7      98                                                        -157   -6.19    0.58  1.0000
  14   0   4     152     109                                                         227   -6.43    1.22  1.0000
 -14   1  -4       2      84                                                          11   -4.64    0.31  1.0000
   1  14   4       4     172                                                         -16   -4.61   -0.43  1.0000
   1  14   4       4     102                                                        -114   -4.61   -0.43  1.0000
  14  -1   4       4      84                                                         -56   -4.64   -0.31  1.0000
 -14   2  -4      76      92                                                         104   -3.46   -0.42  1.0000
   2  14   4      66     170                                                          92   -3.48    0.25  1.0000
   2  14   4       2     102                                                        -137   -3.48    0.25  1.0000
  14  -2   4      25      90                                                          42   -3.46    0.42  1.0000
 -14   3  -4      24      92                                                          22   -0.57   -0.51  1.0000
   3  14   4       0      94                                                          -2   -0.65    0.64  1.0000
  14  -3   4     148      94                                                         143   -0.57    0.51  1.0000
   3  14   4     239     170                                                         231   -0.65    0.64  1.0000
 -14   4  -4       2      96                                                         -24   -3.08    0.10  1.0000
   4  14   4       2      94                                                        -111   -3.20   -0.74  1.0000
  14  -4   4      63      99                                                          85   -3.08   -0.10  1.0000
   4  14   4      63     167                                                          87   -3.20   -0.74  1.0000
   0   0   5    1009     170                                                         928   -3.67    5.73  1.0000
   0   0   5     866     114                                                         791   -3.67    5.73  1.0000
   0   1   5      76      96                                                          69    0.96    1.23  1.0000
   0  -1   5     277     117                                                         263    1.04    0.28  1.0000
  -1   0   5      30     111                                                          25    1.02    0.77  1.0000
   0   1   5     107     113                                                          99    0.96    1.23  1.0000
   1   0   5      19      91                                                          15    1.05    0.69  1.0000
   1   0   5       0      62                                                         -35    1.05    0.69  1.0000
   0   1   5       0      65                                                         -13    0.96    1.23  1.0000
   0  -1   5       0      54                                                          -1    1.04    0.28  1.0000
  -1   0   5       0      61                                                         -30    1.02    0.77  1.0000
   1   0   5     132     106                                                         122    1.05    0.69  1.0000
   1   1   5      64      70                                                          44    3.83    2.48  1.0000
   1  -1   5      21      54                                                          10    3.87    2.50  1.0000
   1  -1   5     101     120                                                          76    3.87    2.50  1.0000
  -1  -1   5     143     114                                                         112    3.61    1.89  1.0000
   1   1   5       4      68                                                         -19    3.83    2.48  1.0000
  -1   1   5       3      64                                                         -13    3.58    1.84  1.0000
   1   1   5      82      89                                                          60    3.83    2.48  1.0000
  -1   1   5       3     108                                                         -16    3.58    1.84  1.0000
   1  -1   5       4      90                                                          -8    3.87    2.50  1.0000
  -1   2   5      15     109                                                          55    8.38   -0.21  1.0000
   2   1   5      13      72                                                          51    8.23   -0.73  1.0000
  -1   2   5      29      74                                                          79    8.38   -0.21  1.0000
   1  -2   5      12      48                                                         -37    8.29   -0.95  1.0000
   1  -2   5     130     125                                                         222    8.29   -0.95  1.0000
  -2  -1   5      22     110                                                          69    8.45   -0.36  1.0000
   2   1   5      16     116                                                          56    8.23   -0.73  1.0000
   2   1   5      12      90                                                         -81    8.23   -0.73  1.0000
   0  -2   5      19     117                                                          49    5.08    3.88  1.0000
   0   2   5      43      86                                                          86    4.81    4.90  1.0000
   2   0   5       8      62                                                          -8    4.98    4.76  1.0000
  -2   0   5      26     109                                                          58    4.94    4.01  1.0000
   2   0   5     151     111                                                         227    4.98    4.76  1.0000
   0   2   5       1      70                                                           9    4.81    4.90  1.0000
   0   2   5     220     112                                                         310    4.81    4.90  1.0000
   2   0   5      67      94                                                         120    4.98    4.76  1.0000
  -2   1   5       1      66                                                         -84    2.21   -0.85  1.0000
   1   2   5     110      93                                                         130    2.20   -0.51  1.0000
  -2   1   5     189     107                                                         216    2.21   -0.85  1.0000
   2  -1   5      36      91                                                          47    2.11   -0.52  1.0000
   1   2   5       1      91                                                         -32    2.20   -0.51  1.0000
  -1  -2   5      42     115                                                          54    2.08   -0.85  1.0000
   2  -1   5      44      93                                                          57    2.11   -0.52  1.0000
   1   2   5      38      74                                                          50    2.20   -0.51  1.0000
   2  -1   5      25      56                                                          35    2.11   -0.52  1.0000
   2   2   5      83     113                                                         131    5.27    2.12  1.0000
  -2   2   5       9      70                                                          27    5.15    2.38  1.0000
   2   2   5      14      93                                                          36    5.27    2.12  1.0000
   2  -2   5     103      93                                                         157    5.33    2.34  1.0000
  -2  -2   5     159     116                                                         225    5.35    2.56  1.0000
   2   2   5      43      77                                                          78    5.27    2.12  1.0000
  -2   2   5      40     103                                                          74    5.15    2.38  1.0000
   2  -2   5      15      54                                                          38    5.33    2.34  1.0000
   3   2   5      52      79                                                          42    1.75   -0.02  1.0000
  -3  -2   5      49     112                                                          38    2.05    0.32  1.0000
  -2   3   5     230     104                                                         204    2.12    0.68  1.0000
  -2   3   5      72      74                                                          58    2.12    0.68  1.0000
   3   2   5       1      95                                                         -48    1.75   -0.02  1.0000
   3   1   5      29      94                                                          21    2.51    3.86  1.0000
  -1   3   5       3      76                                                         -71    2.47    3.57  1.0000
   3   1   5     102      68                                                          90    2.51    3.86  1.0000
  -1   3   5     129     107                                                         115    2.47    3.57  1.0000
   1  -3   5     112     127                                                         103    2.44    4.45  1.0000
  -3  -1   5     119     108                                                         109    2.39    4.20  1.0000
   3   0   5       0      95                                                         -28    0.45    0.98  1.0000
   0   3   5     264     108                                                         272    0.43    1.19  1.0000
  -3   0   5     156     102                                                         163    0.52    1.38  1.0000
   0  -3   5     202     126                                                         210    0.56    1.11  1.0000
   3   0   5     157      63                                                         163    0.45    0.98  1.0000
   0   3   5       0      91                                                         -14    0.43    1.19  1.0000
   0   3   5       0      76                                                         -23    0.43    1.19  1.0000
  -1  -3   5     459     121                                                         471   -0.77    2.13  1.0000
  -3   1   5     567     104                                                         582   -0.85    2.09  1.0000
   1   3   5     318      79                                                         328   -0.78    2.28  1.0000
   3  -1   5     603     116                                                         616   -0.70    2.41  1.0000
   1   3   5     474      95                                                         487   -0.78    2.28  1.0000
  -3   1   5     263      70                                                         273   -0.85    2.09  1.0000
   1   3   5     538     111                                                         552   -0.78    2.28  1.0000
   3  -1   5     374      64                                                         384   -0.70    2.41  1.0000
  -3   2   5      22      70                                                          40    3.61   -2.29  1.0000
   2   3   5       4      78                                                         -64    3.57   -2.65  1.0000
  -2  -3   5     110     118                                                         148    3.55   -2.66  1.0000
  -3   2   5       3      93                                                         -23    3.61   -2.29  1.0000
   2   3   5       7      91                                                          19    3.57   -2.65  1.0000
   3  -2   5      84      57                                                         119    3.50   -3.02  1.0000
   3  -2   5      17      91                                                          34    3.50   -3.02  1.0000
   2   3   5      62     109                                                          91    3.57   -2.65  1.0000
  -3  -3   5       1     115                                                         -14    1.78    2.08  1.0000
   3   3   5      76      84                                                          68    1.60    2.63  1.0000
   3  -3   5     151      96                                                         141    1.61    2.60  1.0000
  -3   3   5       1      74                                                         -13    1.67    2.14  1.0000
   3   3   5       2      91                                                          -4    1.60    2.63  1.0000
  -3   3   5      64      93                                                          55    1.67    2.14  1.0000
   3  -3   5       2      54                                                          -5    1.61    2.60  1.0000
   4   3   5      26      96                                                          36   -2.27    0.44  1.0000
  -3   4   5       1      76                                                         -92   -2.15    0.47  1.0000
  -4  -3   5      54     111                                                          69   -2.24    0.15  1.0000
   4   3   5      87      86                                                         106   -2.27    0.44  1.0000
  -3   4   5      19      95                                                          28   -2.15    0.47  1.0000
   4   2   5     510      84                                                         458   -2.95    1.88  1.0000
  -4  -2   5     482     112                                                         430   -2.97    1.18  1.0000
  -2   4   5     524      86                                                         471   -2.91    1.13  1.0000
   4   2   5     697     117                                                         636   -2.95    1.88  1.0000
  -2   4   5     443     103                                                         394   -2.91    1.13  1.0000
   1  -4   5      21     123                                                          22   -0.20   -1.30  1.0000
  -1   4   5      30     105                                                          31    0.05   -1.62  1.0000
  -1   4   5      61      81                                                          62    0.05   -1.62  1.0000
   4   1   5       0     100                                                         -61   -0.06   -1.63  1.0000
   4   1   5       0      69                                                         -11   -0.06   -1.63  1.0000
  -4  -1   5     126      98                                                         129   -0.13   -1.33  1.0000
  -4   0   5       2      95                                                          12    1.99    4.70  1.0000
   4   0   5       7      98                                                          22    2.14    4.25  1.0000
   0   4   5       4      82                                                         -24    1.93    4.15  1.0000
   0   4   5       4     105                                                         -57    1.93    4.15  1.0000
   0   4   5      17      89                                                          37    1.93    4.15  1.0000
   4   0   5       4      64                                                          -1    2.14    4.25  1.0000
   0  -4   5      32     128                                                          61    2.05    4.73  1.0000
   1   4   5      30      82                                                          35    1.05   -0.79  1.0000
  -1  -4   5       0     123                                                         -21    0.88   -1.03  1.0000
   1   4   5      53     102                                                          59    1.05   -0.79  1.0000
   1   4   5      44      99                                                          50    1.05   -0.79  1.0000
   4  -1   5      14      62                                                          17    0.85   -0.79  1.0000
   4  -1   5       0     103                                                         -20    0.85   -0.79  1.0000
  -4   1   5      49      94                                                          56    1.14   -1.08  1.0000
   4  -2   5      44      59                                                          52    1.40    0.33  1.0000
   2   4   5      11      82                                                          16    1.58    0.04  1.0000
   2   4   5     112     106                                                         127    1.58    0.04  1.0000
  -4   2   5      20      95                                                          26    1.48    0.41  1.0000
   2   4   5     131     103                                                         147    1.58    0.04  1.0000
  -4   2   5       9      72                                                          13    1.48    0.41  1.0000
  -2  -4   5      97     122                                                         110    1.42    0.71  1.0000
   4  -2   5       0      96                                                         -50    1.40    0.33  1.0000
   3   4   5      88      88                                                          95    0.84   -0.98  1.0000
   3   4   5      10      98                                                          12    0.84   -0.98  1.0000
   4  -3   5      76      56                                                          81    0.63   -0.74  1.0000
  -4   3   5       0      92                                                        -145    1.00   -0.17  1.0000
  -4   3   5       0      76                                                         -58    1.00   -0.17  1.0000
  -3  -4   5      83     123                                                          90    0.95    0.05  1.0000
   4  -3   5       0      97                                                         -10    0.63   -0.74  1.0000
   4   4   5      16     102                                                          26    2.27    1.54  1.0000
  -4   4   5       1      96                                                         -48    2.18    1.63  1.0000
  -4   4   5       1      78                                                        -119    2.18    1.63  1.0000
   4  -4   5     129      92                                                         156    2.25    1.50  1.0000
   4   4   5       1      88                                                         -90    2.27    1.54  1.0000
  -4  -4   5       1     119                                                         -51    2.26    1.41  1.0000
   5   4   5       1      88                                                         -62    1.50   -0.80  1.0000
   5   4   5       1      99                                                        -172    1.50   -0.80  1.0000
  -4   5   5       0      80                                                         -36    1.39   -0.68  1.0000
  -4   5   5       0      96                                                         -63    1.39   -0.68  1.0000
  -3   5   5      24      83                                                          33   -2.10    1.08  1.0000
   5   3   5       1      83                                                         -25   -2.12    1.22  1.0000
   5   3   5     100      97                                                         119   -2.12    1.22  1.0000
  -3   5   5       1      96                                                          -9   -2.10    1.08  1.0000
  -2   5   5     131      98                                                         176   -4.20   -1.44  1.0000
   5   2   5      60     102                                                          92   -4.21   -1.47  1.0000
   5   2   5      25      75                                                          47   -4.21   -1.47  1.0000
  -2   5   5       4      81                                                         -37   -4.20   -1.44  1.0000
   5   1   5       0     102                                                         -11    1.36    0.22  1.0000
  -5  -1   5       0      93                                                         -80    1.17    0.06  1.0000
  -1   5   5      14      82                                                          10    1.38    0.07  1.0000
   5   1   5       0      69                                                         -49    1.36    0.22  1.0000
  -1   5   5      47     101                                                          39    1.38    0.07  1.0000
   5   0   5      24     104                                                          31    1.66    0.63  1.0000
   0   5   5      67     101                                                          79    1.58    0.59  1.0000
   0  -5   5     159     131                                                         176    1.49    0.72  1.0000
   0   5   5       1     105                                                         -59    1.58    0.59  1.0000
   5   0   5       2      65                                                           4    1.66    0.63  1.0000
   0   5   5      32      85                                                          40    1.58    0.59  1.0000
  -5   0   5      76      96                                                          87    1.45    0.63  1.0000
   1   5   5      21      85                                                          34   -2.97    2.59  1.0000
  -1  -5   5     174     131                                                         213   -3.02    2.89  1.0000
   5  -1   5       3      64                                                         -30   -2.96    2.69  1.0000
   5  -1   5      95     104                                                         123   -2.96    2.69  1.0000
   1   5   5      41     101                                                          60   -2.97    2.59  1.0000
   1   5   5      91     108                                                         119   -2.97    2.59  1.0000
  -5   1   5      11      93                                                          21   -3.00    2.73  1.0000
   5  -2   5      85      64                                                         113   -2.62   -3.40  1.0000
   2   5   5      80     101                                                         105   -2.42   -3.41  1.0000
  -2  -5   5      42     123                                                          61   -2.59   -2.82  1.0000
   2   5   5       3     105                                                         -22   -2.42   -3.41  1.0000
  -5   2   5      16      94                                                          27   -2.47   -3.01  1.0000
   2   5   5       3      85                                                          -8   -2.42   -3.41  1.0000
   5  -2   5     144     101                                                         180   -2.62   -3.40  1.0000
  -5   3   5      76      75                                                          81   -0.57   -0.48  1.0000
   5  -3   5       0      98                                                         -15   -0.55   -0.15  1.0000
   3   5   5       0      87                                                         -52   -0.53   -0.51  1.0000
  -5   3   5       0      97                                                         -50   -0.57   -0.48  1.0000
  -3  -5   5      45     123                                                          48   -0.44   -0.01  1.0000
   3   5   5      98     107                                                         103   -0.53   -0.51  1.0000
   5  -3   5       0      57                                                         -27   -0.55   -0.15  1.0000
  -5   4   5       0      95                                                         -84    0.58   -1.26  1.0000
   4   5   5       0      90                                                         -89    0.59   -1.45  1.0000
   5  -4   5      80      97                                                          83    0.43   -0.87  1.0000
  -5   4   5     176      79                                                         183    0.58   -1.26  1.0000
   4   5   5       9     106                                                          11    0.59   -1.45  1.0000
   5  -5   5     123      96                                                         173   -4.78   -1.37  1.0000
  -5   5   5      41      78                                                          73   -5.03   -0.74  1.0000
  -5   5   5     100      97                                                         148   -5.03   -0.74  1.0000
   5   5   5       0      92                                                           2   -4.80   -0.97  1.0000
   5   5   5     127     109                                                         178   -4.80   -0.97  1.0000
  -5   6   5      30      98                                                          64   -6.01    0.60  1.0000
  -5   6   5       2      81                                                          17   -6.01    0.60  1.0000
   6   5   5      48      92                                                          89   -5.89    0.56  1.0000
   6   5   5     166     107                                                         236   -5.89    0.56  1.0000
  -4   6   5       0      80                                                         -77    0.58   -0.14  1.0000
  -4   6   5      30     100                                                          33    0.58   -0.14  1.0000
   6   4   5       0     102                                                         -11    0.55    0.05  1.0000
   6   4   5      41      87                                                          44    0.55    0.05  1.0000
   6   3   5      95     103                                                         160    6.84    0.13  1.0000
  -3   6   5      18      98                                                          50    6.81    0.19  1.0000
   6   3   5       2      77                                                          17    6.84    0.13  1.0000
  -3   6   5      47      85                                                          94    6.81    0.19  1.0000
  -2   6   5      65      93                                                          80   -1.74    1.84  1.0000
   6   2   5       1      74                                                          -1   -1.83    1.33  1.0000
   6   2   5       1     101                                                         -26   -1.83    1.33  1.0000
  -2   6   5       1      82                                                         -12   -1.74    1.84  1.0000
  -1   6   5      10      84                                                          22    2.01   -3.11  1.0000
   6   1   5       2     105                                                         -19    2.12   -2.17  1.0000
   6   1   5       2      67                                                         -53    2.12   -2.17  1.0000
  -1   6   5       2      97                                                         -28    2.01   -3.11  1.0000
   0   6   5      37     107                                                          52    2.65    0.03  1.0000
   0  -6   5      49     124                                                          66    2.65   -0.02  1.0000
   0   6   5     149     104                                                         178    2.65    0.03  1.0000
   0   6   5      45      86                                                          61    2.65    0.03  1.0000
   6   0   5      14     103                                                          24    2.68   -0.14  1.0000
   6   0   5      66      69                                                          85    2.68   -0.14  1.0000
   6  -1   5       0     108                                                         -30    0.30   -0.35  1.0000
   1   6   5      40     113                                                          39    0.28   -0.41  1.0000
   1   6   5       0      87                                                         -34    0.28   -0.41  1.0000
   6  -1   5      11      67                                                          10    0.30   -0.35  1.0000
   1   6   5      38      98                                                          37    0.28   -0.41  1.0000
  -1  -6   5      78     130                                                          76    0.38   -0.90  1.0000
  -6   1   5      43      98                                                          42    0.31   -0.91  1.0000
   2   6   5     445      93                                                         424   -1.14   -1.11  1.0000
  -2  -6   5     554     133                                                         528   -1.26   -1.40  1.0000
  -6   2   5     315     100                                                         296   -1.26   -1.35  1.0000
   6  -2   5     405      71                                                         385   -1.16   -1.26  1.0000
   2   6   5     390     115                                                         371   -1.14   -1.11  1.0000
   6  -2   5     454     106                                                         433   -1.16   -1.26  1.0000
   2   6   5     383      99                                                         364   -1.14   -1.11  1.0000
  -6   3   5       1      95                                                         -29    0.44   -2.18  1.0000
   6  -3   5      34     103                                                          34    0.01   -0.53  1.0000
  -6   3   5      19      77                                                          18    0.44   -2.18  1.0000
   3   6   5       1      86                                                         -52    0.34   -1.96  1.0000
  -3  -6   5      69     122                                                          69    0.11   -0.78  1.0000
   3   6   5      56     114                                                          56    0.34   -1.96  1.0000
  -6   4   5       0      75                                                         -11    0.51    1.31  1.0000
   4   6   5       0      95                                                         -52    0.56    1.50  1.0000
  -6   4   5       0      93                                                         -55    0.51    1.31  1.0000
   4   6   5      85     115                                                          83    0.56    1.50  1.0000
   6  -4   5      47      97                                                          45    0.46    1.21  1.0000
  -6   5  -5       8      59                                                           6   -1.04    0.44  1.0000
   5   6   5       0      93                                                         -67   -1.08   -0.04  1.0000
  -6   5   5      89      79                                                          81   -1.04   -0.22  1.0000
  -6   5   5       0      97                                                          -1   -1.04   -0.22  1.0000
   6  -5   5      24      99                                                          20   -1.04   -0.44  1.0000
   5   6   5      96     115                                                          87   -1.08   -0.04  1.0000
   6  -6   5      13      96                                                          32   -4.63    1.22  1.0000
  -6   6   5       4      79                                                         -90   -4.54    1.59  1.0000
   6   6   5      26     117                                                          51   -4.65    1.44  1.0000
  -6   6   5       4      98                                                         -73   -4.54    1.59  1.0000
   6   6   5       4      97                                                         -45   -4.65    1.44  1.0000
   7   6   5     151     118                                                         143   -0.98    1.60  1.0000
   7   6   5      34      97                                                          30   -0.98    1.60  1.0000
  -6   7   5      51      84                                                          47   -0.78    1.67  1.0000
  -6   7   5     186     101                                                         180   -0.78    1.67  1.0000
   7   5   5      14     108                                                          27   -3.31   -0.21  1.0000
   7   5   5      11      85                                                          22   -3.31   -0.21  1.0000
  -5   7   5       2      81                                                        -111   -3.28   -0.41  1.0000
  -5   7   5       1      98                                                           6   -3.28   -0.41  1.0000
  -4   7   5      29      81                                                          15    3.70   -0.07  1.0000
   7   4   5       7      83                                                           1    3.79    0.45  1.0000
   7   4   5      40     104                                                          22    3.79    0.45  1.0000
  -4   7   5      39     102                                                          22    3.70   -0.07  1.0000
   7   3   5     210     106                                                         159    4.52   -0.08  1.0000
  -3   7   5       4      83                                                         -81    4.46    0.40  1.0000
  -3   7   5       4      95                                                         -16    4.46    0.40  1.0000
   7   3   5       4      77                                                         -15    4.52   -0.08  1.0000
   7   2   5      43     104                                                          49    1.13   -0.28  1.0000
  -2   7   5       0      83                                                         -17    0.92   -0.13  1.0000
  -2   7   5       0      90                                                          -9    0.92   -0.13  1.0000
   7   2   5      42      70                                                          48    1.13   -0.28  1.0000
  -1   7   5       2      95                                                         -69   -3.01   -1.15  1.0000
   7   1   5      85      73                                                         111   -3.11   -0.87  1.0000
  -1   7   5       2      84                                                          -2   -3.01   -1.15  1.0000
   7   1   5      73     109                                                          98   -3.11   -0.87  1.0000
   7   0   5       6      71                                                         -42    4.54   -3.59  1.0000
   0   7   5       6      84                                                         -92    4.28   -4.01  1.0000
   0   7   5      13     100                                                          24    4.28   -4.01  1.0000
   7   0   5       3     108                                                           3    4.54   -3.59  1.0000
   0   7   5      70     116                                                          98    4.28   -4.01  1.0000
   7  -1   5     140     111                                                         142   -0.18    0.05  1.0000
   7  -1   5       3      69                                                           3   -0.18    0.05  1.0000
   1   7   5     100     122                                                         101   -0.12    0.54  1.0000
   1   7   5       0      87                                                         -67   -0.12    0.54  1.0000
   1   7   5       4      94                                                           4   -0.12    0.54  1.0000
  -1  -7   5       0     128                                                         -26   -0.26    0.07  1.0000
   2   7   5      50      90                                                          56   -0.91   -0.65  1.0000
   7  -2   5       0     101                                                         -75   -0.95   -0.26  1.0000
   2   7   5      69     119                                                          76   -0.91   -0.65  1.0000
  -2  -7   5       0     130                                                         -40   -1.05    0.39  1.0000
   7  -2   5       9      65                                                          12   -0.95   -0.26  1.0000
   2   7   5      66      92                                                          73   -0.91   -0.65  1.0000
   3   7   5       1      88                                                          -2   -2.49   -0.13  1.0000
   3   7   5      68     117                                                          86   -2.49   -0.13  1.0000
  -3  -7   5      77     129                                                          99   -2.78   -0.21  1.0000
   7  -3   5       1     104                                                          -5   -2.60   -0.20  1.0000
  -7   4   5      96      97                                                         122    2.92    0.33  1.0000
   4   7   5       2     119                                                         -10    2.99    0.68  1.0000
   4   7   5      62      94                                                          84    2.99    0.68  1.0000
   7  -4   5      79     102                                                         103    2.88    1.12  1.0000
  -7   4   5      17      76                                                          29    2.92    0.33  1.0000
  -7   5  -5      92      66                                                         100   -0.97    0.63  1.0000
  -7   5   5      48      82                                                          55   -1.15    0.07  1.0000
   5   7   5     106     119                                                         116   -1.16    0.10  1.0000
   5   7   5       0      95                                                         -35   -1.16    0.10  1.0000
   7  -5   5      28     101                                                          33   -0.97   -0.63  1.0000
  -7   6  -5     115      64                                                         108    0.86   -0.76  1.0000
  -7   6   5      22      83                                                          18    0.94    0.22  1.0000
   6   7   5       0     120                                                         -21    0.84   -0.13  1.0000
   6   7   5       0     100                                                         -33    0.84   -0.13  1.0000
   7  -6   5       0      97                                                         -33    0.86    0.76  1.0000
   7   7   5      53     104                                                          66   -1.99   -0.08  1.0000
  -7   7   5       1      87                                                         -79   -2.00    0.26  1.0000
   7   7   5      27     122                                                          36   -1.99   -0.08  1.0000
   8   7   5       7      97                                                        -155    6.28    0.56  1.0000
  -7   8   5      11      91                                                          36    6.28    0.31  1.0000
   8   7   5      12     124                                                          37    6.28    0.56  1.0000
  -6   8   5       2      85                                                         -67    2.92    0.01  1.0000
  -6   8   5       2     104                                                         -10    2.92    0.01  1.0000
   8   6   5       0      95                                                           1    2.78   -0.18  1.0000
   8   6   5       1     118                                                         -67    2.78   -0.18  1.0000
   8   5   5       1     105                                                         -58    1.67    0.82  1.0000
   8   5   5      55      83                                                          45    1.67    0.82  1.0000
  -5   8   5      48     102                                                          38    1.72    0.67  1.0000
  -5   8   5       1      84                                                         -22    1.72    0.67  1.0000
  -4   8   5     202     105                                                         162   -3.54   -0.43  1.0000
  -4   8   5     165      84                                                         129   -3.54   -0.43  1.0000
   8   4   5     291     107                                                         242   -3.54   -0.21  1.0000
   8   4   5      96      80                                                          69   -3.54   -0.21  1.0000
   8   3   5      12     106                                                           6    2.34   -0.16  1.0000
  -3   8   5       1      85                                                         -45    2.18   -0.18  1.0000
  -3   8   5       1      96                                                         -14    2.18   -0.18  1.0000
   8   3   5       1      72                                                         -18    2.34   -0.16  1.0000
  -2   8   5      29      89                                                          44   -2.95    0.74  1.0000
  -2   8   5     102      90                                                         129   -2.95    0.74  1.0000
   8   2   5       2      73                                                         -12   -2.92    0.04  1.0000
   8   2   5      32     107                                                          48   -2.92    0.04  1.0000
  -1   8   5      79      86                                                          71   -1.11   -0.40  1.0000
   8   1   5      11      73                                                           9   -1.08    0.72  1.0000
  -1   8   5       0      94                                                         -85   -1.11   -0.40  1.0000
   8   1   5       0     109                                                        -121   -1.08    0.72  1.0000
   0   8   5       0      84                                                         -68   -0.56   -0.82  1.0000
   8   0   5       0     113                                                          -3   -0.54   -0.50  1.0000
   8   0   5     130      73                                                         125   -0.54   -0.50  1.0000
   0   8   5       0      98                                                         -56   -0.56   -0.82  1.0000
   8  -1   5       1     114                                                        -145    2.00   -0.56  1.0000
   1   8   5     198     127                                                         221    1.89   -0.58  1.0000
   1   8   5       4      91                                                           8    1.89   -0.58  1.0000
   8  -1   5      57      72                                                          70    2.00   -0.56  1.0000
   1   8   5      56      88                                                          69    1.89   -0.58  1.0000
   2   8   5      33     130                                                          52   -2.93    2.33  1.0000
   8  -2   5      81      68                                                         106   -2.97    1.22  1.0000
   8  -2   5     124     105                                                         155   -2.97    1.22  1.0000
   2   8   5       2      91                                                         -24   -2.93    2.33  1.0000
  -2  -8   5      13     132                                                          25   -3.05    1.74  1.0000
   3   8   5       0      89                                                           2   -2.15   -1.62  1.0000
   3   8   5      18     122                                                          28   -2.15   -1.62  1.0000
   8  -3   5      90     109                                                         109   -2.17   -0.77  1.0000
  -8   4  -5       2      68                                                           2   -0.15   -0.33  1.0000
   4   8   5      23     125                                                          23   -0.03    0.66  1.0000
   8  -4   5      67     101                                                          66   -0.15    0.33  1.0000
   4   8   5      63      94                                                          63   -0.03    0.66  1.0000
  -8   5  -5       0      69                                                           0   -0.33    1.31  1.0000
   8  -5   5      13     101                                                          15   -0.33   -1.31  1.0000
  -8   5   5      98      84                                                         102   -0.35   -0.89  1.0000
   5   8   5       0     123                                                         -52   -0.31   -0.69  1.0000
   5   8   5       0      96                                                         -58   -0.31   -0.69  1.0000
  -8   6  -5      58      70                                                          65    1.08    0.06  1.0000
   6   8   5     222     130                                                         235    1.01    0.16  1.0000
  -8   6   5     207      89                                                         221    1.14    0.57  1.0000
   6   8   5     147     103                                                         158    1.01    0.16  1.0000
   8  -6   5     318     107                                                         334    1.08   -0.06  1.0000
   7   8   5       3     101                                                         -12    3.59    1.28  1.0000
  -8   7   5       3      90                                                         -11    3.64    1.30  1.0000
   7   8   5       3     128                                                         -12    3.59    1.28  1.0000
   8   8   5      60     101                                                          84   -3.24   -0.66  1.0000
  -8   8   5       2      94                                                        -111   -3.34   -1.14  1.0000
   8   8   5      72     131                                                          97   -3.24   -0.66  1.0000
   9   8   5       8     100                                                           9    0.42    0.05  1.0000
   9   8   5      35     131                                                          37    0.42    0.05  1.0000
  -8   9   5      50      99                                                          53    0.56   -0.13  1.0000
   9   7   5      31     127                                                          55    4.33   -0.55  1.0000
  -7   9   5      58      97                                                          90    4.38   -0.91  1.0000
   9   7   5       0      90                                                           6    4.33   -0.55  1.0000
   9   6   5      13      85                                                          14    1.21    3.14  1.0000
   9   6   5      69     111                                                          73    1.21    3.14  1.0000
  -6   9   5       3      89                                                          -7    1.40    3.67  1.0000
  -6   9   5      82     105                                                          91    1.40    3.67  1.0000
  -5   9   5       6      85                                                        -143   -5.59   -0.17  1.0000
   9   5   5      12     109                                                          34   -5.64   -0.57  1.0000
   9   5   5       6      84                                                        -149   -5.64   -0.57  1.0000
  -5   9   5      17     101                                                          42   -5.59   -0.17  1.0000
  -4   9   5       1      82                                                         -43   -1.95   -0.78  1.0000
  -4   9   5      46     102                                                          58   -1.95   -0.78  1.0000
   9   4   5       1      79                                                         -24   -2.05   -0.36  1.0000
   9   4   5      18     105                                                          26   -2.05   -0.36  1.0000
  -3   9   5      17      95                                                          28   -2.76    0.16  1.0000
  -3   9   5       1      85                                                         -41   -2.76    0.16  1.0000
   9   3   5       2      75                                                         -59   -2.90   -0.13  1.0000
   9   3   5     116     110                                                         144   -2.90   -0.13  1.0000
  -2   9   5      30      91                                                          36    1.14    0.19  1.0000
   9   2   5     130      79                                                         143    1.27    0.08  1.0000
  -2   9   5      10      91                                                          13    1.14    0.19  1.0000
   9   2   5     149     110                                                         162    1.27    0.08  1.0000
  -1   9   5      30      93                                                          40   -2.06    0.88  1.0000
   9   1   5       6     111                                                          11   -2.22    0.91  1.0000
   9   1   5       1      73                                                         -47   -2.22    0.91  1.0000
  -1   9   5       1      84                                                         -94   -2.06    0.88  1.0000
   9   0   5      48     115                                                          45    0.58   -0.59  1.0000
   9   0   5       0      72                                                         -81    0.58   -0.59  1.0000
   0   9   5       0      98                                                         -12    0.57   -0.61  1.0000
   0   9   5      15      85                                                          13    0.57   -0.61  1.0000
   1   9   5       4      88                                                         -83   -4.56   -1.28  1.0000
   1   9   5     187     133                                                         245   -4.56   -1.28  1.0000
   9  -1   5      36      72                                                          64   -4.52   -1.75  1.0000
   9  -1   5      96     122                                                         139   -4.52   -1.75  1.0000
   1   9   5       4      85                                                        -150   -4.56   -1.28  1.0000
  -2  -9   5       0     128                                                         -18   -0.11   -0.58  1.0000
   2   9   5       0      93                                                         -47   -0.30   -0.91  1.0000
   9  -2   5     241     107                                                         240   -0.13   -1.19  1.0000
   2   9   5       0     128                                                        -188   -0.30   -0.91  1.0000
   3   9   5     139     135                                                         179   -3.80    0.12  1.0000
   3   9   5       3      92                                                         -32   -3.80    0.12  1.0000
   9  -3   5       6     110                                                          17   -3.93    0.11  1.0000
  -9   4  -5      51      75                                                          46    1.11    1.11  1.0000
   4   9   5     103     132                                                          96    1.15   -0.98  1.0000
   9  -4   5      84     104                                                          78    1.11   -1.11  1.0000
   4   9   5       0      91                                                         -64    1.15   -0.98  1.0000
  -9   5  -5       0      75                                                           1   -0.69    0.29  1.0000
   9  -5   5      92     106                                                          98   -0.69   -0.29  1.0000
   5   9   5     114      97                                                         121   -0.51    1.52  1.0000
   5   9   5     102     131                                                         109   -0.51    1.52  1.0000
  -9   6  -5       0      75                                                          -1   -0.85   -0.27  1.0000
   6   9   5       0     100                                                         -34   -0.80    0.05  1.0000
   9  -6   5       0     104                                                         -51   -0.85    0.27  1.0000
  -9   6   5      12      91                                                          15   -0.93    0.33  1.0000
   6   9   5     227     132                                                         237   -0.80    0.05  1.0000
  -9   7  -5       2      73                                                         -83   -3.25    0.10  1.0000
   7   9   5      44     129                                                          65   -3.31    0.07  1.0000
   7   9   5       9     101                                                          19   -3.31    0.07  1.0000
  -9   7   5      23      95                                                          38   -3.24    1.12  1.0000
   8   9   5       3     108                                                         -71   -4.17    0.28  1.0000
  -9   8   5       4      95                                                        -127   -4.39    0.78  1.0000
   8   9   5     145     130                                                         106   -4.17    0.28  1.0000
   9   9   5     107     135                                                         140   -3.49   -0.48  1.0000
   9   9   5      13     104                                                          26   -3.49   -0.48  1.0000
  -9   9   5       2     100                                                         -75   -3.49   -0.80  1.0000
  -8  10   5       3     102                                                         -47   -3.51   -1.49  1.0000
  10   8   5     241     135                                                         295   -3.53   -1.85  1.0000
  10   8   5       3      96                                                         -76   -3.53   -1.85  1.0000
  10   7   5       5      91                                                          15   -4.13    0.59  1.0000
  -7  10   5      68      94                                                         101   -4.22    0.55  1.0000
  -7  10   5     241     124                                                         300   -4.22    0.55  1.0000
  10   7   5       3     129                                                         -49   -4.13    0.59  1.0000
  10   6   5     123     116                                                         110   -1.57    0.46  1.0000
  10   6   5       0      88                                                         -39   -1.57    0.46  1.0000
  -6  10   5       1      88                                                        -162   -1.63    0.44  1.0000
  -6  10   5     117     107                                                         103   -1.63    0.44  1.0000
  -5  10   5      88     103                                                          70   -2.65    1.16  1.0000
  10   5   5       2     111                                                         -48   -2.74    1.33  1.0000
  -5  10   5      45      92                                                          32   -2.65    1.16  1.0000
  10   5   5      11      80                                                           5   -2.74    1.33  1.0000
  -4  10   5     104     103                                                         124   -1.74   -1.83  1.0000
  10   4   5       1      78                                                         -66   -1.89   -1.35  1.0000
  10   4   5      51     111                                                          65   -1.89   -1.35  1.0000
  -4  10   5       1      85                                                          -9   -1.74   -1.83  1.0000
  10   3   5       6     114                                                          17    4.04   -0.01  1.0000
  -3  10   5       3      86                                                         -48    4.09   -0.05  1.0000
  10   3   5       3      79                                                         -29    4.04   -0.01  1.0000
  -3  10   5       3      94                                                         -63    4.09   -0.05  1.0000
  10   2   5      69     120                                                          75    0.69    0.57  1.0000
  -2  10   5       0      90                                                         -49    0.79    1.10  1.0000
  -2  10   5       0      87                                                         -75    0.79    1.10  1.0000
  10   2   5       0      77                                                        -105    0.69    0.57  1.0000
  10   1   5       0     114                                                         -53   -0.05   -0.31  1.0000
  -1  10   5       9      95                                                           9   -0.03   -0.41  1.0000
  10   1   5      17      77                                                          17   -0.05   -0.31  1.0000
  -1  10   5      40      90                                                          40   -0.03   -0.41  1.0000
   0  10   5      53      87                                                          48   -0.85   -0.05  1.0000
  10   0   5     373     124                                                         359   -0.86   -0.39  1.0000
  10   0   5     158      76                                                         149   -0.86   -0.39  1.0000
   0  10   5     193     100                                                         183   -0.85   -0.05  1.0000
  10  -1   5     143     124                                                         179   -3.22   -1.08  1.0000
  10  -1   5       2      71                                                         -11   -3.22   -1.08  1.0000
   1  10   5       3      88                                                         -30   -3.26   -1.92  1.0000
   1  10   5     234     148                                                         283   -3.26   -1.92  1.0000
   2  10   5     111     144                                                         123   -1.29    0.45  1.0000
   2  10   5       0      90                                                         -42   -1.29    0.45  1.0000
  10  -2   5       0     105                                                         -35   -1.09    0.39  1.0000
   3  10   5     209     144                                                         253    3.44   -0.01  1.0000
   3  10   5       2      91                                                         -19    3.44   -0.01  1.0000
  10  -3   5      30     115                                                          48    3.44   -0.11  1.0000
 -10   4  -5      80      83                                                         120    3.24   -3.55  1.0000
   4  10   5      24      93                                                          44    3.40    2.63  1.0000
   4  10   5     153     143                                                         200    3.40    2.63  1.0000
  10  -4   5      65     108                                                         101    3.24    3.55  1.0000
 -10   5  -5      16      83                                                           9   -2.52    0.04  1.0000
   5  10   5      66      96                                                          50   -2.52    0.00  1.0000
   5  10   5      51     139                                                          37   -2.52    0.00  1.0000
  10  -5   5      81     111                                                          63   -2.52   -0.04  1.0000
 -10   6  -5      75      83                                                         112   -4.54   -0.54  1.0000
   6  10   5     208     140                                                         265   -4.41    0.14  1.0000
  10  -6   5      41     110                                                          70   -4.54    0.54  1.0000
   6  10   5       3     103                                                         -62   -4.41    0.14  1.0000
 -10   7  -5       1      80                                                         -18    1.62   -2.26  1.0000
   7  10   5     229     138                                                         209    1.56    0.12  1.0000
   7  10   5       0     105                                                        -220    1.56    0.12  1.0000
 -10   7   5       1      95                                                         -80    1.51    1.06  1.0000
   8  10   5     140     136                                                         151    0.72    1.36  1.0000
   8  10   5       0     116                                                         -11    0.72    1.36  1.0000
 -10   8   5       0     100                                                        -123    0.78    1.46  1.0000
  -7  11   5     136     114                                                         161   -0.93   -2.91  1.0000
  11   7   5       2      90                                                           5   -0.99   -2.72  1.0000
  11   7   5     168     121                                                         194   -0.99   -2.72  1.0000
  -7  11   5       2      93                                                         -84   -0.93   -2.91  1.0000
  11   6   5      18     117                                                          20    0.34    2.62  1.0000
  11   6   5       4      86                                                           4    0.34    2.62  1.0000
  -6  11   5      85     110                                                          87    0.31    1.72  1.0000
  -6  11   5      25      96                                                          26    0.31    1.72  1.0000
  11   5   5       0      82                                                         -36    0.45    1.10  1.0000
  -5  11   5       0      91                                                         -76    0.49    0.76  1.0000
  11   5   5     207     114                                                         202    0.45    1.10  1.0000
  -5  11   5       0     100                                                         -98    0.49    0.76  1.0000
  11   4   5     124      86                                                         142    1.69    1.02  1.0000
  -4  11   5       1     100                                                        -133    1.77    0.43  1.0000
  -4  11   5      90      92                                                         105    1.77    0.43  1.0000
  11   4   5     110     119                                                         127    1.69    1.02  1.0000
  -3  11   5       0      91                                                        -124   -1.09   -0.07  1.0000
  11   3   5       0      81                                                         -35   -1.13   -0.44  1.0000
  11   3   5      25     116                                                          22   -1.13   -0.44  1.0000
  -3  11   5       0      87                                                          -2   -1.09   -0.07  1.0000
  -2  11   5       0      92                                                           0   -0.44    0.54  1.0000
  -2  11   5       0      87                                                        -120   -0.44    0.54  1.0000
  11   2   5     104      86                                                         107   -0.28    0.66  1.0000
  11   2   5     215     119                                                         219   -0.28    0.66  1.0000
  -1  11   5       0      96                                                           4   -4.59    0.73  1.0000
  11   1   5      39      81                                                          68   -4.66    1.27  1.0000
  11   1   5       5     116                                                          17   -4.66    1.27  1.0000
  -1  11   5       0      87                                                           6   -4.59    0.73  1.0000
   0  11   5       0      94                                                        -241    0.03    0.48  1.0000
   0  11   5       0      92                                                          -4    0.03    0.48  1.0000
  11   0   5     114      74                                                         112    0.21    0.33  1.0000
  11   0   5     120     122                                                         118    0.21    0.33  1.0000
   1  11   5      28      89                                                          49   -4.15    0.86  1.0000
  11  -1   5       3     115                                                         -25   -4.27    0.61  1.0000
   2  11   5       1     152                                                         -72   -2.48   -0.02  1.0000
  11  -2   5      41     108                                                          29   -2.42   -0.07  1.0000
   2  11   5      61      91                                                          46   -2.48   -0.02  1.0000
 -11   3  -5       2      80                                                        -101    3.14   -0.75  1.0000
   3  11   5      85     152                                                          62    3.22    0.93  1.0000
   3  11   5       2      95                                                         -20    3.22    0.93  1.0000
  11  -3   5       5     114                                                           1    3.14    0.75  1.0000
 -11   4  -5       0      87                                                         -85   -0.76   -0.51  1.0000
   4  11   5      12      96                                                          14   -0.78    0.09  1.0000
   4  11   5      96     149                                                         103   -0.78    0.09  1.0000
  11  -4   5       0     112                                                         -18   -0.76    0.51  1.0000
 -11   5  -5       3      86                                                         -93   -3.78   -1.40  1.0000
  11  -5   5      18     116                                                          35   -3.78    1.40  1.0000
   5  11   5       3      92                                                         -12   -3.81    1.18  1.0000
   5  11   5     147     149                                                         189   -3.81    1.18  1.0000
 -11   6  -5       6      90                                                           5   -0.88   -0.17  1.0000
   6  11   5       0     104                                                         -95   -0.79    0.13  1.0000
   6  11   5       0     146                                                         -56   -0.79    0.13  1.0000
 -11   7  -5      36      88                                                          51    2.54   -1.60  1.0000
   7  11   5       1     111                                                         -50    2.64    0.83  1.0000
   7  11   5     246     147                                                         283    2.64    0.83  1.0000
  -5  12   5       1     113                                                          -9   -0.67    2.47  1.0000
  12   5   5       1      87                                                         -73   -0.54    2.56  1.0000
  12   5   5       8     118                                                          12   -0.54    2.56  1.0000
  -5  12   5       1      95                                                        -154   -0.67    2.47  1.0000
  12   4   5       4      88                                                           8   -2.10   -0.56  1.0000
  12   4   5      84     122                                                         102   -2.10   -0.56  1.0000
  -4  12   5       1      92                                                         -90   -1.95   -0.44  1.0000
  -4  12   5      36     104                                                          47   -1.95   -0.44  1.0000
  -3  12   5       2      93                                                         -26   -3.09   -0.15  1.0000
  12   3   5     156     120                                                         190   -3.05    0.00  1.0000
  -3  12   5       2      97                                                         -86   -3.09   -0.15  1.0000
  12   3   5       2      85                                                        -170   -3.05    0.00  1.0000
  12   2   5      44      80                                                          30   -3.06    0.35  1.0000
  12   2   5     140     122                                                         114   -3.06    0.35  1.0000
  -2  12   5       2      98                                                        -120   -3.14    0.47  1.0000
  -2  12   5       2      96                                                         -41   -3.14    0.47  1.0000
  12   1   5       9      81                                                          11    0.73    1.59  1.0000
  12   1   5      83     118                                                          91    0.73    1.59  1.0000
  -1  12   5       0      97                                                        -233    0.86    1.11  1.0000
  -1  12   5      25      90                                                          29    0.86    1.11  1.0000
  12   0   5     185     127                                                         183    1.23    1.91  1.0000
   0  12   5       2      91                                                         -70    1.35    2.72  1.0000
   0  12   5       2      93                                                        -147    1.35    2.72  1.0000
  12  -1   5       2     103                                                         -15    2.97    0.51  1.0000
   1  12   5       2      90                                                        -117    3.12    0.70  1.0000
  12  -2   5      27     110                                                          36    1.32    1.68  1.0000
   2  12   5       1      89                                                           3    1.49    1.32  1.0000
   2  12   5       1     160                                                        -142    1.49    1.32  1.0000
 -12   3  -5       0      87                                                         -88    0.51    1.05  1.0000
   3  12   5       0     158                                                         -30    0.47   -0.74  1.0000
   3  12   5       0      92                                                         -84    0.47   -0.74  1.0000
  12  -3   5      23     113                                                          22    0.51   -1.05  1.0000
 -12   4  -5     145      95                                                         200    4.87   -1.33  1.0000
   4  12   5       2      94                                                          11    4.87    1.46  1.0000
  12  -4   5      50     117                                                          84    4.87    1.33  1.0000
   4  12   5     305     159                                                         383    4.87    1.46  1.0000
 -12   5  -5     136      96                                                         157   -1.87   -1.61  1.0000
  12  -5   5     163     119                                                         186   -1.87    1.61  1.0000
   5  12   5       1      95                                                         -35   -1.99    1.33  1.0000
   5  12   5      22     151                                                          31   -1.99    1.33  1.0000
  -1  13   5       0      91                                                        -130    0.97    1.05  1.0000
  13   1   5     121     127                                                         114    0.86    0.79  1.0000
  13   1   5      48      82                                                          43    0.86    0.79  1.0000
  -1  13   5       0      99                                                        -127    0.97    1.05  1.0000
  13   0   5     126     133                                                         218    8.12    2.03  1.0000
   0  13   5      38      98                                                          94    8.11    2.10  1.0000
   1  13   5       1      98                                                         -60    1.88    1.28  1.0000
  13  -1   5      19     105                                                          28    1.84    1.56  1.0000
   0   0   6    1820     200                                                        2000    4.93   -0.82  1.0000
   0   1   6      80     127                                                          74    0.89   -0.66  1.0000
   0  -1   6      64     137                                                          58    0.89    0.09  1.0000
   1   0   6      17     135                                                          14    0.90   -0.30  1.0000
  -1   0   6     267     131                                                         256    0.82   -0.43  1.0000
  -1  -1   6      51     128                                                          48    0.55   -0.03  1.0000
   1   1   6     204     133                                                         197    0.61   -0.15  1.0000
   1  -1   6     186     141                                                         181    0.46   -0.25  1.0000
   1   1   6     103      82                                                          98    0.61   -0.15  1.0000
  -1   1   6      39     128                                                          36    0.68   -0.09  1.0000
   1  -2   6     920     150                                                         849   -2.85    0.28  1.0000
  -1   2   6    1034     181                                                         956   -2.93   -0.32  1.0000
  -2  -1   6     890     137                                                         820   -2.85    0.13  1.0000
   2   1   6    1014     136                                                         937   -2.91   -0.33  1.0000
   2   1   6     777     126                                                         710   -2.91   -0.33  1.0000
  -2   0   6       3     122                                                         -13   -4.03   -0.44  1.0000
   0  -2   6      65     141                                                          96   -4.11   -0.25  1.0000
   0   2   6       3     120                                                        -128   -4.01   -0.90  1.0000
   0   2   6      11      82                                                          26   -4.01   -0.90  1.0000
  -1  -2   6       0     132                                                         -11    0.00    1.09  1.0000
   1   2   6       0      82                                                         -23   -0.07    0.67  1.0000
  -2   1   6     102     122                                                         103   -0.08    0.95  1.0000
   1   2   6      23     128                                                          23   -0.07    0.67  1.0000
   2   2   6      40      85                                                          46   -1.16    0.00  1.0000
   2   2   6       0     120                                                         -97   -1.16    0.00  1.0000
  -2   2   6      46     118                                                          53   -1.22   -0.39  1.0000
  -2  -2   6      68     131                                                          78   -1.34   -0.41  1.0000
   3   2   6      99     104                                                         116   -2.02    0.93  1.0000
   3   2   6     101      85                                                         119   -2.02    0.93  1.0000
  -2   3   6     148     124                                                         171   -2.16    0.65  1.0000
  -3  -2   6     177     127                                                         202   -2.17    0.86  1.0000
  -1   3   6     226      83                                                         229   -0.15   -1.03  1.0000
   1  -3   6     165     136                                                         169   -0.21   -1.44  1.0000
   3   1   6      91      77                                                          93   -0.19   -0.98  1.0000
  -1   3   6     269     124                                                         272   -0.15   -1.03  1.0000
  -3  -1   6      54     124                                                          55   -0.12   -1.47  1.0000
   3   1   6     293     111                                                         297   -0.19   -0.98  1.0000
   0  -3   6       0     141                                                        -120   -0.35   -0.64  1.0000
  -3   0   6     175     129                                                         180   -0.38   -0.71  1.0000
   0   3   6       0      80                                                        -222   -0.35   -0.78  1.0000
   3   0   6       0      71                                                         -55   -0.28   -0.67  1.0000
   0   3   6      57     120                                                          60   -0.35   -0.78  1.0000
   1   3   6     274     125                                                         256   -1.29   -0.28  1.0000
   1   3   6     255      92                                                         238   -1.29   -0.28  1.0000
  -1  -3   6     429     144                                                         403   -1.50   -0.37  1.0000
  -3   1   6     212     128                                                         195   -1.38   -0.45  1.0000
  -3   2   6      84     120                                                          87   -0.37   -0.12  1.0000
  -2  -3   6       0     132                                                         -61   -0.30    0.38  1.0000
   2   3   6       0      89                                                        -118   -0.34   -0.05  1.0000
   2   3   6      23     119                                                          24   -0.34   -0.05  1.0000
  -3  -3   6       1     134                                                        -107   -2.48   -0.68  1.0000
   3   3   6     126      95                                                         148   -2.21   -0.17  1.0000
  -3   3   6      42     119                                                          56   -2.42   -0.20  1.0000
   3   3   6       6     104                                                          12   -2.21   -0.17  1.0000
   4   3   6     111      89                                                         106    0.62   -1.13  1.0000
   4   3   6     238     112                                                         231    0.62   -1.13  1.0000
  -4  -3   6      85     133                                                          80    0.66   -0.89  1.0000
  -3   4   6      39     115                                                          36    0.70   -1.23  1.0000
  -3   4   6      68      78                                                          64    0.70   -1.23  1.0000
   4   2   6    1066     148                                                        1111    1.64   -0.09  1.0000
  -4  -2   6    1181     151                                                        1223    1.49   -0.68  1.0000
   4   2   6    1182     137                                                        1230    1.64   -0.09  1.0000
  -2   4   6     821     150                                                         858    1.52   -0.30  1.0000
  -2   4   6    1055     181                                                        1097    1.52   -0.30  1.0000
   4   1   6       2      74                                                         -11    3.03   -0.30  1.0000
  -1   4   6       9     119                                                           3    3.07   -0.59  1.0000
  -1   4   6      43      85                                                          28    3.07   -0.59  1.0000
   4   1   6       2     109                                                         -33    3.03   -0.30  1.0000
  -4  -1   6     136     121                                                         107    3.13   -0.31  1.0000
   4   0   6      94     110                                                          97    1.19   -4.01  1.0000
   4   0   6       3      68                                                         -33    1.19   -4.01  1.0000
   0   4   6       4     116                                                         -17    1.32   -4.27  1.0000
   0   4   6       4      86                                                         -53    1.32   -4.27  1.0000
  -4   0   6      72     118                                                          73    1.55   -4.10  1.0000
   0  -4   6       3     142                                                         -91    1.40   -3.81  1.0000
  -4   1   6      40     116                                                          45   -0.82    0.04  1.0000
  -1  -4   6       0     140                                                         -44   -0.69    0.03  1.0000
   1   4   6      14      88                                                          17   -0.89   -0.59  1.0000
   4  -1   6     321     121                                                         332   -0.67   -0.61  1.0000
   4  -1   6      34      69                                                          38   -0.67   -0.61  1.0000
   1   4   6     127     122                                                         136   -0.89   -0.59  1.0000
  -2  -4   6      55     139                                                          61   -0.90   -0.65  1.0000
   2   4   6      16     114                                                          19   -0.78   -0.47  1.0000
  -4   2   6       0     108                                                        -138   -0.86   -0.76  1.0000
   2   4   6       0      93                                                         -30   -0.78   -0.47  1.0000
  -4   3   6     485     117                                                         500    0.81   -0.44  1.0000
   3   4   6     692     124                                                         710    0.85   -0.38  1.0000
  -3  -4   6     676     145                                                         694    0.86   -0.56  1.0000
   3   4   6     588     105                                                         605    0.85   -0.38  1.0000
   4   4   6      70     113                                                          96   -3.46   -0.07  1.0000
  -4   4   6       5     109                                                          14   -3.43    0.15  1.0000
  -4  -4   6       2     132                                                         -67   -3.55    0.37  1.0000
   4   4   6      54      99                                                          77   -3.46   -0.07  1.0000
  -4   5   6       0     107                                                          -1    0.12   -0.70  1.0000
   5   4   6      51      93                                                          52   -0.01   -0.87  1.0000
   5   4   6       0     112                                                         -28   -0.01   -0.87  1.0000
  -4   5   6       0      80                                                         -37    0.12   -0.70  1.0000
  -3   5   6       0      82                                                         -14    0.38   -1.38  1.0000
   5   3   6      55     112                                                          53    0.43   -1.19  1.0000
  -3   5   6      56     113                                                          55    0.38   -1.38  1.0000
   5   3   6      89      86                                                          87    0.43   -1.19  1.0000
  -2   5   6      16      85                                                           9    2.33    0.25  1.0000
   5   2   6       1      79                                                         -35    2.29    0.68  1.0000
   5   2   6      77     109                                                          61    2.29    0.68  1.0000
  -5  -2   6     111     118                                                          91    2.37    0.45  1.0000
  -2   5   6     136     117                                                         114    2.33    0.25  1.0000
  -1   5   6      33      87                                                          36   -0.51   -0.23  1.0000
  -1   5   6      92     119                                                          96   -0.51   -0.23  1.0000
  -5  -1   6       0     113                                                          -9   -0.39   -0.17  1.0000
   5   1   6     278     112                                                         286   -0.56   -0.01  1.0000
   5   1   6      92      77                                                          97   -0.56   -0.01  1.0000
   5   0   6     756     135                                                         778    1.00   -1.13  1.0000
   0   5   6     479     123                                                         496    0.99   -1.08  1.0000
  -5   0   6     466     116                                                         485    1.06   -0.53  1.0000
   0  -5   6     704     146                                                         727    1.03   -0.57  1.0000
   5   0   6     450      81                                                         467    1.00   -1.13  1.0000
   0   5   6     248      94                                                         260    0.99   -1.08  1.0000
  -5   1   6      73     104                                                          67    0.96   -0.66  1.0000
   1   5   6       0      87                                                         -40    1.04   -0.93  1.0000
   5  -1   6       0      71                                                         -24    1.02   -1.16  1.0000
   1   5   6      55     117                                                          49    1.04   -0.93  1.0000
   5  -1   6      37     112                                                          32    1.02   -1.16  1.0000
  -1  -5   6     228     150                                                         218    0.94   -1.02  1.0000
  -2  -5   6       1     144                                                         -15    1.79    1.50  1.0000
  -5   2   6       1     101                                                         -90    1.73    1.02  1.0000
   5  -2   6     146     109                                                         129    1.79    1.40  1.0000
   2   5   6       1     108                                                         -38    1.73    0.80  1.0000
   2   5   6       1      93                                                          -2    1.73    0.80  1.0000
   5  -2   6       9      71                                                           5    1.79    1.40  1.0000
   3   5   6      33      99                                                          33   -0.03    1.08  1.0000
  -5   3   6      92     103                                                          93   -0.16    1.43  1.0000
  -3  -5   6       0     136                                                         -36   -0.28    1.06  1.0000
   3   5   6     124     111                                                         124   -0.03    1.08  1.0000
  -5   4   6       0     103                                                        -143   -0.73    1.02  1.0000
   4   5   6       0      98                                                        -174   -0.83    0.87  1.0000
  -4  -5   6       7     138                                                           8   -0.64    0.54  1.0000
   4   5   6      23     110                                                          27   -0.83    0.87  1.0000
   5   5   6     167     102                                                         152   -1.48    0.75  1.0000
   5   5   6     276     115                                                         257   -1.48    0.75  1.0000
  -5   5   6      91     107                                                          81   -1.36    0.38  1.0000
  -5   6   6      41     110                                                          46   -0.83   -0.96  1.0000
   6   5   6       0      97                                                        -102   -0.87   -0.79  1.0000
  -5   6   6       0      82                                                        -141   -0.83   -0.96  1.0000
   6   5   6      82     110                                                          90   -0.87   -0.79  1.0000
  -4   6   6       8      82                                                          18   -3.22    0.32  1.0000
  -4   6   6      68     107                                                          92   -3.22    0.32  1.0000
   6   4   6       8      91                                                          17   -3.12    0.09  1.0000
   6   4   6      52     116                                                          73   -3.12    0.09  1.0000
   6   3   6     594     117                                                         495   -5.03    0.17  1.0000
   6   3   6     327      88                                                         255   -5.03    0.17  1.0000
  -3   6   6     384      89                                                         308   -4.92    0.40  1.0000
  -3   6   6     314     113                                                         245   -4.92    0.40  1.0000
  -2   6   6       1     110                                                         -35   -2.75   -0.20  1.0000
  -2   6   6       1      83                                                        -117   -2.75   -0.20  1.0000
   6   2   6       1      79                                                         -31   -2.71    0.23  1.0000
   6   2   6     153     118                                                         183   -2.71    0.23  1.0000
  -1   6   6      38     115                                                          68   -4.41    3.15  1.0000
   6   1   6      53     118                                                          87   -4.46    2.44  1.0000
   6   1   6      82      78                                                         123   -4.46    2.44  1.0000
  -1   6   6       5      88                                                        -100   -4.41    3.15  1.0000
   6   0   6      26      76                                                          40   -2.88   -0.36  1.0000
  -6   0   6       2     102                                                         -67   -2.85   -0.82  1.0000
   6   0   6     206     117                                                         243   -2.88   -0.36  1.0000
   0   6   6       2     113                                                         -51   -2.81   -0.75  1.0000
   0   6   6       2      90                                                         -21   -2.81   -0.75  1.0000
   1   6   6      58      93                                                          67   -1.36   -0.69  1.0000
   1   6   6      36     114                                                          44   -1.36   -0.69  1.0000
   6  -1   6      76      75                                                          87   -1.38   -0.71  1.0000
  -1  -6   6     131     145                                                         145   -1.40    0.27  1.0000
   6  -1   6     219     120                                                         237   -1.38   -0.71  1.0000
  -6   1   6      15      99                                                          19   -1.32    0.25  1.0000
   2   6   6     778     111                                                         741   -1.60   -0.20  1.0000
   2   6   6     573     101                                                         541   -1.60   -0.20  1.0000
   6  -2   6     834     130                                                         795   -1.66    0.32  1.0000
  -6   2   6     622     111                                                         590   -1.59    0.54  1.0000
  -2  -6   6     596     156                                                         564   -1.64    0.96  1.0000
   6  -2   6    1030     126                                                         986   -1.66    0.32  1.0000
  -6   3   6       1     102                                                         -73   -2.39    0.51  1.0000
   3   6   6     206     118                                                         235   -2.29    0.19  1.0000
   6  -3   6     247     117                                                         277   -2.19   -0.48  1.0000
  -3  -6   6       1     146                                                        -136   -2.22   -0.12  1.0000
   3   6   6      11     102                                                          18   -2.29    0.19  1.0000
  -6   4   6      30     105                                                          63   -5.81    0.54  1.0000
   4   6   6       3     102                                                          16   -5.72    0.39  1.0000
   4   6   6     143     120                                                         206   -5.72    0.39  1.0000
   5   6   6       1     104                                                         -10   -2.61   -0.13  1.0000
   5   6   6     102     121                                                         126   -2.61   -0.13  1.0000
  -6   5   6       1     105                                                         -75   -2.62    0.04  1.0000
   6   6   6       4     102                                                        -110   -4.52   -1.48  1.0000
  -6   6   6      13     111                                                          31   -4.61   -1.59  1.0000
   6   6   6     148     119                                                         200   -4.52   -1.48  1.0000
   7   6   6     323     122                                                         315   -0.56   -0.11  1.0000
  -6   7   6     137      91                                                         130   -0.72    0.05  1.0000
   7   6   6     110     107                                                         105   -0.56   -0.11  1.0000
  -6   7   6     144     117                                                         137   -0.72    0.05  1.0000
  -5   7   6      30     111                                                          51   -4.02   -0.26  1.0000
  -5   7   6       3      90                                                         -95   -4.02   -0.26  1.0000
   7   5   6      83     114                                                         118   -4.08   -0.24  1.0000
   7   5   6       3      92                                                         -53   -4.08   -0.24  1.0000
  -4   7   6     107     108                                                         124   -1.92    1.13  1.0000
   7   4   6      48      88                                                          60   -1.92    0.64  1.0000
  -4   7   6       5      86                                                           9   -1.92    1.13  1.0000
   7   4   6     122     120                                                         140   -1.92    0.64  1.0000
  -3   7   6      24     108                                                          36   -2.53    0.42  1.0000
  -3   7   6       1      83                                                        -132   -2.53    0.42  1.0000
   7   3   6       1      84                                                          -7   -2.59    0.49  1.0000
   7   3   6     174     116                                                         204   -2.59    0.49  1.0000
   7   2   6     186     120                                                         216   -2.53    0.10  1.0000
   7   2   6      60      82                                                          78   -2.53    0.10  1.0000
  -2   7   6       1     108                                                         -40   -2.38   -0.31  1.0000
  -2   7   6       1      85                                                         -65   -2.38   -0.31  1.0000
  -1   7   6     145      91                                                         132   -1.33   -0.51  1.0000
  -1   7   6      65     117                                                          56   -1.33   -0.51  1.0000
   7   1   6      88      81                                                          78   -1.34   -0.34  1.0000
   7   1   6     245     120                                                         227   -1.34   -0.34  1.0000
   7   0   6      18     124                                                          36   -4.06    1.07  1.0000
   7   0   6      82      81                                                         116   -4.06    1.07  1.0000
   0   7   6       3     114                                                          -2   -3.82    0.73  1.0000
   0   7   6       3      91                                                         -34   -3.82    0.73  1.0000
   7  -1   6     167     120                                                         189   -1.94   -0.37  1.0000
  -1  -7   6       1     138                                                         -40   -2.03   -0.73  1.0000
   1   7   6      46     111                                                          58   -1.97   -0.84  1.0000
   7  -1   6     137      78                                                         157   -1.94   -0.37  1.0000
   1   7   6       1      93                                                         -91   -1.97   -0.84  1.0000
  -2  -7   6      71     152                                                          86   -2.00   -0.56  1.0000
   2   7   6      41      94                                                          53   -2.13   -0.62  1.0000
   7  -2   6      30      73                                                          41   -2.21   -0.57  1.0000
   7  -2   6     282     114                                                         315   -2.21   -0.57  1.0000
  -7   3   6      33     100                                                          41   -1.51    0.22  1.0000
   7  -3   6     188     122                                                         205   -1.48    0.50  1.0000
   3   7   6       8      97                                                          12   -1.46   -0.27  1.0000
  -3  -7   6       1     149                                                        -192   -1.50    1.00  1.0000
   3   7   6     146     125                                                         161   -1.46   -0.27  1.0000
   4   7   6     332     127                                                         261   -4.86   -0.45  1.0000
   7  -4   6     383     116                                                         304   -5.03   -0.53  1.0000
   4   7   6     268     111                                                         205   -4.86   -0.45  1.0000
  -7   4   6     296     107                                                         231   -4.77   -0.17  1.0000
   5   7   6       0     107                                                         -15   -1.09    0.14  1.0000
   5   7   6      64     124                                                          72   -1.09    0.14  1.0000
  -7   5   6      31     109                                                          36   -1.05    0.35  1.0000
   6   7   6       0     126                                                         -86   -1.28    0.60  1.0000
  -7   6   6      78     114                                                          89   -1.38    0.57  1.0000
   6   7   6     118     112                                                         130   -1.28    0.60  1.0000
   7   7   6     163     128                                                         176   -1.20    0.20  1.0000
  -7   7   6       0     122                                                         -98   -1.09    0.13  1.0000
   7   7   6       0     110                                                         -33   -1.20    0.20  1.0000
   8   7   6       2     104                                                        -124   -2.94    1.76  1.0000
  -7   8   6       2      89                                                         -67   -2.89    1.88  1.0000
  -7   8   6      12     125                                                          23   -2.89    1.88  1.0000
   8   7   6      70     129                                                          95   -2.94    1.76  1.0000
   8   6   6     126     122                                                         144   -1.74    0.61  1.0000
  -6   8   6       1     116                                                        -223   -1.59    0.82  1.0000
   8   6   6       1      97                                                        -155   -1.74    0.61  1.0000
  -6   8   6       1      89                                                         -74   -1.59    0.82  1.0000
  -5   8   6       2      89                                                        -156   -3.26    0.28  1.0000
   8   5   6     165     122                                                         202   -3.26    0.18  1.0000
   8   5   6       2      90                                                         -27   -3.26    0.18  1.0000
  -5   8   6      75     112                                                         100   -3.26    0.28  1.0000
  -4   8   6     159      92                                                         134   -2.43   -0.39  1.0000
  -4   8   6     199     107                                                         171   -2.43   -0.39  1.0000
   8   4   6     602     128                                                         552   -2.43   -0.53  1.0000
   8   4   6     232      94                                                         201   -2.43   -0.53  1.0000
   8   3   6      46     118                                                          53   -1.20    0.19  1.0000
   8   3   6      39      85                                                          46   -1.20    0.19  1.0000
  -3   8   6       0     104                                                         -90   -1.12    0.25  1.0000
  -3   8   6       0      85                                                        -112   -1.12    0.25  1.0000
   8   2   6      76      85                                                          82   -0.23   -1.69  1.0000
   8   2   6     129     124                                                         136   -0.23   -1.69  1.0000
  -2   8   6       1     108                                                        -101   -0.04   -2.50  1.0000
  -2   8   6       1      85                                                         -95   -0.04   -2.50  1.0000
  -1   8   6       3      89                                                         -20   -3.93   -0.72  1.0000
  -1   8   6       3     113                                                         -77   -3.93   -0.72  1.0000
   8   1   6     172     128                                                         220   -3.96   -1.11  1.0000
   8   1   6       3      82                                                         -50   -3.96   -1.11  1.0000
   8   0   6      96     127                                                         116   -2.30    0.35  1.0000
   0   8   6       1      94                                                         -18   -2.15    0.36  1.0000
   0   8   6       1     108                                                        -253   -2.15    0.36  1.0000
   8   0   6       1      77                                                        -101   -2.30    0.35  1.0000
   1   8   6     146     109                                                         114   -3.40    0.43  1.0000
   8  -1   6      77      78                                                          53   -3.58    0.60  1.0000
   1   8   6     144      96                                                         112   -3.40    0.43  1.0000
   8  -1   6     365     123                                                         310   -3.58    0.60  1.0000
  -2  -8   6     127     146                                                         141   -1.39   -0.67  1.0000
   2   8   6       1      96                                                         -10   -1.33   -1.99  1.0000
   8  -2   6      67     116                                                          78   -1.36   -0.94  1.0000
   8  -2   6      44      74                                                          53   -1.36   -0.94  1.0000
   3   8   6       0      97                                                         -36   -0.64   -1.13  1.0000
   3   8   6     173     134                                                         183   -0.64   -1.13  1.0000
  -3  -8   6       0     153                                                        -237   -0.69    0.41  1.0000
   8  -3   6      56     123                                                          62   -0.81   -0.70  1.0000
   8  -4   6     107     115                                                         159   -5.38    0.00  1.0000
   4   8   6      17     105                                                          42   -5.42   -0.79  1.0000
   4   8   6      28     137                                                          58   -5.42   -0.79  1.0000
   5   8   6       1     109                                                         -84   -1.67    0.68  1.0000
  -8   5   6       9     108                                                          13   -1.67    0.75  1.0000
   5   8   6     154     134                                                         172   -1.67    0.68  1.0000
  -8   6   6     173     113                                                         124   -4.78   -0.24  1.0000
   6   8   6      55     112                                                          30   -4.66   -0.29  1.0000
   6   8   6     380     136                                                         307   -4.66   -0.29  1.0000
   7   8   6       9     117                                                         -72   -7.00   -0.54  1.0000
   7   8   6      27     132                                                          67   -7.00   -0.54  1.0000
  -8   7   6      68     119                                                         128   -7.18   -0.57  1.0000
   9   5   6     109      95                                                         134   -2.48   -1.41  1.0000
  -5   9   6      61     113                                                          80   -2.37   -1.52  1.0000
   9   5   6     113     128                                                         139   -2.48   -1.41  1.0000
  -5   9   6       1      94                                                         -55   -2.37   -1.52  1.0000
  -4   9   6      18     106                                                          35   -3.97    0.01  1.0000
   9   4   6       4      93                                                          13   -3.86    0.07  1.0000
   9   4   6      55     127                                                          82   -3.86    0.07  1.0000
  -4   9   6       3      89                                                        -158   -3.97    0.01  1.0000
  -3   9   6       0     105                                                         -36   -1.25   -0.39  1.0000
   9   3   6     262     132                                                         279   -1.23   -0.29  1.0000
   9   3   6      26      90                                                          32   -1.23   -0.29  1.0000
  -3   9   6       0      89                                                         -41   -1.25   -0.39  1.0000
  -2   9   6     132     108                                                         128   -0.44    0.02  1.0000
   9   2   6     192     128                                                         186   -0.57    0.36  1.0000
  -2   9   6      65      90                                                          62   -0.44    0.02  1.0000
   9   2   6     253      91                                                         246   -0.57    0.36  1.0000
  -1   9   6       0      89                                                         -75   -1.55   -0.23  1.0000
   9   1   6       0      87                                                          -4   -1.54   -0.37  1.0000
  -1   9   6       0     115                                                         -24   -1.55   -0.23  1.0000
   9   1   6      29     129                                                          36   -1.54   -0.37  1.0000
   9   0   6      71     132                                                          90   -2.55    0.44  1.0000
   0   9   6       1      97                                                         -44   -2.50    0.20  1.0000
   0   9   6       1     105                                                        -126   -2.50    0.20  1.0000
   9   0   6     106      84                                                         129   -2.55    0.44  1.0000
   9  -1   6       1     118                                                         -26    2.07    1.11  1.0000
   1   9   6       1     101                                                        -142    2.17    0.70  1.0000
   9  -1   6     158      80                                                         137    2.07    1.11  1.0000
   1   9   6       4      97                                                           1    2.17    0.70  1.0000
   2   9   6       4      94                                                        -111   -4.51   -0.52  1.0000
   9  -2   6      51     121                                                          84   -4.72   -0.38  1.0000
   3   9   6     270     142                                                         240   -2.22   -0.80  1.0000
  -3  -9   6       1     152                                                         -13   -2.19    0.15  1.0000
   3   9   6      21      98                                                          13   -2.22   -0.80  1.0000
   9  -3   6     148     128                                                         127   -2.08   -0.35  1.0000
  -9   4  -6      55      83                                                         102   -6.40   -0.94  1.0000
   9  -4   6      29     117                                                          65   -6.40    0.94  1.0000
   4   9   6       7     105                                                         -85   -6.19    0.65  1.0000
   4   9   6      57     146                                                         103   -6.19    0.65  1.0000
   5   9   6     144     143                                                         213   -6.12   -0.13  1.0000
   5   9   6       7     110                                                        -153   -6.12   -0.13  1.0000
   9  -5   6     101     120                                                         158   -6.01    0.53  1.0000
  -3  10   6      16      91                                                          31   -3.07    2.53  1.0000
  -3  10   6      20     110                                                          37   -3.07    2.53  1.0000
  10   3   6      93      93                                                         127   -2.98    2.74  1.0000
  10   3   6       3     132                                                        -218   -2.98    2.74  1.0000
  10   2   6       0      91                                                         -92    0.63    0.43  1.0000
  -2  10   6       0     112                                                         -39    0.72    0.17  1.0000
  -2  10   6       0      90                                                        -157    0.72    0.17  1.0000
  10   2   6       0     132                                                          -8    0.63    0.43  1.0000
  -1  10   6       0      89                                                         -26    0.89    0.31  1.0000
  10   1   6       0      87                                                         -20    0.91    0.51  1.0000
  10   1   6     145     136                                                         136    0.91    0.51  1.0000
  -1  10   6       0     114                                                        -170    0.89    0.31  1.0000
   0  10   6     179     108                                                         147   -3.02    0.06  1.0000
  10   0   6     270     141                                                         229   -3.10    0.29  1.0000
  10   0   6     192      86                                                         158   -3.10    0.29  1.0000
   0  10   6     109      96                                                          84   -3.02    0.06  1.0000
   1  10   6       0      95                                                          -5   -0.68    0.97  1.0000
  10  -1   6      20      83                                                          22   -0.65    0.59  1.0000
  10  -1   6      90     125                                                          95   -0.65    0.59  1.0000
  10  -2   6      87     127                                                         118   -3.64    0.43  1.0000
   2  10   6       2      98                                                         -15   -3.50    0.72  1.0000
   3  10   6       5     100                                                        -177   -5.22   -0.37  1.0000
  10  -3   6      56     129                                                          95   -5.31   -0.14  1.0000
   0   0   7      50     152                                                          40   -1.79    0.54  1.0000
  -1   0   7      45     148                                                          46    0.50    1.98  1.0000
   0  -1   7       0     159                                                         -18    0.46    1.54  1.0000
   0   1   7       0     145                                                         -92    0.48    1.59  1.0000
   1   0   7       0     139                                                         -25    0.48    1.22  1.0000
   1   1   7       2     144                                                         -35    2.80    1.26  1.0000
   1  -1   7       2     141                                                        -105    2.96    1.38  1.0000
  -1  -1   7       2     152                                                         -25    2.92    1.47  1.0000
  -1   1   7       2     142                                                        -123    2.80    1.38  1.0000
  -1   2   7      18     138                                                          33    3.35    1.63  1.0000
  -2  -1   7      16     144                                                          30    3.25    1.40  1.0000
  -2   0   7       3     141                                                         -94    4.00    0.62  1.0000
   0  -2   7       3     162                                                         -45    4.06    0.26  1.0000
   0   2   7     104     143                                                         142    4.02    0.77  1.0000
  -1  -2   7       0     156                                                        -177   -0.44   -0.25  1.0000
  -2   1   7       0     141                                                        -103   -0.39   -0.20  1.0000
   1   2   7       0     141                                                        -180   -0.46   -0.17  1.0000
  -2   2   7       1     141                                                         -33    1.61    0.58  1.0000
  -2  -2   7       0     147                                                        -130    1.51    0.56  1.0000
  -2   3   7       1     138                                                          -2   -1.62   -1.10  1.0000
  -3  -2   7      20     147                                                          28   -1.62   -1.28  1.0000
  -1   3   7       0     134                                                         -10   -0.72    0.58  1.0000
  -3  -1   7     104     144                                                         110   -0.69    0.28  1.0000
   0  -3   7       1     157                                                        -121   -1.51    1.04  1.0000
  -3   0   7      13     134                                                          10   -1.41    1.07  1.0000
   0   3   7       1     135                                                        -218   -1.52    0.93  1.0000
  -3   1   7       0     131                                                         -17   -0.33    0.35  1.0000
  -1  -3   7       0     162                                                        -100   -0.27    0.51  1.0000
   1   3   7       0     142                                                        -143   -0.44    0.27  1.0000
  -3   2   7       4     131                                                           7    0.56    1.31  1.0000
  -2  -3   7       0     154                                                         -96    0.42    1.46  1.0000
  -3   3   7       0     131                                                         -60    0.48    0.65  1.0000
   3   3   7      62      96                                                          59    0.48    0.50  1.0000
  -3  -3   7       0     147                                                        -101    0.44    0.77  1.0000
   4   3   7       0      93                                                         -65   -1.47    0.47  1.0000
  -4  -3   7       0     151                                                         -12   -1.41    0.33  1.0000
  -3   4   7     102     131                                                         117   -1.62    0.62  1.0000
  -2   4   7      49     135                                                          25   -4.65   -0.32  1.0000
  -4  -2   7       4     136                                                        -143   -4.57   -0.26  1.0000
   4   2   7       4      93                                                        -138   -4.63   -0.25  1.0000
  -4  -1   7      36     135                                                          46   -1.91    0.59  1.0000
  -1   4   7       1     132                                                        -135   -1.96    0.78  1.0000
   0   4   7       3     136                                                        -110    0.71    4.37  1.0000
   0  -4   7       3     151                                                        -310    0.58    4.24  1.0000
  -4   0   7      83     134                                                         118    0.48    4.21  1.0000
  -1  -4   7       0     164                                                         -82   -0.08    0.55  1.0000
  -4   1   7       0     129                                                         -94   -0.03    0.48  1.0000
   1   4   7       0     138                                                         -41   -0.01    0.48  1.0000
  -2  -4   7       2     162                                                           6    2.73    1.01  1.0000
   2   4   7       1     102                                                         -76    2.73    0.68  1.0000
  -4   2   7      42     142                                                          59    2.68    0.87  1.0000
  -4   3   7      17     138                                                          33    3.79    0.81  1.0000
  -3  -4   7       3     152                                                        -272    3.70    1.12  1.0000
   3   4   7     111     109                                                         147    3.77    0.70  1.0000
  -4   4   7       0     132                                                        -299    0.59   -0.34  1.0000
   4   4   7       0     100                                                        -162    0.65   -0.19  1.0000
  -4  -4   7       0     148                                                        -267    0.58   -0.53  1.0000
  -4   5   7       0     129                                                         -91    1.36    0.54  1.0000
   5   4   7       0      99                                                         -74    1.36    0.60  1.0000
  -5  -4   7       0     155                                                        -239    1.33    0.64  1.0000
   5   3   7       0      92                                                        -119    0.62    0.76  1.0000
  -5  -3   7       0     140                                                         -48    0.62    0.94  1.0000
  -3   5   7       0     126                                                        -135    0.60    0.48  1.0000
  -2   5   7       0     127                                                        -229   -1.43   -0.34  1.0000
   5   2   7      53      91                                                          62   -1.32   -0.74  1.0000
  -5  -2   7       0     135                                                         -46   -1.45   -0.10  1.0000
  -5  -1   7       0     131                                                        -233    1.13    0.34  1.0000
  -1   5   7       0     127                                                        -161    1.31    0.34  1.0000
   0   5   7       0     132                                                        -249    0.89    0.83  1.0000
  -5   0   7       0     140                                                         -71    0.83    0.66  1.0000
   1   5   7       0     132                                                        -209   -0.79    0.26  1.0000
  -5   1   7       0     140                                                         -44   -0.77    0.31  1.0000
   1   5   7       0     102                                                         -69   -0.79    0.26  1.0000
  -1  -5   7     116     162                                                         123   -0.79    0.50  1.0000
   2   5   7       1     105                                                        -120   -1.72   -1.30  1.0000
  -2  -5   7       1     166                                                         -35   -1.65   -1.26  1.0000
  -5   2   7      96     137                                                         112   -1.59   -1.32  1.0000
  -5   3   7       0     130                                                        -166   -0.24   -0.75  1.0000
   3   5   7       0     107                                                        -156   -0.25   -0.61  1.0000
  -3  -5   7       0     164                                                         -59   -0.33   -0.27  1.0000
   4   5   7       0     108                                                         -98   -1.03   -0.03  1.0000
  -4  -5   7       0     160                                                         -20   -1.09    0.07  1.0000
  -5   4   7       0     131                                                         -67   -1.07    0.05  1.0000
   6   3   7     151     135                                                         198    4.17   -0.59  1.0000
   6   3   7       3      93                                                        -103    4.17   -0.59  1.0000
   6   2   7      12      90                                                          15   -0.36   -1.04  1.0000
  -2   6   7       0     129                                                         -38   -0.44   -0.77  1.0000
  -6  -1   7       2     135                                                         -31    0.95   -2.94  1.0000
  -1   6   7       2      94                                                        -112    1.04   -2.96  1.0000
   6   1   7      27      89                                                          41    0.97   -2.83  1.0000
  -1   6   7       2     130                                                        -140    1.04   -2.96  1.0000
   0   6   7       2     131                                                        -102    2.81    1.27  1.0000
  -6   0   7     114     133                                                         142    2.72    1.17  1.0000
   0   6   7      27      95                                                          42    2.81    1.27  1.0000
   1   6   7       0     129                                                        -173   -1.36    0.38  1.0000
  -6   1   7       0     131                                                         -60   -1.31   -0.20  1.0000
   1   6   7       0     102                                                         -82   -1.36    0.38  1.0000
  -1  -6   7      90     160                                                         101   -1.34   -0.22  1.0000
   2   6   7      12     110                                                           5   -3.00    0.17  1.0000
  -2  -6   7       2     170                                                        -191   -2.99   -0.28  1.0000
  -6   2   7       2     128                                                         -38   -3.02   -0.02  1.0000
   3   6   7       0     112                                                        -101    0.57    0.07  1.0000
;
loop_
_space_group_symop_operation_xyz
'x, y, z'
'-x, -y, z'
'-y, x, z'
'y, -x, z'
'-x, -y, -z'
'x, y, -z'
'y, -x, -z'
'-y, x, -z'
loop_
_atom_site_type_symbol
_atom_site_label
_atom_site_fract_x
_atom_site_fract_y
_atom_site_fract_z
_atom_site_U_iso_or_equiv
_atom_site_adp_type
_atom_site_calc_flag
_atom_site_refinement_flags
_atom_site_occupancy
Sn Sn1 0.79905(12) 0.40055(12) 0 0.0670(6) Uani d S 1
I I1 0 0.5 0 0.1057(11) Uani d S 1
I I2 0.79894(16) 0.40717(16) 0.5 0.1205(9) Uani d S 1
I I3 0.60783(14) 0.30811(15) 0 0.1122(9) Uani d S 1
I I4 0.88993(19) 0.21788(18) 0 0.1627(13) Uani d S 1
loop_
_atom_site_aniso_label
_atom_site_aniso_U_11
_atom_site_aniso_U_22
_atom_site_aniso_U_33
_atom_site_aniso_U_12
_atom_site_aniso_U_13
_atom_site_aniso_U_23
Sn1 0.0646(12) 0.0799(14) 0.0566(11) -0.0013(10) 0 0
I1 0.088(2) 0.127(3) 0.102(2) -0.0209(18) 0 0
I2 0.135(2) 0.154(2) 0.0726(14) -0.0228(16) 0 0
I3 0.0924(16) 0.1248(19) 0.1194(18) -0.0241(13) 0 0
I4 0.168(3) 0.102(2) 0.218(3) 0.0288(18) 0 0
loop_
_atom_type_symbol
_atom_type_description
_atom_type_scat_dispersion_real
_atom_type_scat_dispersion_imag
_atom_type_scat_source
C C 0.0033 0.0016 'International Tables Vol C Tables 4.2.6.8 and 6.1.1.4'
H H 0.0000 0.0000 'International Tables Vol C Tables 4.2.6.8 and 6.1.1.4'
N N 0.0061 0.0033 'International Tables Vol C Tables 4.2.6.8 and 6.1.1.4'
O O 0.0106 0.0060 'International Tables Vol C Tables 4.2.6.8 and 6.1.1.4'
Sn Sn -0.6537 1.4246 'International Tables Vol C Tables 4.2.6.8 and 6.1.1.4'
I I -0.4742 1.8119 'International Tables Vol C Tables 4.2.6.8 and 6.1.1.4'
loop_
_geom_angle_atom_site_label_1
_geom_angle_atom_site_label_2
_geom_angle_atom_site_label_3
_geom_angle_site_symmetry_1
_geom_angle_site_symmetry_3
_geom_angle
I4 Sn1 I3 . . 90.65(8)
I4 Sn1 I2 . . 91.57(5)
I3 Sn1 I2 . . 90.73(5)
I4 Sn1 I2 . 1_554 91.57(5)
I3 Sn1 I2 . 1_554 90.73(5)
I2 Sn1 I2 . 1_554 176.53(10)
Sn1 I2 Sn1 1_556 . 176.53(10)
loop_
_geom_bond_atom_site_label_1
_geom_bond_atom_site_label_2
_geom_bond_site_symmetry_2
_geom_bond_distance
Sn1 I4 . 2.983(4)
Sn1 I3 . 3.105(3)
Sn1 I2 . 3.1974(19)
Sn1 I2 1_554 3.1974(18)
I2 Sn1 1_556 3.1974(19)
loop_
_platon_squeeze_void_nr
_platon_squeeze_void_average_x
_platon_squeeze_void_average_y
_platon_squeeze_void_average_z
_platon_squeeze_void_volume
_platon_squeeze_void_count_electrons
1 -0.014 -0.005 -0.233 648.0 115.3
