#------------------------------------------------------------------------------
#$Date: 2019-11-24 20:57:03 +0200 (Sun, 24 Nov 2019) $
#$Revision: 239397 $
#$URL: file:///home/coder/svn-repositories/cod/cif/4/51/65/4516599.cif $
#------------------------------------------------------------------------------
#
# This file is available in the Crystallography Open Database (COD),
# http://www.crystallography.net/
#
# All data on this site have been placed in the public domain by the
# contributors.
#
data_4516599
loop_
_publ_author_name
'Kitamori, Toshiki'
'Yoo, Dongho'
'Iijima, Kodai'
'Kawamoto, Tadashi'
'Mori, Takehiko'
_publ_section_title
;
 Ambipolar Transistor Properties of Metal Complexes Derived from
 1,2-Phenylenediamines
;
_journal_issue                   8
_journal_name_full               'ACS Applied Electronic Materials'
_journal_page_first              1633
_journal_paper_doi               10.1021/acsaelm.9b00344
_journal_volume                  1
_journal_year                    2019
_chemical_absolute_configuration 'CHOOSE rm ad rmad syn or unk'
_chemical_formula_moiety         'C12 H10 F2 N4 Ni'
_chemical_formula_sum            'C12 H10 F2 N4 Ni'
_chemical_formula_weight         306.93
_space_group_crystal_system      monoclinic
_space_group_IT_number           4
_space_group_name_Hall           'P 2yb'
_space_group_name_H-M_alt        'P 1 21 1'
_atom_sites_solution_hydrogens   geom
_atom_sites_solution_primary     direct
_atom_sites_solution_secondary   difmap
_cell_angle_alpha                90.0000
_cell_angle_beta                 92.641(3)
_cell_angle_gamma                90.0000
_cell_formula_units_Z            2
_cell_length_a                   6.0153(3)
_cell_length_b                   7.3861(5)
_cell_length_c                   12.9529(7)
_cell_measurement_reflns_used    2497
_cell_measurement_temperature    274
_cell_measurement_theta_max      67.91
_cell_measurement_theta_min      3.42
_cell_volume                     574.88(6)
_computing_cell_refinement       'RAPID AUTO'
_computing_data_collection       'RAPID AUTO (Rigaku, ????)'
_computing_data_reduction        'RAPID AUTO'
_computing_molecular_graphics    'CrystalStructure 4.3'
_computing_publication_material  'CrystalStructure 4.3 (Rigaku, 2018)'
_computing_structure_refinement  'SHELXL Version 2018/1 (Sheldrick, 2008)'
_computing_structure_solution    'SHELXT Version 2014/5 (Sheldrick, 2014)'
_diffrn_ambient_temperature      274
_diffrn_detector_area_resol_mean 10.000
_diffrn_measured_fraction_theta_full 0.992
_diffrn_measured_fraction_theta_max 0.992
_diffrn_measurement_device_type  'Rigaku R-AXIS RAPID'
_diffrn_measurement_method       \w
_diffrn_radiation_type           'Cu K\a'
_diffrn_radiation_wavelength     1.54187
_diffrn_reflns_av_R_equivalents  0.1142
_diffrn_reflns_av_unetI/netI     0.1403
_diffrn_reflns_Laue_measured_fraction_full 0.992
_diffrn_reflns_Laue_measured_fraction_max 0.992
_diffrn_reflns_limit_h_max       7
_diffrn_reflns_limit_h_min       -7
_diffrn_reflns_limit_k_max       8
_diffrn_reflns_limit_k_min       -8
_diffrn_reflns_limit_l_max       15
_diffrn_reflns_limit_l_min       -15
_diffrn_reflns_number            6675
_diffrn_reflns_point_group_measured_fraction_full 0.984
_diffrn_reflns_point_group_measured_fraction_max 0.983
_diffrn_reflns_theta_full        67.687
_diffrn_reflns_theta_max         68.238
_diffrn_reflns_theta_min         3.416
_diffrn_standards_number         0
_exptl_absorpt_coefficient_mu    2.620
_exptl_absorpt_correction_T_max  0.995
_exptl_absorpt_correction_T_min  0.703
_exptl_absorpt_correction_type   multi-scan
_exptl_absorpt_process_details   'ABSCOR (Rigaku, 1995)'
_exptl_crystal_colour            black
_exptl_crystal_density_diffrn    1.773
_exptl_crystal_density_method    'not measured'
_exptl_crystal_description       needle
_exptl_crystal_F_000             312.00
_exptl_crystal_size_max          0.260
_exptl_crystal_size_mid          0.040
_exptl_crystal_size_min          0.002
_refine_diff_density_max         0.89
_refine_diff_density_min         -0.29
_refine_ls_abs_structure_details
;
 Flack x determined using 297 quotients [(I+)-(I-)]/[(I+)+(I-)]
 (Parsons, Flack and Wagner, Acta Cryst. B69 (2013) 249-259).
;
_refine_ls_abs_structure_Flack   0.36(12)
_refine_ls_extinction_method     none
_refine_ls_goodness_of_fit_ref   0.982
_refine_ls_hydrogen_treatment    constr
_refine_ls_number_parameters     192
_refine_ls_number_reflns         2066
_refine_ls_number_restraints     1
_refine_ls_R_factor_all          0.1156
_refine_ls_R_factor_gt           0.0742
_refine_ls_shift/su_max          0.000
_refine_ls_structure_factor_coef Fsqd
_refine_ls_weighting_details
'w = 1/[\s^2^(Fo^2^)+(0.0264P)^2^] where P=(Fo^2^+2Fc^2^)/3'
_refine_ls_weighting_scheme      calc
_refine_ls_wR_factor_gt          0.1153
_refine_ls_wR_factor_ref         0.1371
_reflns_Friedel_coverage         0.827
_reflns_Friedel_fraction_full    0.974
_reflns_Friedel_fraction_max     0.972
_reflns_number_gt                1288
_reflns_number_total             2066
_reflns_threshold_expression     F^2^>2.0\s(F^2^)
_cod_data_source_file            el9b00344_si_002.cif
_cod_data_source_block           2FNi
_cod_database_code               4516599
_shelx_res_file
;
TITL 1006
    shelxl.res
    created by SHELXL-2018/1 at 17:36:21 on 12-Oct-2018
CELL  1.54187 6.01535 7.38608 12.95290 90.00000 92.64140 90.00000
ZERR  2 0.00031 0.00047 0.00070 0.00000 0.00290 0.00000
LATT -1
SYMM    -X, .50+Y,    -Z
SFAC C H F N NI
UNIT 24 20 4 8 2
L.S. 10
FMAP 2
PLAN 23
WPDB -2
HTAB
BOND $H
CONF
LIST 4
TEMP 1.7
ACTA
SIZE 0.260 0.040 0.002
WGHT    0.026400
FVAR       0.62034   0.52365   0.51444
NI1   5    0.289698    0.518215    0.457921    11.00000    0.04000    0.03804 =
         0.05298   -0.00157   -0.00526    0.00088
N1    4    0.357464    0.430487    0.586069    11.00000    0.03523    0.03707 =
         0.04890    0.00246   -0.00085   -0.00098
AFIX  43
H1    2    0.479051    0.372266    0.599830    11.00000   -1.20000
AFIX   0
N2    4    0.040259    0.597153    0.516841    11.00000    0.04482    0.05236 =
         0.03833   -0.00099   -0.00068    0.01295
AFIX  43
H2    2   -0.058995    0.658739    0.482239    11.00000   -1.20000
AFIX   0
N3    4    0.543086    0.441031    0.398375    11.00000    0.03869    0.03819 =
         0.04897    0.00309   -0.00637    0.00126
AFIX  43
H3    2    0.651162    0.392154    0.434119    11.00000   -1.20000
AFIX   0
N4    4    0.215640    0.595154    0.327749    11.00000    0.03411    0.04935 =
         0.05258    0.00008    0.00037    0.00113
AFIX  43
H4    2    0.094794    0.654730    0.314615    11.00000   -1.20000
AFIX   0
C1    1    0.055999    0.461378    0.824681    11.00000    0.04637    0.05176 =
         0.04967   -0.00400   -0.00435   -0.01085
part 2 -21.0
AFIX  43
H1A   2    0.067076    0.434985    0.894933   -21.00000   -1.20000
AFIX   0
F1B   3   -0.291850    0.591060    0.847288   -21.00000    0.05696    0.07954 =
         0.08789    0.00696    0.01825    0.01017
part 0
C2    1   -0.133942    0.551200    0.782830    11.00000    0.03931    0.04804 =
         0.06575   -0.00744    0.01088    0.00018
part 1 21.0
AFIX  43
H1B   2   -0.248112    0.579885    0.826019    21.00000   -1.20000
AFIX   0
F1A   3    0.057267    0.418161    0.925785    21.00000    0.08177    0.08131 =
         0.04636    0.01297   -0.01179   -0.00281
part 0
C3    1    0.222682    0.413095    0.763508    11.00000    0.03325    0.04269 =
         0.05179   -0.00243    0.00453   -0.00020
AFIX  43
H3A   2    0.344798    0.349111    0.790912    11.00000   -1.20000
AFIX   0
C4    1   -0.155502    0.596987    0.681949    11.00000    0.02591    0.04297 =
         0.06323   -0.00096   -0.00104   -0.00264
AFIX  43
H4A   2   -0.283337    0.655327    0.656160    11.00000   -1.20000
AFIX   0
C5    1    0.209821    0.460309    0.658452    11.00000    0.04338    0.04380 =
         0.03619   -0.00156    0.01444   -0.01214
C6    1    0.016340    0.555833    0.616536    11.00000    0.03556    0.03387 =
         0.03961   -0.00523    0.00393   -0.01062
C7    1    0.550939    0.464806    0.296269    11.00000    0.04013    0.03368 =
         0.04527   -0.00784    0.00879   -0.00520
C8    1    0.352473    0.557183    0.253552    11.00000    0.04063    0.02833 =
         0.04064   -0.00019   -0.00546   -0.00342
C9    1    0.716654    0.409902    0.231620    11.00000    0.04151    0.04007 =
         0.05111    0.00248   -0.00030   -0.00818
AFIX  43
H9    2    0.843751    0.352282    0.258815    11.00000   -1.20000
AFIX   0
C10   1    0.332157    0.585363    0.146309    11.00000    0.04224    0.05018 =
         0.04190   -0.00577   -0.00404    0.00024
AFIX  43
H10   2    0.207559    0.643360    0.116805    11.00000   -1.20000
AFIX   0
C11   1    0.691007    0.441314    0.128203    11.00000    0.04908    0.05573 =
         0.05772   -0.00315    0.01229   -0.00168
part 2 -31.0
AFIX  43
H2B   2    0.801983    0.406306    0.084685   -31.00000   -1.20000
AFIX   0
F2A   3    0.491111    0.548335   -0.014282   -31.00000    0.07066    0.13852 =
         0.04598    0.00050    0.00375    0.02798
part 0
C12   1    0.496201    0.527043    0.086468    11.00000    0.06113    0.06264 =
         0.03700   -0.00755    0.00456    0.00825
part 1 31.0
AFIX  43
H2A   2    0.480534    0.543834    0.015348    31.00000   -1.20000
AFIX   0
F2B   3    0.836936    0.389493    0.060135    31.00000    0.07279    0.10096 =
         0.04711    0.00002    0.01645    0.02328
part 0
HKLF 4




REM  1006
REM R1 =  0.0742 for    1288 Fo > 4sig(Fo)  and  0.1156 for all    2066 data
REM    192 parameters refined using      1 restraints

END

WGHT      0.0264      0.0000

REM Instructions for potential hydrogen bonds
EQIV $1 -x, y+1/2, -z+1
HTAB C10 F1A_$1

REM Highest difference peak  0.892,  deepest hole -0.295,  1-sigma level  0.088
Q1    1   0.3510  0.5195  0.3576  11.00000  0.05    0.42
Q2    1   0.2985  0.5301  0.5649  11.00000  0.05    0.41
Q3    1   0.0923  0.4683  0.5204  11.00000  0.05    0.40
Q4    1   0.3379  0.6402  0.4032  11.00000  0.05    0.40
Q5    1   0.3774  0.3877  0.4718  11.00000  0.05    0.40
Q6    1   0.3497  0.5514  0.5741  11.00000  0.05    0.39
Q7    1   0.3546  0.3865  0.4076  11.00000  0.05    0.39
Q8    1   0.2429  0.3833  0.5033  11.00000  0.05    0.38
Q9    1   0.1114  0.4830  0.6299  11.00000  0.05    0.37
Q10   1   0.1716  0.6155  0.4428  11.00000  0.05    0.33
Q11   1   0.2007  0.6461  0.4601  11.00000  0.05    0.33
Q12   1   0.4168  0.4225  0.5905  11.00000  0.05    0.29
Q13   1   0.2254  0.4561  0.3314  11.00000  0.05    0.28
Q14   1   0.5441  0.5953  0.3981  11.00000  0.05    0.28
Q15   1   0.4202  0.5312  0.2670  11.00000  0.05    0.27
Q16   1   0.4130  0.6673  0.1586  11.00000  0.05    0.26
Q17   1  -0.0686  0.5266  0.6395  11.00000  0.05    0.26
Q18   1  -0.0658  0.4194  0.6924  11.00000  0.05    0.26
Q19   1   0.6333  0.4409  0.1959  11.00000  0.05    0.26
Q20   1   0.4309  0.5943  0.4835  11.00000  0.05    0.25
Q21   1  -0.0775  0.5147  0.9232  11.00000  0.05    0.24
Q22   1  -0.0406  0.5181  0.8140  11.00000  0.05    0.24
Q23   1   0.8575  0.5173  0.0074  11.00000  0.05    0.23
;
_shelx_res_checksum              77977
_shelx_hkl_file
;
   0   0   1 1143.67   63.72
   0   0   1 1152.72   62.87
   0   0   1 1230.50   70.10
   0   0   1 1311.94   62.44
   0   0   1 1126.63   60.74
   0   0  -1 1191.37   63.84
   0   0  -1 1251.22   72.52
   0   0  -1 1222.82   69.57
   0   0  -1 1163.26   58.81
   0   0   2   11.87   11.74
   0   0   2   18.02    4.06
   0   0   2   27.42    3.32
   0   0   2   16.05    4.49
   0   0   2   33.01   10.82
   0   0  -2   17.11    2.09
   0   0  -2   11.55    5.65
   0   0  -2   18.28    5.04
   0   0  -2   19.33    2.90
   0   0   3  247.49   24.57
   0   0   3  224.35   24.42
   0   0   3  537.07   64.15
   0   0   3  149.14   63.87
   0   0  -3  294.88   22.47
   0   0  -3  366.51   39.43
   0   0  -3  277.94   20.50
   0   0  -3  258.62   24.26
   0   0   4    1.81    8.27
   0   0   4    5.36    4.77
   0   0   4    7.09    4.22
   0   0   4    7.46    4.81
   0   0  -4    8.06    3.50
   0   0  -4   11.35    7.59
   0   0  -4    7.18    5.78
   0   0  -4    3.11    4.60
   0   0   5   33.29    8.34
   0   0   5   16.45   11.79
   0   0   5   15.99   13.08
   0   0   5   28.36   10.64
   0   0  -5   29.70    9.11
   0   0  -5   37.65   12.79
   0   0  -5   36.81    8.07
   0   0  -5   44.48    5.76
   0   0   6    7.32    4.85
   0   0   6    5.39    3.85
   0   0   6    6.69    6.56
   0   0  -6    7.25    6.93
   0   0  -6    4.93    5.00
   0   0  -6    5.46    4.18
   0   0  -6    7.16    2.97
   0   0   7   10.11    6.40
   0   0   7    1.08    3.09
   0   0   7    0.65    3.83
   0   0  -7    2.30    3.78
   0   0  -7    2.38    7.12
   0   0  -7    1.37    2.46
   0   0  -7   -1.32    4.34
   0   0   8   26.80    8.02
   0   0   8   14.89    6.37
   0   0   8    7.01    8.77
   0   0  -8   25.84    8.74
   0   0  -8   12.20    9.18
   0   0  -8   26.91    5.38
   0   0  -8   20.45   17.49
   0   0   9   -0.37    2.63
   0   0   9    6.62    9.93
   0   0  -9   31.44    6.40
   0   0  10   49.27   32.09
   0   0 -10   52.97   13.51
   0   0 -10   22.51   12.28
   0   0  11   -1.88   10.75
   0   0 -11    4.27    5.81
   0   0  12   -6.33    9.52
   0   0 -12    0.84    7.31
   0   0  13   37.89   31.16
   0   0 -13   92.24   14.52
   0   0  14   12.92    9.62
   0   0 -14   -0.40    7.14
   0   0  15   -2.25   10.18
   0   0 -15   18.98    7.63
   0   1   0    0.23    1.46
   0   1   0   -2.78    2.26
   0   1   0    0.66    1.95
   0   1   0   -0.44    1.50
   0   1   0   -0.53    1.94
   0   1   0    0.94    2.14
   0  -1   0   -0.44    2.14
   0  -1   0   -0.32    2.64
   0  -1   0    4.28    2.52
   0  -1   0    0.98    2.42
   0   1   1   50.52    9.50
   0   1   1   39.60    6.84
   0   1  -1   64.08   10.55
   0   1   1   64.11   10.05
   0   1   1   58.21    8.88
   0   1  -1   47.87    7.16
   0   1  -1   59.24   10.00
   0   1  -1   58.62   10.89
   0  -1   1   66.21   10.54
   0  -1  -1   63.29    8.61
   0  -1   1   52.55    9.96
   0  -1   1   41.49    6.63
   0  -1   1   47.33    8.05
   0  -1  -1   64.42    7.49
   0  -1  -1   66.90   12.30
   0  -1  -1   86.03   12.25
   0  -1  -1   37.37    7.31
   0   1  -2   10.17    6.09
   0   1   2    9.97    5.68
   0   1  -2    9.89    5.65
   0   1   2    6.14    5.51
   0   1  -2   12.13    2.20
   0   1   2    5.68    3.81
   0   1   2    6.22    5.78
   0   1  -2   12.68    7.21
   0   1  -2   12.16    4.51
   0   1  -2    5.00    1.51
   0  -1   2   12.54    5.36
   0  -1  -2    9.07    5.39
   0  -1  -2    6.21    2.88
   0  -1   2    8.15    7.08
   0  -1   2   10.63    4.74
   0  -1  -2   16.87    8.34
   0  -1  -2    5.42    2.99
   0   1   3  219.09   24.13
   0   1  -3  294.30   20.85
   0   1   3  200.31   22.07
   0   1   3  320.27   42.53
   0   1   3  265.29   34.07
   0   1  -3  355.22   48.35
   0   1  -3  493.11   66.60
   0   1  -3  232.49   24.30
   0  -1   3  273.97   25.57
   0  -1  -3  250.76   24.62
   0  -1  -3  227.79   21.36
   0  -1   3  317.64   44.94
   0  -1   3  229.64   26.09
   0  -1  -3  286.46   11.30
   0  -1   3  274.05   26.90
   0  -1  -3  378.56   50.02
   0  -1  -3  221.57    9.54
   0   1  -4   20.63    5.69
   0   1   4   24.47   14.56
   0   1  -4   21.06    8.77
   0   1   4   14.55    5.28
   0   1   4   17.30    8.24
   0   1  -4   28.76   13.39
   0   1  -4   24.37    6.99
   0  -1   4   16.84    3.11
   0  -1   4   11.64    4.44
   0  -1   4   18.47   12.05
   0  -1  -4   24.04    6.00
   0  -1   4   18.18    6.33
   0  -1  -4   26.29    5.90
   0  -1   4   10.21    6.83
   0  -1  -4   17.65    6.00
   0   1  -5  512.52   33.55
   0   1   5  419.97   36.17
   0   1   5  461.32   54.53
   0   1   5  378.51   34.12
   0   1   5  478.12   36.15
   0   1  -5  469.31   54.75
   0   1  -5  547.60   44.51
   0   1  -5  498.43   39.59
   0  -1   5  491.32   39.92
   0  -1  -5  509.75   57.01
   0  -1   5  416.14   29.37
   0  -1   5  472.58   67.46
   0  -1   5  460.61   41.06
   0  -1  -5  500.69   40.29
   0  -1   5  427.77   26.12
   0  -1  -5  502.88   35.60
   0   1  -6  870.72   94.41
   0   1  -6  943.42   64.22
   0   1   6  824.75  129.46
   0   1   6  786.20   81.34
   0   1   6  711.97  118.90
   0   1   6  756.20   52.99
   0   1  -6  900.64   73.15
   0   1  -6  911.60   75.08
   0  -1  -6 1005.93   78.49
   0  -1   6  740.94   55.17
   0  -1   6  918.26   74.47
   0  -1  -6  918.58   96.30
   0  -1  -6  861.19   63.75
   0  -1   6  815.53   74.06
   0  -1   6  859.81   85.76
   0   1   7   23.64    7.15
   0   1  -7   32.13    8.73
   0   1   7   25.03    8.73
   0   1   7   36.17   17.73
   0   1  -7   33.43    5.04
   0   1   7   23.23   15.96
   0   1  -7   24.64    5.19
   0   1  -7   40.49    8.94
   0   1  -7   34.53   14.14
   0  -1   7   30.72    5.53
   0  -1  -7   39.55    8.12
   0  -1   7   21.63    7.01
   0  -1   7   -0.49   16.64
   0  -1  -7   31.74   11.47
   0  -1  -7   57.91   12.52
   0   1   8   60.51   20.64
   0   1   8   42.90   12.42
   0   1  -8   58.03   19.27
   0   1   8   50.04   12.25
   0   1   8   33.93   13.24
   0   1  -8   45.47    7.11
   0   1  -8   78.39   13.53
   0  -1   8   24.28   10.46
   0  -1   8   66.40   12.64
   0  -1  -8   92.16   11.39
   0  -1  -8   65.79   10.65
   0  -1   8   -0.37   23.88
   0  -1  -8  104.40   11.92
   0   1   9   20.03   19.62
   0   1  -9   44.06   11.50
   0   1  -9   55.90   25.75
   0  -1  -9   54.20   14.88
   0  -1  -9   42.25   16.95
   0  -1  -9   41.28    9.78
   0   1  10   15.14   12.42
   0   1 -10    7.91   19.84
   0   1 -10   10.96   10.01
   0  -1 -10   15.65   13.77
   0  -1 -10   11.17    9.83
   0   1  11    5.24    8.21
   0   1 -11   11.65    9.74
   0  -1  11   16.20   15.37
   0  -1 -11   15.41    9.56
   0  -1 -11   16.60   10.64
   0   1  12    8.25    8.21
   0   1 -12   -3.74    6.23
   0  -1  12   -4.15   12.08
   0  -1 -12    3.03    6.31
   0  -1 -12    2.02    4.82
   0   1 -13   32.77   10.54
   0   1  13    1.95   11.11
   0  -1 -13    0.00    9.08
   0  -1  13    3.85    8.29
   0   1  14   -3.35    6.21
   0   1 -14   -0.16    5.12
   0  -1  14    4.98    7.35
   0  -1 -14    0.68    4.71
   0   1  15   -4.66    9.21
   0   1 -15   18.54    7.95
   0  -1  15   11.50   10.48
   0  -1 -15   17.60    6.70
   0   2   0 9130.67 1439.24
   0   2   0 9999.00 1657.92
   0   2   0 9133.08 1494.79
   0   2   0 9376.75 1591.47
   0   2   0 9192.34 1506.99
   0  -2   0 9913.55 1694.58
   0  -2   0 8181.77 1409.33
   0  -2   0 9780.42 1578.03
   0  -2   0 9497.39 1564.33
   0   2   1  626.45   68.72
   0   2   1  573.03   53.06
   0   2   1  683.19   65.32
   0   2  -1  551.10   51.14
   0   2  -1  664.42   75.94
   0   2   1  690.27   64.64
   0   2  -1  671.61   73.59
   0   2  -1  588.17   30.35
   0   2  -1  611.84   61.80
   0  -2   1  587.55   37.49
   0  -2   1  647.11   66.43
   0  -2  -1  677.00   61.80
   0  -2   1  618.56   64.20
   0  -2  -1  671.49   46.47
   0  -2  -1  682.47   80.56
   0  -2  -1  692.22   60.49
   0  -2  -1  672.16   56.46
   0  -2   1  581.23   68.30
   0   2   2  118.11   19.58
   0   2   2  109.39   17.33
   0   2  -2  170.38   26.15
   0   2   2   90.13   17.97
   0   2   2  113.51   16.74
   0   2  -2  133.72   21.72
   0   2  -2  144.84   21.10
   0   2  -2  121.11   15.65
   0  -2   2  128.28   14.10
   0  -2   2  132.00   19.17
   0  -2  -2  115.63   22.09
   0  -2  -2  104.14   22.93
   0  -2  -2  132.12   18.47
   0  -2   2  126.97   21.84
   0  -2  -2   95.16   13.32
   0  -2   2  139.23   22.79
   0  -2  -2   79.35   17.77
   0  -2  -2  102.59   13.11
   0   2  -3  139.73   24.30
   0   2   3  163.28   22.11
   0   2   3  189.42   24.94
   0   2   3  146.73   16.63
   0   2  -3  166.27   19.67
   0   2  -3  200.50   28.84
   0  -2   3  145.22   23.46
   0  -2   3  170.69   23.87
   0  -2  -3  179.10   13.61
   0  -2  -3  232.46   31.48
   0  -2  -3  190.20   29.26
   0  -2   3  141.92   27.23
   0  -2  -3  102.18   18.87
   0  -2  -3  157.90   14.43
   0   2   4   23.14    9.06
   0   2  -4   39.74   13.06
   0   2   4   33.74    9.29
   0   2   4   19.79    5.52
   0   2  -4   44.30   11.97
   0   2  -4   40.41    8.44
   0  -2   4   27.35    7.59
   0  -2   4   30.67   10.66
   0  -2   4   37.96   10.76
   0  -2  -4   30.42    4.23
   0  -2  -4   37.30    7.70
   0  -2  -4   49.28   12.30
   0  -2  -4   15.12    7.94
   0  -2  -4   24.78    3.05
   0  -2   4   40.17    8.90
   0   2   5  107.64   12.63
   0   2   5  102.77   19.40
   0   2   5  119.65   21.63
   0   2  -5  111.48   20.42
   0   2  -5  129.53   16.40
   0   2  -5  106.77   27.56
   0  -2   5  120.18   18.45
   0  -2   5  134.69   21.22
   0  -2   5   99.34   22.02
   0  -2  -5   65.40   15.04
   0  -2  -5  136.53   25.20
   0  -2   5  129.77   18.23
   0  -2  -5  133.09   15.64
   0   2   6  323.58   30.72
   0   2   6  361.38   44.36
   0   2  -6  654.13   82.02
   0   2   6  341.40   30.65
   0   2  -6  440.15   38.12
   0   2  -6  326.76   60.85
   0   2   6  302.22   42.38
   0  -2   6  291.54   48.12
   0  -2  -6  400.73   34.07
   0  -2   6  406.83   40.84
   0  -2   6  286.68   26.22
   0  -2   6  352.03   36.88
   0  -2  -6  286.08   33.91
   0  -2  -6  399.96   53.46
   0   2   7   23.16    8.43
   0   2   7   16.38    6.29
   0   2   7   14.07    9.48
   0   2  -7   14.64    4.74
   0   2  -7   21.82   10.66
   0   2   7   22.09    8.97
   0  -2   7   11.95    5.09
   0  -2   7   19.09   11.09
   0  -2   7   13.40    9.49
   0  -2   7   19.34    8.61
   0  -2  -7   28.32    9.39
   0  -2  -7   23.99   12.34
   0  -2  -7   25.00    7.52
   0   2   8    9.67   11.69
   0   2   8   13.52   17.84
   0   2  -8   14.96    4.33
   0   2  -8   27.06   14.35
   0   2  -8   27.91    8.97
   0  -2   8    7.64    7.38
   0  -2  -8   22.63    8.64
   0  -2  -8   30.76   13.65
   0  -2  -8   42.23   10.62
   0   2   9   14.06   20.30
   0   2  -9   64.40   15.70
   0   2  -9   67.51   22.31
   0  -2  -9   42.65   13.31
   0  -2  -9   70.56   15.31
   0  -2  -9   65.24   22.96
   0   2  10   -0.07   17.16
   0   2 -10   39.10    7.70
   0   2 -10   32.44   27.17
   0  -2 -10   27.63   13.77
   0  -2 -10   46.07   15.16
   0   2  11   -4.86   15.09
   0   2 -11   47.78   27.12
   0   2 -11   31.45   13.93
   0  -2 -11   24.25   15.93
   0  -2 -11   28.64   12.09
   0   2 -12   21.38    9.40
   0   2  12    2.37   11.33
   0  -2 -12    6.30    9.20
   0  -2  12    2.60   14.92
   0  -2 -12    8.20    9.10
   0   2  13   16.13   17.57
   0   2 -13   55.94   20.07
   0  -2 -13   55.21   17.05
   0  -2 -13   15.43   12.65
   0  -2  13   24.07   23.05
   0   2  14   14.48    8.78
   0   2 -14    7.39    5.87
   0  -2  14  -18.54   12.26
   0  -2 -14   16.16    6.34
   0  -2 -14   14.85    7.53
   0   2 -15    5.40    5.91
   0  -2  15    3.80    8.02
   0   3   0    3.17    5.44
   0   3   0    0.62    3.66
   0   3   0    0.84    1.54
   0   3   0    0.68    3.05
   0   3   0   -0.66    3.46
   0   3   0    1.35    3.36
   0  -3   0   -1.43    3.56
   0  -3   0    0.88    3.78
   0  -3   0   -1.18    2.86
   0  -3   0    1.26    3.71
   0   3  -1   11.94    6.14
   0   3   1   20.72    7.39
   0   3   1   19.36    4.84
   0   3   1   16.25    6.36
   0   3  -1   18.08    8.97
   0   3   1   12.64    6.62
   0   3  -1   20.25    5.12
   0   3   1   20.16    9.32
   0   3  -1   19.84    2.33
   0   3  -1   19.49    7.73
   0   3  -1   22.75    8.12
   0  -3   1   15.14    9.29
   0  -3  -1   17.26    6.89
   0  -3  -1   18.48    6.91
   0  -3  -1   22.10   11.12
   0  -3  -1   21.48    6.98
   0  -3  -1   23.23    6.40
   0  -3   1   16.97    8.25
   0  -3   1   18.10    3.70
   0  -3   1   22.71    5.19
   0   3  -2   82.23   16.51
   0   3   2   61.63   11.00
   0   3   2   47.30    7.67
   0   3   2   59.01   10.26
   0   3  -2   73.70   11.34
   0   3  -2   63.48   15.29
   0   3   2   60.48   13.48
   0   3   2   80.99   12.86
   0   3  -2   71.89   14.12
   0  -3   2   69.17   14.17
   0  -3  -2   76.24   15.06
   0  -3   2   74.55    9.61
   0  -3  -2   65.84   13.63
   0  -3   2   61.82   15.03
   0  -3  -2   47.45   10.33
   0  -3  -2   67.10   16.66
   0  -3  -2   82.06   15.53
   0  -3   2   69.04   15.72
   0   3  -3  129.52   21.54
   0   3   3  155.91   21.40
   0   3   3  168.08   20.03
   0   3   3  147.58   15.49
   0   3  -3  181.53   27.96
   0   3  -3  156.60   18.04
   0   3  -3  167.68   24.09
   0  -3   3  164.51   22.86
   0  -3   3  132.48   24.58
   0  -3  -3  174.26   29.88
   0  -3  -3  142.33   13.50
   0  -3   3  130.82   23.28
   0  -3  -3  161.39   24.89
   0  -3  -3  162.35   20.99
   0  -3  -3  141.12   20.17
   0   3  -4  131.77   16.34
   0   3   4  113.88   17.73
   0   3   4  102.27   24.91
   0   3  -4  136.03   23.43
   0   3   4  106.31   13.59
   0   3  -4   99.90   17.78
   0   3  -4  126.67   16.44
   0  -3  -4   72.65   15.32
   0  -3   4  141.92   19.78
   0  -3   4   94.87   22.13
   0  -3  -4   90.37    9.53
   0  -3  -4   81.15   10.17
   0  -3  -4  123.38   20.96
   0  -3   4  159.34   26.73
   0  -3  -4  107.18   22.49
   0   3  -5  245.05   42.73
   0   3  -5  289.54   28.14
   0   3   5  246.00   23.14
   0   3  -5  529.38   72.77
   0   3   5  252.31   36.28
   0   3   5  283.64   34.93
   0   3  -5  343.71   33.63
   0  -3   5  262.40   43.05
   0  -3   5  311.31   37.99
   0  -3   5  245.37   33.63
   0  -3  -5  144.53   28.35
   0  -3  -5  338.65   48.16
   0  -3  -5  358.87   39.28
   0   3  -6  292.53   64.99
   0   3  -6  483.91   44.42
   0   3   6  318.55   29.42
   0   3   6  353.92   52.77
   0   3   6  365.53   49.36
   0   3  -6  386.41   51.53
   0   3  -6  459.98   44.32
   0  -3   6  300.18   38.09
   0  -3  -6  486.68   51.03
   0  -3  -6  464.94   47.70
   0  -3   6  341.22   59.14
   0  -3   6  450.26   51.81
   0   3   7   36.93   11.00
   0   3  -7   41.82   10.35
   0   3   7   40.39   15.57
   0   3   7   53.69    9.40
   0   3  -7   18.90   19.65
   0   3  -7   51.90   15.52
   0   3  -7    2.45   12.62
   0  -3   7   28.78   11.68
   0  -3  -7   74.77   13.43
   0  -3  -7   36.86   10.59
   0  -3  -7   59.60   20.40
   0   3   8   34.27   24.09
   0   3  -8   69.67   25.12
   0   3  -8   73.71   17.25
   0  -3  -8  100.69   20.59
   0  -3  -8   89.15   20.54
   0  -3  -8  108.01   18.51
   0   3   9   -1.21   15.71
   0   3  -9   28.53   12.11
   0   3  -9   36.34   11.92
   0  -3  -9   34.04   12.00
   0  -3  -9   20.86   13.50
   0  -3  -9   39.35   25.08
   0   3  10    2.18   14.05
   0   3 -10   34.70   16.80
   0   3 -10   17.96   11.23
   0  -3 -10   29.99   10.68
   0  -3 -10   11.82    9.89
   0  -3 -10   18.36   17.38
   0   3  11   -1.68   19.38
   0   3 -11   41.15   15.09
   0   3 -11   75.38   37.33
   0  -3 -11   60.49   25.62
   0  -3 -11   81.61   17.43
   0   3 -12    6.07    9.05
   0   3  12    3.63    9.32
   0  -3 -12   20.24    9.41
   0  -3  12   10.47   13.65
   0  -3 -12    4.18    8.34
   0   3  13    3.51    6.27
   0   3 -13    5.79    4.54
   0  -3  13    5.05   13.88
   0  -3 -13    3.07    5.94
   0  -3 -13   14.44    9.21
   0   3 -14   21.06    9.05
   0  -3 -14    7.96    6.66
   0  -3 -14    9.47    7.50
   0  -3  14   13.99   12.19
   0   4   0   36.57    9.66
   0   4   0   36.37    5.18
   0   4   0   54.39    9.78
   0   4   0   59.73   10.12
   0   4   0   40.37   15.90
   0   4   0   42.36   13.31
   0  -4   0   43.97   12.30
   0  -4   0   40.65   10.19
   0  -4   0   29.50    8.66
   0  -4   0   58.39   18.16
   0   4   1  195.04   22.54
   0   4   1  164.80   19.02
   0   4  -1  129.28   30.09
   0   4   1  126.57   14.52
   0   4   1  154.68   18.39
   0   4  -1  197.32   25.63
   0   4   1  152.34   18.84
   0   4  -1  114.75   22.42
   0   4   1  167.82   24.31
   0   4  -1  157.99   21.63
   0   4  -1  155.09   17.96
   0  -4   1  135.15   26.91
   0  -4  -1  189.52   19.39
   0  -4   1  197.10   38.43
   0  -4  -1  133.75   20.31
   0  -4   1  146.00   22.92
   0  -4  -1  127.80   21.87
   0  -4  -1  191.92   32.21
   0   4  -2  151.01   23.60
   0   4   2  139.72   25.36
   0   4   2  195.59   23.21
   0   4   2  165.26   20.01
   0   4   2  146.43   14.55
   0   4   2  164.10   19.67
   0   4  -2  156.94   22.42
   0   4  -2  208.75   33.09
   0   4  -2  143.33   28.77
   0   4  -2  161.85   18.34
   0  -4   2  172.16   30.79
   0  -4   2  140.14   22.95
   0  -4  -2  140.53   18.22
   0  -4   2  222.66   43.09
   0  -4  -2  158.85   20.95
   0  -4  -2  210.04   28.54
   0  -4  -2  165.05   20.78
   0  -4  -2  207.07   20.73
   0   4   3   75.40   10.69
   0   4   3   64.61   14.33
   0   4   3   84.90   12.48
   0   4  -3   95.86   18.26
   0   4   3   87.57   21.67
   0   4   3   73.10   12.04
   0   4  -3   60.54   16.08
   0   4  -3   74.16   10.11
   0   4  -3   95.82   20.21
   0   4  -3   86.05   12.66
   0  -4   3   71.59   17.69
   0  -4  -3   97.35   18.55
   0  -4   3  116.11   27.90
   0  -4  -3  107.35   22.10
   0  -4  -3   65.32    9.18
   0  -4  -3   63.63   11.12
   0   4   4   75.23   10.07
   0   4  -4   92.95   14.42
   0   4   4   69.11   12.74
   0   4   4   77.86   12.02
   0   4  -4   67.03   15.57
   0   4  -4   53.01   16.56
   0   4   4   62.80   14.95
   0   4  -4  102.11   19.78
   0  -4   4   84.14   12.64
   0  -4  -4  101.76   20.47
   0  -4   4   63.68   17.81
   0  -4   4   71.75   20.28
   0  -4  -4  114.30   22.71
   0  -4  -4   63.58    8.89
   0  -4  -4   66.66    7.92
   0   4   5    7.88    8.28
   0   4   5   13.86    7.20
   0   4  -5   18.16    7.90
   0   4   5    9.47    4.81
   0   4  -5   18.32   12.25
   0   4  -5   17.48    7.53
   0   4  -5   27.21   10.04
   0  -4  -5    6.42    8.58
   0  -4   5   12.25    9.92
   0  -4  -5   21.99   11.41
   0  -4   5   12.60    9.53
   0  -4  -5   16.83   10.42
   0   4   6   13.89   11.59
   0   4  -6   30.38   12.05
   0   4  -6   41.43   10.88
   0   4  -6    7.16   18.21
   0  -4   6   31.11   11.56
   0  -4  -6   38.60   14.18
   0  -4  -6   26.80   10.75
   0  -4  -6   44.77   17.77
   0   4  -7    6.43   14.28
   0   4   7    0.96    7.91
   0   4  -7   16.50    8.20
   0   4  -7   15.03   17.02
   0  -4  -7   13.05    8.49
   0  -4  -7   17.28    9.96
   0  -4   7   10.69    7.25
   0  -4  -7   21.43   16.74
   0   4  -8   11.83   12.46
   0   4  -8   13.38   10.23
   0  -4  -8   22.30   10.19
   0  -4  -8   11.74   11.81
   0  -4  -8   26.16   20.62
   0   4  -9   24.59   19.28
   0   4  -9   21.92   12.48
   0  -4  -9   16.26   15.28
   0  -4  -9   48.28   13.49
   0  -4  -9   30.79   21.14
   0   4 -10   23.31   15.95
   0   4 -10   20.20   10.95
   0  -4 -10   22.19   18.32
   0  -4 -10    7.29   10.67
   0  -4 -10   26.01   11.12
   0   4 -11   82.84   20.83
   0   4 -11  106.13   48.03
   0  -4 -11  105.39   29.42
   0  -4 -11  109.28   22.46
   0   4 -12   -1.39    8.81
   0   4  12    1.99    4.55
   0  -4 -12   60.65   13.69
   0  -4  12   29.98   11.86
   0   4 -13   11.84    6.53
   0   4  13    2.28    4.71
   0  -4 -13   11.30    9.35
   0  -4  13   -9.45   11.72
   0   5   0    1.54    7.32
   0   5   0   -1.05    3.80
   0   5   0    1.72    4.19
   0   5   0    2.75    6.19
   0  -5   0    2.54    3.87
   0  -5   0    0.11    6.10
   0   5   1    9.40    6.75
   0   5   1   10.67    6.15
   0   5   1   14.98    5.92
   0   5   1   12.43   10.66
   0   5  -1    7.79    6.65
   0   5  -1   11.46    7.98
   0   5  -1    8.68    6.11
   0   5  -1   13.84   10.25
   0  -5   1    2.19    8.98
   0  -5   1    9.26   10.25
   0  -5  -1   10.79    5.94
   0  -5  -1    9.30    7.46
   0   5  -2   34.31    9.02
   0   5   2   20.65    9.79
   0   5   2   45.33   18.82
   0   5  -2   40.87   12.88
   0   5   2   42.12   10.25
   0   5  -2   33.16    9.20
   0  -5   2   18.73   11.87
   0  -5  -2   41.15   12.99
   0  -5  -2   37.08   10.86
   0  -5   2   41.78   16.78
   0   5   3   76.73   11.73
   0   5   3  109.58   34.87
   0   5   3  103.81   16.74
   0   5  -3   81.57   21.33
   0   5  -3   92.49   10.47
   0   5  -3   72.24   17.78
   0  -5   3   94.89   26.87
   0  -5  -3   79.49   14.09
   0   5   4   91.83   21.50
   0   5   4   93.15   16.65
   0   5  -4   81.81   17.07
   0   5  -4   68.97   14.42
   0   5  -4   70.20   22.71
   0  -5   4   73.38   22.38
   0  -5  -4   83.56   21.10
   0   5   5  191.80   27.00
   0   5  -5  145.61   30.29
   0   5  -5  179.21   47.70
   0   5  -5  177.76   24.85
   0  -5  -5  203.17   38.94
   0  -5   5  133.55   34.72
   0   5   6  115.07   20.14
   0   5  -6   67.09   37.56
   0   5   6   -1.78   23.39
   0   5  -6  134.79   21.23
   0   5  -6  210.65   43.22
   0  -5   6   96.68   23.43
   0  -5  -6  145.82   30.35
   0   5   7   45.41   13.77
   0   5  -7   55.39   18.40
   0   5   7    0.56   16.05
   0   5  -7   61.95   14.97
   0  -5   7   66.59   19.90
   0  -5  -7   75.41   23.04
   0   5   8   34.56   13.65
   0   5   8   23.91   11.64
   0   5  -8   -2.59   13.36
   0   5  -8   47.23   16.11
   0  -5   8   52.20   14.17
   0  -5  -8   55.85   16.32
   0   5   9    5.44    8.22
   0   5   9   16.30    7.32
   0   5  -9   11.37    8.30
   0   5  -9   11.01   12.20
   0  -5  -9    5.39   11.16
   0   5  10   17.12   11.06
   0   5  10    5.71    7.54
   0   5 -10   26.19   16.14
   0   5 -10   15.67    5.63
   0  -5 -10   34.44   17.15
   0   5 -11   57.82   19.40
   0   5 -11   10.10    8.95
   0  -5 -11   37.89   17.51
   0   5 -12    2.21    5.31
   0  -5  12   -5.78   10.96
   0  -5 -12    7.16    6.65
   0   6   0   70.22   12.59
   0   6   0   55.84   15.92
   0  -6   0   42.50   18.40
   0   6   1   21.70   19.39
   0   6   1   25.30    9.21
   0   6  -1   21.03    9.82
   0   6  -1   31.91    8.89
   0  -6   1   34.43   13.85
   0  -6  -1   16.96   11.55
   0   6  -2  106.15   18.21
   0   6   2  106.06   15.98
   0   6   2  -38.15   32.21
   0   6  -2   77.15   26.71
   0  -6   2   88.96   26.39
   0  -6  -2  110.53   24.37
   0   6  -3   -4.43   21.41
   0   6   3   37.42   20.82
   0   6   3   35.97   10.26
   0   6  -3   59.15   12.43
   0  -6   3   30.42   17.85
   0  -6  -3   34.06   13.62
   0   6   4   45.48   13.58
   0   6  -4   72.03   15.03
   0   6   4   49.37   24.44
   0   6  -4   51.00   29.26
   0   6  -4   35.61   13.65
   0  -6   4   43.61   20.27
   0   6  -5    8.93   12.82
   0   6   5    8.25    6.15
   0   6   5   12.10   12.90
   0   6  -5    8.99   11.78
   0   6  -5    0.63    5.94
   0  -6  -5   14.60    9.01
   0  -6   5    3.48   11.75
   0   6   6   19.23    8.97
   0   6   6   28.14   18.69
   0   6  -6   17.21   10.80
   0   6  -6   11.68   19.64
   0   6  -6   24.78    9.76
   0  -6   6   28.32   16.34
   0  -6  -6   36.41   14.86
   0   6   7   -4.45   11.79
   0   6  -7   13.73    6.73
   0   6  -7    8.50    7.54
   0  -6   7   -6.16    9.95
   0  -6  -7   10.95   10.79
   0   6   8   10.61   12.31
   0   6  -8   21.22   11.34
   0   6  -8   14.09    7.41
   0  -6   8   10.75    8.72
   0  -6  -8   27.64   13.21
   0   6   9    8.92    7.97
   0   6  -9    1.14    5.71
   0   6  -9    2.94    7.36
   0  -6  -9   14.58    9.55
   0   6  10   10.85   10.36
   0   6 -10   21.38    7.56
   0   6 -10   37.92   13.89
   0  -6 -10   17.43   10.99
   0   6 -11   58.78   13.31
   0  -6  11   35.37   21.38
   0  -6 -11   67.01   16.05
   0   7   0    0.03    3.94
   0   7   0    3.74    8.00
   0  -7   0  -11.85    7.82
   0   7   1   25.04    7.58
   0   7   1    7.38    5.43
   0   7  -1    7.11    5.99
   0   7  -1    1.73   14.33
   0  -7   1   13.06   12.23
   0  -7  -1   -6.42   10.71
   0   7  -2   26.87   14.13
   0   7   2   46.33   16.65
   0   7   2   16.52    6.51
   0   7  -2   13.40    7.93
   0  -7   2   19.12   16.27
   0  -7  -2   12.97    9.18
   0   7  -3   29.90    9.01
   0   7   3   37.94   21.70
   0   7  -3   32.40   25.31
   0  -7   3   46.79   21.54
   0   7   4   33.90   21.27
   0   7  -4   41.59   22.97
   0   7  -4   31.29    9.94
   0  -7   4   36.90   21.18
   0   7   5   37.36   24.94
   0   7  -5   32.13   26.54
   0   7  -5   51.03   11.50
   0  -7   5   46.76   23.63
   0   7   6   29.91   15.70
   0   7  -6   17.71    4.75
   0  -7   6   16.81   11.21
   0   7   7   53.62   18.00
   0   7  -7   35.99    9.08
   0  -7   7   39.74   12.54
   0   7   8    8.86   11.69
   0   7  -8   24.29    6.95
   0  -7   8   15.77    7.31
   0  -7  -8   24.80    7.51
   0   7  -9    8.30    3.93
   0  -7  -9    6.16    6.33
   0   8   0   17.07   10.77
   0  -8   0    5.87    7.35
   0   8  -1   13.59   11.60
   0   8   1    7.32    6.52
   0  -8   1    3.23    6.41
   0  -8   1    4.07    6.57
   0  -8  -1   -2.53    5.61
   0   8   2   41.85   15.40
   0   8  -2   28.74   20.47
   0  -8   2   39.09   13.18
   0  -8  -2   19.86    7.66
   0   8  -3   14.82    4.93
   0   8   3   18.55   13.41
   0   8  -3   29.23   17.68
   0  -8   3   22.62   11.49
   0   8  -4   22.51    4.94
   0   8   4    7.48   12.08
   0   8  -4   28.89   15.61
   0  -8   4    3.17   10.54
   0   8  -5    5.92   10.84
   0   8   5    4.45    9.29
   0   8  -5   12.24    3.45
   0  -8   5   16.38    8.56
   0   8   6    8.34   10.59
   0  -8   6   31.63    8.76
   1   0 -15   15.97    9.56
   1   0 -14   -0.44    5.78
  -1   0  14    0.82    5.52
   1   0 -13    0.21    7.78
  -1   0  13    4.36    8.19
   1   0 -12    0.95    7.62
  -1   0  12   -6.33    8.98
   1   0 -11    0.67    7.25
  -1   0  11    1.30   10.68
   1   0 -10   20.51   14.29
  -1   0  10    9.07   11.87
   1   0  -9   13.06    8.61
   1   0  -9   23.13   10.82
   1   0  -9   10.61   13.95
  -1   0   9    8.39    5.24
   1   0  -8  121.67   15.93
   1   0  -8  158.61   22.53
   1   0  -8  121.98   23.69
  -1   0   8  101.69   22.20
  -1   0   8  101.04   16.71
   1   0  -7   19.72    5.83
   1   0  -7   15.38    9.16
   1   0  -7   26.01    7.51
  -1   0   7   15.05    8.19
  -1   0   7   13.80    6.11
   1   0  -6  207.16   18.18
   1   0  -6  184.00   20.92
   1   0  -6  251.93   12.00
   1   0  -6  218.40   10.92
   1   0  -6  254.48   26.15
  -1   0   6  187.24   24.92
  -1   0   6  228.38   12.93
   1   0  -5    2.32    3.33
   1   0  -5    2.33    3.97
   1   0  -5    4.25    3.82
   1   0  -5    2.51    1.73
   1   0  -5    4.94    1.98
  -1   0   5    4.27    2.92
  -1   0   5    3.11    2.29
  -1   0   5    0.56    2.03
  -1   0   5    1.68    3.95
   1   0  -4  120.24   24.14
   1   0  -4  161.37   18.73
   1   0  -4  138.90   18.93
   1   0  -4  147.08    9.27
  -1   0   4  121.84   21.61
  -1   0   4   89.27   17.10
  -1   0   4  114.29   26.46
  -1   0   4  201.23   14.90
   1   0  -3    1.24    3.88
   1   0  -3    0.72    1.97
   1   0  -3    1.39    3.08
   1   0  -3    0.80    4.54
  -1   0   3    0.36    1.36
  -1   0   3    1.20    3.96
  -1   0   3   -0.28    2.90
  -1   0   3    2.83    5.40
  -1   0   3   -1.01    4.08
   1   0  -2  321.41   32.10
   1   0  -2  278.18   24.84
   1   0  -2  331.77   25.59
   1   0  -2  330.55   27.37
  -1   0   2  296.97   38.53
  -1   0   2  425.50   48.65
  -1   0   2  312.27   29.73
   1   0  -1   11.03    4.95
   1   0  -1    7.40    2.90
   1   0  -1    7.38    3.00
   1   0  -1    6.92    5.10
   1   0  -1    9.06    4.92
  -1   0   1    7.37    4.60
  -1   0   1   10.69    3.92
  -1   0   1    6.17    3.61
  -1   0   1   13.26    8.04
  -1   0   1    8.00    4.77
   1   0   0   68.38    9.11
   1   0   0   63.42   11.00
   1   0   0   77.64   15.75
   1   0   0  102.55   12.50
  -1   0   0   77.63    8.06
  -1   0   0  119.54   16.34
  -1   0   0   56.30   12.54
  -1   0   0   69.23   11.89
   1   0   1   11.94    8.25
   1   0   1   24.62   10.83
   1   0   1   12.27    5.96
   1   0   1   14.71    6.02
   1   0   1   16.59    2.69
  -1   0  -1   11.23    3.06
  -1   0  -1   18.88    5.52
  -1   0  -1   17.89    6.01
  -1   0  -1    3.74    4.26
  -1   0  -1   15.59    4.33
   1   0   2   38.51   10.80
   1   0   2   24.03    6.50
   1   0   2   28.36    8.62
   1   0   2   19.31   10.33
   1   0   2   11.59    4.43
  -1   0  -2   36.27    9.40
  -1   0  -2   37.29    8.09
  -1   0  -2   30.39    4.53
  -1   0  -2   26.29    5.87
  -1   0  -2   26.78    3.94
   1   0   3   64.60   16.21
   1   0   3   88.90   35.66
   1   0   3   48.35   21.81
   1   0   3   86.62    9.69
   1   0   3   80.59   20.31
  -1   0  -3   97.48   14.07
  -1   0  -3   97.38   13.26
  -1   0  -3  107.09    9.20
  -1   0  -3  104.95   14.57
  -1   0  -3  132.95   15.01
   1   0   4   85.14   25.07
   1   0   4  228.93   18.19
   1   0   4   89.09   44.67
   1   0   4  194.15   55.65
  -1   0  -4  270.97   25.07
  -1   0  -4  259.18   23.33
  -1   0  -4  229.50   24.26
  -1   0  -4  262.88   18.78
   1   0   5   16.66   20.46
   1   0   5   25.58   15.41
   1   0   5  117.22   32.68
   1   0   5  102.03   10.59
  -1   0  -5  127.01   15.64
  -1   0  -5  121.46   13.86
  -1   0  -5  115.24   15.99
  -1   0  -5  117.93   10.67
   1   0   6  937.12  175.44
   1   0   6 1115.85   90.13
   1   0   6  884.13  107.43
  -1   0  -6 1188.04   99.86
  -1   0  -6 1303.24  106.92
  -1   0  -6 1254.46   96.37
  -1   0  -6 1181.74  108.91
   1   0   7 1239.00  222.06
   1   0   7 1132.15  175.92
   1   0   7 1307.04  113.40
   1   0   7 1235.30  168.05
  -1   0  -7 1451.37  127.35
  -1   0  -7 1365.19  111.59
  -1   0  -7 1536.53  131.15
  -1   0  -7 1277.11  149.37
   1   0   8   23.86   14.64
   1   0   8   26.22   23.64
   1   0   8   14.40   12.61
   1   0   8   36.89    9.03
  -1   0  -8   36.26    9.06
  -1   0  -8   36.18    8.55
  -1   0  -8   37.81   11.67
  -1   0  -8   42.42    9.66
   1   0   9   85.81   43.85
  -1   0  -9  177.85   27.77
  -1   0  -9  150.13   20.66
  -1   0  -9  129.15   25.16
   1   0  10    3.96   14.50
  -1   0 -10   16.06    7.52
  -1   0 -10   14.50    8.08
  -1   0 -10    2.41    6.52
   1   0  11   24.13   13.54
  -1   0 -11   11.72   10.40
  -1   0 -11    1.03    6.83
   1   0  12   -6.12   11.81
  -1   0 -12   -2.91    6.97
   1   0  13    3.70   10.97
  -1   0 -13    3.62    5.94
   1   0  14   27.77   14.17
  -1   0 -14    8.75    7.64
   1   0  15    5.97    6.95
  -1   0 -15   11.59    4.75
   1   1 -15    8.08    6.63
   1  -1 -15    3.20    6.85
  -1  -1  15    3.39    6.73
   1   1 -14   -0.03    5.72
   1  -1 -14   -0.97    5.78
  -1  -1  14    3.27    6.65
   1   1 -13    5.34   10.88
  -1   1  13   15.42    8.72
   1  -1 -13    0.66   10.23
  -1  -1  13   12.30   12.82
   1   1 -12   35.65   18.00
  -1   1  12    6.65   13.24
   1  -1 -12   20.93    9.52
   1  -1 -12   26.70   14.10
  -1  -1  12   16.30   16.18
   1   1 -11  116.75   23.76
  -1   1  11    4.59   25.60
   1   1 -11   93.89   41.44
   1  -1 -11   98.65   24.78
   1  -1 -11  122.85   27.24
   1   1 -10  309.85   46.22
   1   1 -10  315.21   71.79
  -1   1  10  102.22   50.31
   1  -1 -10  328.62   55.79
   1  -1 -10  337.30   33.61
   1   1  -9   55.67   22.55
   1   1  -9   58.92   17.06
  -1   1   9   21.05   23.03
   1  -1  -9   84.38   18.49
   1  -1  -9   67.44   15.71
   1   1  -8  122.35   23.65
  -1   1   8   84.36   17.08
   1   1  -8  159.58   21.59
  -1   1   8   24.55   21.49
  -1   1   8   84.69   19.63
  -1  -1   8   75.73   18.13
   1  -1  -8  188.07   24.02
   1  -1  -8  136.28   23.47
  -1   1   7    6.38    5.39
   1   1  -7    5.46    3.44
   1   1  -7    7.03    2.68
   1   1  -7    6.54    6.29
  -1   1   7    0.69    6.00
  -1   1   7    2.35    5.71
  -1   1   7    6.03    5.08
   1  -1  -7   11.01    6.70
   1  -1  -7    5.17    6.84
  -1  -1   7    6.83    5.06
  -1  -1   7    4.17    2.63
   1  -1  -7    5.15    2.79
   1   1  -6    3.62    7.12
  -1   1   6   12.78    6.28
   1   1  -6   11.13    2.02
   1   1  -6   20.91    5.48
   1   1  -6   16.19    4.21
   1   1  -6   12.79    4.61
  -1   1   6   13.38    6.84
  -1   1   6   14.91    7.80
   1  -1  -6   16.19    8.42
   1  -1  -6   23.01    7.96
   1  -1  -6   12.64    3.32
  -1  -1   6   11.59    2.42
  -1  -1   6   12.58    5.99
  -1  -1   6    7.79    2.92
   1  -1  -6   11.38    7.31
   1   1  -5    2.98    1.22
   1   1  -5    4.85    2.26
  -1   1   5    1.19    5.63
   1   1  -5    4.49    2.76
   1   1  -5   11.65    9.58
   1   1  -5    4.80    3.49
  -1   1   5    1.73    1.17
  -1   1   5    1.82    2.21
  -1   1   5    2.55    2.37
   1  -1  -5    7.47    4.79
   1  -1  -5    4.69    3.24
   1  -1  -5    6.59    5.01
   1  -1  -5    5.23    5.97
  -1  -1   5    5.31    3.90
  -1  -1   5    2.06    2.24
   1  -1  -5    3.58    1.00
   1   1  -4   17.56    5.20
   1   1  -4   18.91    2.64
   1   1  -4   15.34    1.99
   1   1  -4   18.51    8.22
   1   1  -4   18.00    5.36
  -1   1   4   12.70    3.53
  -1   1   4   23.98   12.59
   1   1  -4   17.32    5.59
  -1   1   4   13.99    6.60
   1  -1  -4   21.03    6.73
   1  -1  -4   16.56    3.77
   1  -1  -4   19.04    7.81
  -1  -1   4    7.90    5.90
   1  -1  -4   28.72    4.76
  -1  -1   4   18.99    7.29
   1  -1  -4   22.97    9.95
   1   1  -3    0.13    2.61
   1   1  -3    0.75    2.34
   1   1  -3    0.32    3.45
   1   1  -3    0.53    1.61
  -1   1   3    0.89    2.78
  -1   1   3    1.17    3.87
  -1   1   3    2.49    2.60
   1   1  -3    0.62    2.78
   1   1  -3    1.23    4.61
  -1   1   3    1.57    3.71
  -1   1   3    1.11    5.36
   1  -1  -3   -0.07    2.38
  -1  -1   3    2.30    5.57
   1  -1  -3    0.64    4.11
   1  -1  -3   -0.86    5.45
  -1  -1   3    0.26    3.52
  -1  -1   3    1.78    2.44
   1  -1  -3    1.10    3.89
  -1  -1   3   -0.61    2.60
   1  -1  -3   -0.55    4.71
   1   1  -2  252.00   26.07
   1   1  -2  311.81   21.01
   1   1  -2  356.28   23.67
  -1   1   2  530.11   37.17
  -1   1   2  311.14   20.59
   1   1  -2  409.72   21.38
   1   1  -2  378.72   48.38
   1   1  -2  343.26   31.83
  -1   1   2  258.37   31.72
  -1   1   2  431.69   36.10
  -1   1   2  376.76   49.66
   1  -1  -2  283.44   36.41
  -1  -1   2  350.34   23.73
   1  -1  -2  339.53   27.46
   1  -1  -2  351.76   39.82
  -1  -1   2  343.87   31.16
  -1  -1   2  375.22   37.41
  -1  -1   2  360.81   31.98
   1   1  -1   13.59    5.91
   1   1  -1   10.63    6.54
   1   1  -1   14.36    3.60
   1   1  -1   12.72    5.14
  -1   1   1    8.44    6.24
   1   1  -1   12.16    3.38
  -1   1   1    7.19    7.09
  -1   1   1   10.53   10.25
  -1   1   1    8.85    6.24
   1  -1  -1    7.71    5.01
   1  -1  -1    8.72    6.82
  -1  -1   1   11.04    5.89
  -1  -1   1   16.62    4.78
   1  -1  -1    7.61    6.85
  -1  -1   1   17.46    9.42
  -1  -1   1   14.24    3.70
   1   1   0 1083.94   75.98
   1   1   0 1124.04   94.62
   1   1   0 1144.76   62.84
  -1   1   0 1137.15  104.90
  -1   1   0 1124.01   78.04
   1   1   0 1180.87  127.78
   1   1   0 1236.67   60.82
  -1   1   0 1096.95  105.66
  -1   1   0 1322.26   88.29
  -1   1   0 1167.18  104.05
   1   1   0 1143.89   95.85
   1  -1   0 1071.16   97.36
   1  -1   0 1056.81   58.91
   1  -1   0 1288.30   86.69
  -1  -1   0 1166.79   99.03
  -1  -1   0 1193.24   95.65
   1  -1   0 1128.67   62.57
   1  -1   0 1138.74  102.45
  -1  -1   0  941.64   83.99
   1   1   1 5903.86  755.64
   1   1   1 5841.45  642.80
  -1   1  -1 5739.67  757.64
   1   1   1 5929.37  859.25
   1   1   1 5677.67  691.92
  -1   1  -1 5912.66  837.63
  -1   1  -1 6375.08  847.08
  -1   1  -1 6050.55  812.02
   1  -1   1 6129.29  851.48
  -1  -1  -1 5817.52  767.23
   1  -1   1 5943.58  798.64
   1  -1   1 6088.94  761.11
  -1  -1  -1 5911.04  730.54
  -1  -1  -1 5844.43  748.48
   1  -1   1 5965.73  799.19
  -1  -1  -1 4716.54  671.40
  -1  -1  -1 6361.86  816.57
   1   1   2  508.13   44.65
  -1   1  -2  666.77   94.99
   1   1   2  490.29   64.66
  -1   1  -2  511.84   45.23
   1   1   2  456.11   44.13
   1   1   2  514.27   24.87
  -1   1  -2  624.96   56.09
  -1   1  -2  498.47   52.97
   1  -1   2  520.62   50.05
  -1  -1  -2  631.65   78.36
   1  -1   2  529.18   60.03
  -1  -1  -2  554.54   38.46
  -1  -1  -2  561.08   65.11
  -1  -1  -2  404.11   45.73
   1  -1   2  487.45   46.83
  -1  -1  -2  644.36   63.04
   1  -1   2  637.61   53.00
   1   1   3  277.72   16.44
   1   1   3  304.84   18.38
  -1   1  -3  315.51   23.21
   1   1   3  396.59   63.32
  -1   1  -3  313.44   30.34
  -1   1  -3  360.07   74.70
   1   1   3  322.17   36.19
   1   1   3  325.21   48.73
  -1   1  -3  334.39   29.50
  -1   1  -3  338.95   24.51
  -1   1  -3  378.60   41.60
   1  -1   3  369.72   40.15
  -1  -1  -3  364.57   27.11
   1  -1   3  334.79   33.12
   1  -1   3  293.53   29.56
   1  -1   3  342.10   42.01
  -1  -1  -3  296.60   36.10
  -1  -1  -3  306.93   43.83
  -1  -1  -3  316.25   31.90
   1   1   4  182.90   10.91
   1   1   4  227.56   30.98
   1   1   4  227.54   34.91
  -1   1  -4  210.07   56.37
   1   1   4  172.66   12.11
  -1   1  -4  217.30   17.33
  -1   1  -4  183.45   27.22
   1   1   4  201.33   35.80
  -1   1  -4  234.08   17.12
  -1   1  -4  181.67   17.73
   1  -1   4  246.80   35.15
   1  -1   4  182.67   19.91
   1  -1   4  156.11   24.10
  -1  -1  -4  158.12   12.74
   1  -1   4  148.06   16.70
  -1  -1  -4  224.86   11.21
  -1  -1  -4  191.89   26.25
  -1  -1  -4  218.49   22.22
   1   1   5   90.51   21.30
   1   1   5  111.27   10.46
  -1   1  -5  113.18   15.19
  -1   1  -5  136.62   11.76
   1   1   5   93.92   25.44
   1   1   5  109.07   43.30
  -1   1  -5  116.58   22.14
  -1   1  -5  121.20   14.48
  -1   1  -5  166.58   20.40
   1  -1   5   90.62   17.96
   1  -1   5   73.73    9.13
   1  -1   5  127.64   23.96
   1  -1   5  117.64   14.25
  -1  -1  -5  159.66   20.46
  -1  -1  -5  114.91   20.84
  -1  -1  -5  114.84   10.11
   1   1   6   41.59   13.36
   1   1   6   47.66   25.79
  -1   1  -6   22.31    6.63
   1   1   6   43.97    8.55
  -1   1  -6   50.98   16.96
  -1   1  -6   26.48    8.00
  -1   1  -6   34.82    6.91
   1   1   6   35.75   15.02
  -1   1  -6   40.74    8.28
   1  -1   6   18.81    9.93
   1  -1   6   34.63    8.25
   1  -1   6   17.18    5.96
   1  -1   6   37.35    8.64
  -1  -1  -6   52.75    6.97
  -1  -1  -6   37.88   10.32
  -1  -1  -6   59.64   11.27
  -1  -1  -6   37.79   11.79
   1   1   7   18.72   16.60
  -1   1  -7   11.16    5.41
  -1   1  -7   15.58    5.72
   1   1   7    7.87    9.44
  -1   1  -7   19.45   16.08
   1   1   7    7.63   11.79
   1   1   7   15.27    5.07
  -1   1  -7   15.77    9.14
  -1   1  -7   16.11    4.43
   1  -1   7   15.62    6.38
   1  -1   7    2.37    7.15
   1  -1   7    9.73    8.87
  -1  -1  -7   24.69    5.43
  -1  -1  -7   19.02    8.55
  -1  -1  -7   19.10    7.07
  -1  -1  -7   18.36   11.87
   1   1   8   -0.60   10.23
  -1   1  -8   -0.75    3.58
  -1   1  -8    0.73    3.83
   1   1   8    3.06    3.35
   1   1   8    6.27    8.02
  -1   1  -8    5.63    3.96
  -1   1  -8   -0.97    4.16
  -1  -1  -8    4.22    5.58
   1  -1   8    1.70    4.43
   1  -1   8   -0.81    5.09
  -1  -1  -8    4.87    6.36
  -1  -1  -8    3.49    5.56
  -1  -1  -8    2.36    4.54
  -1   1  -9   59.44   12.54
   1   1   9   44.75   27.43
  -1   1  -9   66.05   12.96
   1  -1   9    5.43   28.91
  -1  -1  -9  111.58   19.30
  -1  -1  -9   51.94   20.54
  -1  -1  -9   82.53   14.56
  -1   1 -10   11.42    8.17
   1   1  10    1.46   13.44
  -1   1 -10    2.80    5.82
   1  -1  10   11.41   17.90
  -1  -1 -10   23.85   10.59
  -1  -1 -10    5.87    8.29
  -1  -1 -10   16.92    7.89
   1   1  11   16.22   20.12
  -1   1 -11   29.61   11.58
   1  -1  11    4.92   23.01
  -1  -1 -11   44.46   11.26
  -1  -1 -11   45.98   16.31
  -1  -1 -11   10.29   11.32
   1   1  12   12.07    8.52
  -1   1 -12   16.29    8.05
   1  -1  12   11.98   15.00
  -1  -1 -12   11.35   12.26
  -1  -1 -12    0.62    7.64
   1   1  13    0.92   13.48
  -1   1 -13   15.31   10.25
   1  -1  13   12.03   13.89
  -1  -1 -13    7.64    6.01
  -1  -1 -13    6.62    6.79
   1   1  14   26.20   11.13
  -1   1 -14   26.94    6.01
   1  -1  14   11.89   16.22
  -1  -1 -14   20.87    7.67
   1   1  15    1.97    7.37
  -1   1 -15    8.56    4.28
   1  -1  15   -2.61    4.92
   1   2 -15   16.56    9.06
   1  -2 -15   20.52    8.74
  -1  -2  15   15.44   10.74
   1   2 -14    3.27    9.27
   1  -2 -14   11.39    8.01
   1  -2 -14   14.83    9.22
  -1  -2  14   15.56   12.16
   1   2 -13    9.37    9.58
   1  -2 -13   14.83    7.46
   1  -2 -13   -0.71    8.58
  -1  -2  13  -16.37   17.33
   1   2 -12   60.39   20.67
   1   2 -12   -0.80   10.82
   1  -2 -12   44.71   13.53
   1  -2 -12   -0.82   12.40
   1   2 -11   59.33   18.81
   1   2 -11   73.72   34.18
   1  -2 -11   60.71   26.76
   1  -2 -11   58.31   22.77
   1   2 -10  129.29   42.89
   1   2 -10  139.75   31.27
   1  -2 -10  153.48   33.56
   1  -2 -10  139.11   41.68
   1   2  -9   23.39   13.27
  -1   2   9    0.60    9.57
   1   2  -9   17.21    8.24
   1  -2  -9   18.51   10.89
   1  -2  -9   36.07   11.87
   1   2  -8   78.23   25.82
   1   2  -8  102.63   18.44
   1  -2  -8   89.49   29.36
   1  -2  -8  114.99   23.90
  -1   2   7   25.53    5.28
  -1   2   7   20.47    4.82
  -1   2   7    4.07   10.95
   1   2  -7   12.83   11.16
   1   2  -7   27.40    7.67
  -1   2   7   24.26   10.75
  -1  -2   7   17.03    8.47
   1  -2  -7   36.31   13.47
   1  -2  -7   30.38    6.32
   1  -2  -7   43.63   10.88
  -1  -2   7   15.57    5.32
  -1  -2   7   20.65   15.26
  -1   2   6    9.83   17.84
  -1   2   6   66.46   13.15
   1   2  -6   91.66   14.26
   1   2  -6   91.71   12.08
   1   2  -6  152.60   24.39
  -1   2   6   84.78   20.05
   1  -2  -6  119.55   23.85
   1  -2  -6   97.85   18.50
  -1  -2   6   91.57   14.42
   1  -2  -6  107.77   12.65
  -1  -2   6   90.34   27.15
   1   2  -5  435.93   32.80
   1   2  -5  296.25   43.62
   1   2  -5  366.80   47.65
   1   2  -5  360.67   37.74
  -1   2   5  339.85   50.06
  -1   2   5  279.36   33.28
   1   2  -5  392.16   25.85
  -1   2   5  277.36   29.34
   1  -2  -5  311.96   41.78
   1  -2  -5  330.06   22.61
   1  -2  -5  427.18   34.53
   1  -2  -5  325.74   20.85
   1  -2  -5  421.83   54.63
  -1  -2   5  382.28   60.49
  -1  -2   5  402.33   33.87
   1   2  -4  366.78   27.77
   1   2  -4  384.29   54.77
   1   2  -4  359.18   21.58
   1   2  -4  325.05   35.24
  -1   2   4  281.76   24.77
   1   2  -4  399.19   38.52
  -1   2   4  324.74   35.93
  -1   2   4  326.26   44.46
   1  -2  -4  424.86   54.39
   1  -2  -4  353.58   23.55
   1  -2  -4  354.66   27.85
   1  -2  -4  274.41   39.54
   1  -2  -4  417.59   33.41
  -1  -2   4  364.49   57.20
  -1  -2   4  355.24   30.05
   1   2  -3   42.71   11.06
   1   2  -3   54.79    8.93
   1   2  -3   41.70    5.67
  -1   2   3   24.69    7.31
   1   2  -3   45.08   15.30
   1   2  -3   33.50    7.18
  -1   2   3   32.18    8.80
  -1   2   3   19.77    5.18
   1  -2  -3   30.15    8.45
   1  -2  -3   32.21   12.88
   1  -2  -3   23.51    6.16
   1  -2  -3   22.99    6.74
  -1  -2   3   42.40    6.51
  -1  -2   3   18.12   13.91
   1   2  -2  194.40   33.79
   1   2  -2  200.68   29.11
  -1   2   2  206.55   28.83
   1   2  -2  217.83   17.63
   1   2  -2  199.55   21.14
   1   2  -2  195.97   28.21
  -1   2   2  265.41   23.13
  -1   2   2  199.29   14.82
  -1   2   2  225.59   25.15
  -1   2   2  202.57   31.55
   1  -2  -2  151.44   28.16
   1  -2  -2  169.47   16.32
   1  -2  -2  193.60   27.78
  -1  -2   2  197.41    9.93
  -1  -2   2  197.93   36.55
  -1  -2   2  202.36   26.27
  -1  -2   2  192.88   17.60
  -1  -2   2  169.64   13.26
   1   2  -1  260.13   34.46
  -1   2   1  227.52   33.22
  -1   2   1  296.38   14.51
   1   2  -1  291.60   26.40
   1   2  -1  242.33   16.28
   1   2  -1  259.74   44.10
  -1   2   1  240.47   32.29
  -1   2   1  254.83   34.72
  -1   2   1  239.53   35.46
   1  -2  -1  267.65   35.73
   1  -2  -1  275.28   36.26
   1  -2  -1  219.06   38.13
  -1  -2   1  231.78   24.10
  -1  -2   1  296.22   45.46
  -1  -2   1  275.16   32.12
  -1  -2   1  258.16   19.26
  -1  -2   1  214.98   26.76
  -1   2   0  265.31   36.51
  -1   2   0  239.29   28.50
  -1   2   0  270.45   15.84
   1   2   0  235.13   24.52
   1   2   0  230.86   39.18
   1   2   0  201.52   16.40
   1   2   0  208.37   18.60
   1   2   0  247.09   31.82
  -1   2   0  254.96   38.10
  -1   2   0  235.64   34.32
  -1   2   0  253.76   35.65
  -1   2   0  221.84   30.93
   1  -2   0  242.46   22.74
   1  -2   0  235.25   17.02
   1  -2   0  215.46   24.29
  -1  -2   0  184.10   28.12
  -1  -2   0  250.48   27.04
  -1  -2   0  239.26   19.77
  -1  -2   0  266.00   41.57
   1   2   1 4530.19  495.30
   1   2   1 4777.70  672.80
   1   2   1 4834.63  606.61
  -1   2  -1 5042.59  659.55
   1   2   1 4482.13  487.10
   1   2   1 4913.75  596.58
  -1   2  -1 4524.32  544.49
  -1   2  -1 4866.61  595.37
  -1   2  -1 4438.41  576.36
  -1   2  -1 4573.21  618.97
   1  -2   1 4473.46  584.88
   1  -2   1 4234.33  520.02
   1  -2   1 4962.46  668.95
  -1  -2  -1 4611.61  648.46
   1  -2   1 4623.76  574.83
  -1  -2  -1 4878.81  653.23
  -1  -2  -1 4961.87  594.74
  -1  -2  -1 4751.08  574.03
   1   2   2   -1.19    2.22
   1   2   2    2.58    2.30
   1   2   2    6.89    3.42
   1   2   2    1.84    3.91
   1   2   2    1.51    6.51
  -1   2  -2    8.78    7.09
  -1   2  -2    4.04    4.18
  -1   2  -2   -1.77    3.03
  -1   2  -2    3.50    3.60
   1  -2   2    0.42    6.42
   1  -2   2    2.14    4.59
   1  -2   2   15.54    5.64
   1  -2   2    1.88    4.17
  -1  -2  -2    2.39    4.19
  -1  -2  -2    2.89    5.07
  -1  -2  -2    2.05    2.70
  -1  -2  -2    0.17    5.83
   1   2   3   78.16    7.65
   1   2   3   86.90   14.05
  -1   2  -3  102.66   28.27
  -1   2  -3   80.39   13.12
   1   2   3   97.92   23.71
   1   2   3   86.43    8.70
  -1   2  -3   74.65   11.70
  -1   2  -3   62.59    7.63
   1  -2   3   90.61   17.04
   1  -2   3   78.85   15.19
  -1  -2  -3  101.02   17.44
   1  -2   3   70.30   14.07
   1  -2   3   76.37   18.97
  -1  -2  -3   90.05    9.01
  -1  -2  -3   95.59   17.63
  -1  -2  -3   83.65   17.93
   1   2   4  164.74   15.27
   1   2   4  173.14   14.99
  -1   2  -4  181.02   21.81
  -1   2  -4  139.68   15.09
   1   2   4  173.13   33.18
   1   2   4  166.34   21.97
  -1   2  -4  188.21   22.22
  -1   2  -4  189.50   12.50
  -1   2  -4  200.33   48.87
   1  -2   4  191.75   24.03
   1  -2   4  197.41   31.72
   1  -2   4  175.75   24.15
   1  -2   4  170.82   24.96
  -1  -2  -4  204.54   18.14
  -1  -2  -4  186.79   19.26
  -1  -2  -4  174.10   15.42
   1   2   5  173.49   22.74
   1   2   5  145.54   29.87
  -1   2  -5  166.51   12.69
  -1   2  -5  101.11   53.33
   1   2   5  166.60   12.40
   1   2   5  157.12   16.29
  -1   2  -5  163.36   23.87
  -1   2  -5  184.40   22.63
   1  -2   5  131.95   26.66
   1  -2   5  165.07   15.29
   1  -2   5  187.42   29.49
   1  -2   5  156.81   21.83
  -1  -2  -5  168.37   14.33
  -1  -2  -5  171.09   29.57
  -1  -2  -5  158.73    8.19
  -1  -2  -5  144.76    6.89
  -1  -2  -5  212.61   17.75
   1   2   6  410.98   29.56
  -1   2  -6  806.08  108.19
   1   2   6  581.71   66.09
  -1   2  -6  580.88   65.44
   1   2   6  364.71   62.80
  -1   2  -6  575.83   37.60
   1  -2   6  356.43   33.97
   1  -2   6  407.07   43.15
  -1  -2  -6  534.81   40.20
   1  -2   6  534.89   53.54
  -1  -2  -6  630.28   60.77
  -1  -2  -6  619.09   84.76
   1  -2   6  476.46   44.37
  -1   2  -7  460.26   49.90
  -1   2  -7  568.81   55.99
  -1   2  -7  516.80   50.49
   1   2   7  498.10   40.23
   1   2   7  350.74   49.13
   1   2   7  488.66  129.30
   1  -2   7  412.15   70.92
   1  -2   7  529.57   60.83
   1  -2   7  419.51   64.56
  -1  -2  -7  577.13   82.28
  -1  -2  -7  640.29   50.48
  -1  -2  -7  560.82   49.02
  -1  -2  -7  704.75   69.00
   1   2   8   89.94   12.86
   1   2   8   53.42   17.58
  -1   2  -8   82.64   15.03
  -1   2  -8   99.07   17.16
  -1   2  -8  107.20   35.94
  -1  -2  -8  129.48   16.06
  -1  -2  -8  113.53   29.55
  -1  -2  -8  124.75   14.36
   1   2   9   49.38   30.04
  -1   2  -9  106.02   19.65
  -1   2  -9   67.43   15.16
  -1   2  -9  100.14   44.90
  -1  -2  -9  114.17   21.04
  -1  -2  -9  117.84   17.26
  -1  -2  -9  109.98   29.89
  -1   2 -10    5.71    5.70
   1   2  10   23.80   13.98
  -1   2 -10    5.93    8.26
   1  -2  10    3.97   14.59
  -1  -2 -10   19.45    7.38
  -1  -2 -10   10.55    8.24
  -1  -2 -10   18.90   12.90
   1   2  11   -1.30   12.64
  -1   2 -11    7.04    8.58
   1  -2  11   -0.41   16.20
  -1  -2 -11   10.38    6.43
  -1  -2 -11   -0.24   10.05
  -1  -2 -11    9.77    7.35
   1   2  12   10.37   11.68
  -1   2 -12    2.61    4.03
   1  -2  12    8.57   11.72
  -1  -2 -12   17.07   11.74
  -1  -2 -12    1.36    5.20
  -1  -2 -12    0.47    5.90
   1   2  13    7.78   10.45
  -1   2 -13    8.75    6.42
   1  -2  13    8.34   11.13
  -1  -2 -13   -1.77    6.46
   1   2  14    2.72    7.99
  -1   2 -14    4.25    5.98
   1  -2  14   -3.50    5.77
  -1  -2 -14   10.59    5.78
   1   3 -14   11.22    8.54
   1  -3 -14    7.65    9.87
   1  -3 -14   15.95    8.35
  -1  -3  14   20.31   12.48
   1   3 -13   11.77    8.44
   1  -3 -13   -0.71    6.53
   1  -3 -13    4.94    6.59
  -1  -3  13   -7.51    9.30
   1   3 -12   25.58   11.85
   1   3 -12   31.49   25.14
   1  -3 -12   45.33   17.04
   1  -3 -12   -0.38   14.08
   1   3 -11   48.31   13.85
   1   3 -11   38.41   14.98
   1  -3 -11   -0.77   18.80
   1  -3 -11   67.03   23.04
   1   3 -10  148.08   50.34
   1   3 -10  176.40   33.92
   1  -3 -10  185.02   53.75
   1  -3 -10  162.89   35.52
   1   3  -9   25.84   11.44
   1   3  -9   21.44   17.50
   1  -3  -9   38.44   14.19
   1  -3  -9   29.29   15.63
   1   3  -8  104.02   37.56
   1   3  -8   49.86   13.93
   1  -3  -8   54.58   20.19
   1  -3  -8   60.66   17.76
   1   3  -7    7.89    8.52
   1   3  -7    5.17    4.92
   1  -3  -7    9.38    5.98
   1  -3  -7    8.25   10.59
   1  -3  -7    7.87    7.04
  -1  -3   7    3.14    5.05
   1   3  -6    6.41    9.89
   1   3  -6    5.80    4.66
  -1   3   6    6.64    5.25
  -1   3   6    5.32    6.86
   1  -3  -6    4.98    6.99
   1  -3  -6    6.05    9.48
   1  -3  -6   12.64    6.03
  -1  -3   6    2.79    5.66
  -1  -3   6    4.03    5.99
  -1  -3   6   -2.22    9.71
   1   3  -5    5.72    3.81
   1   3  -5    6.46    7.28
   1   3  -5    7.24    5.02
   1   3  -5    4.05    6.35
  -1   3   5   -0.47    4.65
   1   3  -5    6.59    6.17
  -1   3   5    6.78    4.22
  -1   3   5    6.89    6.15
   1  -3  -5   -0.20    5.01
  -1  -3   5   10.50    8.33
   1  -3  -5   10.55    8.11
  -1  -3   5    3.96    4.88
   1  -3  -5    4.64    4.03
   1   3  -4   30.04    5.92
   1   3  -4   31.91   10.03
   1   3  -4   36.26    7.06
   1   3  -4   26.87   10.82
   1   3  -4   30.99   11.97
  -1   3   4   14.54    5.26
  -1   3   4   24.74   10.26
  -1   3   4   34.99    5.14
   1  -3  -4   19.79    5.85
   1  -3  -4   33.47   12.61
   1  -3  -4   21.50   10.24
  -1  -3   4   26.12    7.61
  -1  -3   4   33.88   13.37
   1  -3  -4   25.67    5.66
  -1   3   3   23.85    9.68
   1   3  -3   18.71    4.31
  -1   3   3   13.85    7.56
   1   3  -3   14.40    4.48
   1   3  -3   22.34    9.31
   1   3  -3   17.13   11.34
  -1   3   3    6.21    4.39
   1   3  -3   16.18    5.75
  -1   3   3   18.22    6.17
   1  -3  -3   13.44    7.09
   1  -3  -3   15.45    5.38
  -1  -3   3   12.12    5.69
  -1  -3   3   22.62   10.95
   1  -3  -3   14.42    6.84
   1  -3  -3   10.92    6.48
  -1   3   2  196.44   15.07
  -1   3   2  161.97   22.74
   1   3  -2  203.93   34.66
   1   3  -2  192.55   20.05
   1   3  -2  182.61   32.20
   1   3  -2  174.56   14.95
   1   3  -2  152.75   22.47
  -1   3   2  197.09   32.13
  -1   3   2  183.07   24.41
   1  -3  -2  182.90   23.68
  -1  -3   2  166.88   25.72
  -1  -3   2  198.67   21.24
   1  -3  -2  197.60   30.06
  -1  -3   2  193.64   34.72
   1  -3  -2  202.97   24.22
   1   3  -1   24.01   10.47
  -1   3   1   22.98    5.51
   1   3  -1   -0.99    6.05
   1   3  -1   30.45    5.65
  -1   3   1   19.07   10.65
   1   3  -1   30.16   11.46
   1   3  -1   28.72    4.19
  -1   3   1   15.65    9.21
   1   3  -1   15.33    7.59
  -1   3   1   23.80    4.93
  -1   3   1   22.08    8.78
   1  -3  -1   24.48    9.59
  -1  -3   1   32.13   11.69
   1  -3  -1   18.91   10.72
   1  -3  -1   30.25    4.30
  -1  -3   1   29.14    8.27
  -1  -3   1   29.68    5.74
   1  -3  -1   27.06    9.46
  -1   3   0  589.56   32.56
  -1   3   0  525.54   42.07
   1   3   0  490.32   36.29
   1   3   0  544.25   47.20
   1   3   0  464.65   56.29
  -1   3   0  554.90   71.01
   1   3   0  462.90   31.89
   1   3   0  566.65   68.93
  -1   3   0  514.16   38.33
  -1   3   0  456.07   62.25
  -1   3   0  518.38   38.20
   1  -3   0  441.10   50.63
  -1  -3   0  419.40   53.36
   1  -3   0  468.84   39.38
   1  -3   0  507.11   60.38
  -1  -3   0  469.84   46.66
  -1  -3   0  513.42   43.68
  -1  -3   0  624.86   71.35
   1  -3   0  605.14   41.78
   1   3   1 1011.86   66.68
   1   3   1 1059.50  113.74
  -1   3  -1  856.69  106.84
  -1   3  -1 1043.66   77.78
   1   3   1  926.81   61.68
   1   3   1  960.38   93.88
  -1   3  -1  941.88  109.23
  -1   3  -1 1000.65   78.55
   1   3   1 1309.76  112.30
  -1   3  -1 1072.81  102.99
  -1   3  -1 1001.31   68.92
   1  -3   1  939.77   70.15
   1  -3   1  969.24   84.94
  -1  -3  -1  991.48   83.53
  -1  -3  -1  974.78  110.97
   1  -3   1  824.11   90.69
   1  -3   1  889.32   80.93
  -1  -3  -1 1093.10  106.85
  -1  -3  -1  941.50   81.18
  -1   3  -2  372.22   23.60
   1   3   2  441.08   54.20
  -1   3  -2  336.77   47.34
  -1   3  -2  340.55   49.37
   1   3   2  368.50   23.78
   1   3   2  381.44   38.28
   1   3   2  339.53   24.24
   1   3   2  370.06   39.01
  -1   3  -2  514.76   54.30
  -1   3  -2  369.08   25.97
   1  -3   2  317.77   37.04
  -1  -3  -2  479.29   49.22
   1  -3   2  380.90   52.47
   1  -3   2  310.70   41.21
  -1  -3  -2  333.62   28.18
  -1  -3  -2  310.55   45.31
  -1  -3  -2  366.54   36.66
  -1   3  -3  192.22   14.53
   1   3   3  191.42   30.17
   1   3   3  199.63   23.06
  -1   3  -3  174.49   17.87
   1   3   3  138.45   10.18
   1   3   3  150.20    9.49
  -1   3  -3  186.41    9.17
   1   3   3  181.77   20.11
  -1   3  -3  168.21   28.88
  -1   3  -3  164.24    6.12
  -1   3  -3  174.51   19.89
   1  -3   3  147.01   24.65
   1  -3   3  211.78   19.73
   1  -3   3  136.08   20.15
  -1  -3  -3  168.04   29.55
  -1  -3  -3  153.18   13.49
  -1  -3  -3  259.28   34.87
  -1  -3  -3  177.02   25.28
   1   3   4  122.12   27.49
   1   3   4  108.45   11.24
  -1   3  -4  137.73   36.35
   1   3   4  119.43   11.91
  -1   3  -4  232.17   30.01
   1   3   4  138.21   21.14
  -1   3  -4  144.90   20.22
   1  -3   4  127.34   23.61
   1  -3   4  118.94   22.66
   1  -3   4  106.67   19.07
  -1  -3  -4  165.49   31.35
  -1  -3  -4  108.00   10.11
  -1  -3  -4  176.56   31.56
   1   3   5  126.71   10.38
   1   3   5  124.46   29.35
  -1   3  -5  102.38   43.16
  -1   3  -5  158.61   22.48
   1   3   5   90.18   13.02
   1   3   5  130.06   13.63
  -1   3  -5  122.95   20.81
   1  -3   5   96.59   20.58
   1  -3   5  143.44   20.58
   1  -3   5  115.15   22.91
   1  -3   5  131.48   24.68
  -1  -3  -5  193.45   33.87
  -1  -3  -5  143.80   13.86
  -1  -3  -5  138.87   29.87
   1   3   6    3.58    2.80
   1   3   6   -0.41    3.87
  -1   3  -6    6.85    3.25
  -1   3  -6    6.98    5.98
   1   3   6    8.01    6.34
   1   3   6    0.38    8.47
  -1   3  -6    6.18   14.17
   1  -3   6    6.85    4.30
   1  -3   6    2.96    4.82
   1  -3   6    7.29    5.28
   1  -3   6    2.96    6.13
  -1  -3  -6    8.56    8.89
  -1  -3  -6    7.56    4.11
  -1  -3  -6   13.38    9.55
  -1   3  -7    9.10    6.84
   1   3   7    6.99    3.16
   1   3   7    8.05    9.79
  -1   3  -7    2.56    8.45
  -1   3  -7    7.74    7.71
   1  -3   7    5.43    4.71
  -1  -3  -7   15.37   10.87
  -1  -3  -7   13.34    6.46
  -1  -3  -7    1.33    4.47
   1   3   8   18.49   15.46
  -1   3  -8   26.65   13.64
  -1   3  -8   17.76    8.92
  -1   3  -8   35.40   10.88
  -1  -3  -8   33.98   16.61
  -1  -3  -8    4.14    7.38
  -1  -3  -8   52.11   16.28
   1   3   9   17.38   18.80
  -1   3  -9   43.38   11.65
  -1   3  -9   13.62    8.46
  -1   3  -9   48.53   25.21
  -1  -3  -9   45.17   14.78
  -1  -3  -9   49.30   20.84
  -1   3 -10    6.88    6.54
   1   3  10   13.13    9.59
  -1   3 -10   31.73   10.45
   1  -3  10    2.82   15.33
  -1  -3 -10   31.76   12.27
  -1  -3 -10   30.60   17.95
  -1   3 -11   29.56   11.48
   1   3  11    8.23   19.24
  -1  -3 -11   56.88   26.09
   1  -3  11   23.76   29.11
  -1  -3 -11   30.22   14.04
   1   3  12    8.25   11.98
  -1   3 -12   14.41    9.09
   1  -3  12    0.27   13.49
  -1  -3 -12   11.77   12.48
  -1  -3 -12    8.05    7.83
   1   3  13    2.20   10.47
  -1   3 -13   25.96    8.53
   1  -3  13   -6.10   13.31
  -1  -3 -13   17.34    9.52
   1   3  14   -0.38    7.30
  -1   3 -14    2.17    8.35
   1  -3  14    8.83    9.27
  -1  -3 -14   20.75    7.72
   1   4 -13   12.31    9.77
  -1   4  13    9.69    4.94
   1  -4 -13   13.43    9.24
  -1  -4  13   -0.91   11.65
   1   4 -12   10.98    7.97
   1   4 -12   32.27   18.73
   1  -4 -12   17.25   10.90
   1  -4 -12    0.09   10.86
   1   4 -11   43.22   10.87
   1   4 -11   10.51   11.65
   1  -4 -11   -0.94   14.32
   1  -4 -11   44.21   19.86
   1   4 -10   70.35   13.93
   1   4 -10   86.82   29.91
   1  -4 -10   -0.95   22.54
   1  -4 -10   68.12   30.34
   1   4  -9    4.69   14.05
   1   4  -9   13.18    8.51
   1  -4  -9   20.90   11.37
   1  -4  -9   18.08   12.32
   1   4  -8   24.46    9.27
  -1   4   8   13.30   14.01
   1   4  -8   52.81   26.87
   1  -4  -8   22.24   21.18
   1  -4  -8   23.56   13.87
  -1  -4   8   21.67    8.97
   1   4  -7   43.85   16.13
   1   4  -7   29.53    8.91
  -1   4   7   30.51   10.61
   1  -4  -7   26.04   14.83
   1  -4  -7   30.71   15.53
  -1  -4   7   39.11   17.51
   1   4  -6   63.84   12.42
  -1   4   6   63.06   13.84
   1   4  -6   69.93   24.83
   1  -4  -6   30.73   17.69
  -1  -4   6   39.83   15.73
   1  -4  -6   52.89   17.51
   1   4  -5  760.40   75.90
   1   4  -5  975.07   77.76
  -1   4   5  803.59   82.71
   1  -4  -5  736.30   88.03
   1  -4  -5  495.77   92.89
  -1  -4   5  641.56   91.37
  -1  -4   5  840.69   84.95
   1   4  -4  489.41   69.97
   1   4  -4  426.61   36.39
  -1   4   4  452.54   68.16
  -1   4   4  322.31   37.47
   1   4  -4  454.56   47.23
   1   4  -4  372.74   30.92
  -1   4   4  398.84   42.42
  -1   4   4  366.29   44.15
   1  -4  -4  346.87   31.22
   1  -4  -4  366.92   32.81
   1  -4  -4  380.58   45.79
  -1  -4   4  356.30   38.77
  -1  -4   4  496.24   49.28
  -1  -4   4  432.81   66.78
   1   4  -3  100.83   14.32
   1   4  -3   80.12   11.47
   1   4  -3  115.57   18.03
  -1   4   3  110.40   21.93
   1   4  -3   81.53   15.12
   1   4  -3   90.60   15.86
  -1   4   3   72.76   14.37
  -1   4   3   89.57   24.41
  -1   4   3  129.82   23.31
   1  -4  -3   75.77   13.26
   1  -4  -3  124.67   23.47
  -1  -4   3   94.08   23.24
   1  -4  -3   87.58   13.73
  -1  -4   3   87.23   20.10
  -1   4   2   93.09   24.16
   1   4  -2  129.40   26.61
   1   4  -2  110.95   17.08
   1   4  -2  118.44   11.64
  -1   4   2   96.80   15.04
   1   4  -2   87.67   12.94
  -1   4   2  108.31   18.45
   1   4  -2  117.83   28.64
   1   4  -2   68.19   17.57
  -1   4   2  115.40   20.01
   1  -4  -2  114.96   19.34
   1  -4  -2   84.34   16.68
  -1  -4   2  113.37   16.89
   1  -4  -2  105.64   18.88
  -1  -4   2  102.03   20.29
   1   4  -1   72.65    9.97
   1   4  -1   72.34   12.68
   1   4  -1  108.55   24.89
   1   4  -1   88.49   20.07
  -1   4   1   30.02   15.35
  -1   4   1   97.48   24.37
   1   4  -1   78.85   18.66
   1   4  -1   88.76    8.94
  -1   4   1   85.85   11.40
  -1   4   1   97.72   16.99
  -1   4   1   97.29   11.27
   1  -4  -1   89.20   18.80
  -1  -4   1  116.07   21.92
   1  -4  -1   73.39   11.44
   1  -4  -1  100.71   12.39
  -1  -4   1   84.67   16.81
   1   4   0  100.38   12.71
   1   4   0  101.70   16.18
   1   4   0   84.09   13.26
   1   4   0  104.12   23.27
  -1   4   0  112.06   19.17
  -1   4   0  102.93   30.15
  -1   4   0  109.10   25.02
   1   4   0  102.52   24.74
  -1   4   0  119.71   18.81
  -1   4   0   88.60   12.47
  -1  -4   0  113.31   22.30
   1  -4   0  109.32   22.46
   1  -4   0  100.98   22.15
   1  -4   0   92.40   12.80
  -1  -4   0   76.72    9.38
  -1  -4   0   88.60   16.62
   1   4   1 1152.37  131.83
   1   4   1 1287.12  138.19
   1   4   1 1118.89   80.98
  -1   4  -1 1109.77   87.86
  -1   4  -1 1211.81   94.60
   1   4   1 1069.14   79.17
  -1   4  -1 1166.22  118.16
   1   4   1 1446.37  114.96
  -1   4  -1 1004.48   99.54
  -1   4  -1  954.33  128.61
  -1  -4  -1 1059.89   93.15
  -1  -4  -1 1012.02   95.76
   1  -4   1 1174.46  139.21
   1  -4   1  947.76   82.88
  -1  -4  -1 1363.67  133.44
  -1  -4  -1 1022.81  102.72
   1  -4   1  955.82  111.66
   1   4   2    5.86    7.83
   1   4   2   12.92    3.84
   1   4   2    9.27    3.33
   1   4   2    7.16    2.76
  -1   4  -2    7.48    8.70
  -1   4  -2   14.45    7.37
  -1   4  -2   14.09    9.41
  -1   4  -2   11.24    8.13
  -1   4  -2   12.10    6.41
   1  -4   2    8.20    9.39
  -1  -4  -2    8.42    7.27
  -1  -4  -2   11.34    4.63
   1  -4   2    6.90    7.31
  -1  -4  -2   15.48    7.60
  -1  -4  -2    9.28    5.09
   1  -4   2    7.04    3.99
  -1  -4  -2   -2.75    3.43
  -1   4  -3   49.98   19.57
   1   4   3   57.93    6.96
   1   4   3   47.77   17.93
  -1   4  -3   78.44   18.42
   1   4   3   69.18   14.56
   1   4   3   61.68    8.08
  -1   4  -3   56.82   19.78
  -1   4  -3   68.49   13.52
  -1   4  -3   48.23    9.26
  -1  -4  -3   62.19   11.80
   1  -4   3   37.28   15.45
  -1  -4  -3   67.02   10.92
  -1  -4  -3   83.22   15.45
   1  -4   3   62.62   20.46
  -1  -4  -3   68.71   22.02
  -1  -4  -3  114.06   24.61
   1   4   4   79.87   10.37
  -1   4  -4   95.51   35.08
  -1   4  -4  133.39   23.61
   1   4   4   65.47   23.65
   1   4   4   76.08    7.70
  -1   4  -4  114.46   18.07
  -1   4  -4   87.47   20.75
   1  -4   4   68.07   14.81
   1  -4   4   91.46   14.79
  -1  -4  -4   80.54   12.20
  -1  -4  -4   77.07   10.66
  -1  -4  -4  104.19   27.00
  -1  -4  -4   85.02   19.86
  -1   4  -5  106.87   19.46
   1   4   5   97.29   29.02
  -1   4  -5  162.17   48.48
  -1   4  -5  148.63   24.30
   1  -4   5  120.91   27.63
   1  -4   5   87.97   20.91
  -1  -4  -5  140.11   30.48
  -1  -4  -5  140.14   28.47
   1   4   6   43.72   21.35
  -1   4  -6   22.01   31.82
  -1   4  -6   46.62   14.34
  -1   4  -6   54.48   13.79
   1  -4   6   48.36   18.57
  -1  -4  -6   54.95   20.61
  -1  -4  -6   67.26   20.52
  -1   4  -7   20.04    9.94
   1   4   7   29.84   12.27
  -1   4  -7   12.12   11.69
  -1   4  -7    8.09   22.46
  -1  -4  -7    1.10   14.29
  -1  -4  -7   16.65   12.97
   1  -4   7   14.20    8.30
   1   4   8   76.88   30.93
  -1   4  -8  113.36   25.81
  -1   4  -8   98.87   29.79
  -1   4  -8  124.89   25.67
  -1  -4  -8  138.08   36.49
  -1  -4  -8  117.32   39.29
   1   4   9   17.57   18.00
  -1   4  -9   55.14   25.34
  -1   4  -9   58.38   13.89
  -1   4  -9   19.95    9.96
  -1  -4  -9   64.67   20.94
  -1  -4  -9   65.75   25.92
   1   4  10    3.49   13.64
  -1   4 -10   19.26   10.21
   1  -4  10   11.93   13.57
  -1  -4 -10   22.55   12.46
  -1  -4 -10   11.62   21.94
   1   4  11   -4.20   10.86
  -1   4 -11   10.51    7.38
   1  -4  11    5.16   16.21
  -1  -4 -11   16.86   10.01
  -1  -4 -11   12.41   13.57
   1   4  12    0.81    6.81
  -1   4 -12    4.00    3.94
   1  -4  12    3.53    8.39
  -1  -4 -12    6.09    7.04
  -1  -4 -12   -1.96    5.60
   1   4  13    3.27    5.25
  -1   4 -13    9.28    5.82
   1  -4  13   -0.89    7.77
  -1  -4 -13    8.80    9.85
   1   5 -12  -11.27   14.24
   1   5 -12   21.99    5.89
  -1   5  12   -1.01    6.52
   1  -5 -12   12.38    9.39
   1   5 -11   21.02   12.68
   1   5 -11   10.66    7.34
  -1   5  11   11.37    8.48
   1  -5 -11   15.24   11.55
   1   5 -10   25.20   10.99
   1   5 -10   25.51    8.12
  -1   5  10    6.44   11.90
   1  -5 -10   32.09   14.95
   1   5  -9   11.69    8.62
   1   5  -9   14.55   14.53
  -1   5   9   22.59   12.54
   1  -5  -9   41.03   17.69
   1   5  -8   53.94   20.89
   1   5  -8   10.60    7.18
  -1   5   8   11.07   11.04
  -1   5   8    8.95    9.26
  -1  -5   8    8.52    7.65
   1  -5  -8   12.85   14.75
   1   5  -7    8.56    9.31
   1   5  -7    6.17    5.13
  -1   5   7    2.61    8.97
  -1   5   7    8.07    8.92
  -1  -5   7   -1.99    7.80
   1  -5  -7   20.34   11.27
   1   5  -6    1.16    5.02
   1   5  -6   25.80   16.24
  -1   5   6    4.89    9.52
  -1   5   6    4.22    7.01
  -1  -5   6   -0.74    8.26
   1  -5  -6   15.29    9.30
   1   5  -5   -0.13    8.48
   1   5  -5   -0.71    3.86
  -1   5   5   -3.57    6.98
  -1   5   5   -0.85    5.99
  -1  -5   5   -6.16    6.23
   1  -5  -5    0.06    7.62
   1   5  -4   11.25   11.81
   1   5  -4    8.34    8.48
   1   5  -4    8.62    4.66
  -1   5   4    8.63    8.41
  -1   5   4    5.89   10.26
  -1  -5   4   10.19    9.81
   1  -5  -4   14.14    9.33
   1   5  -3   27.99    8.59
   1   5  -3   41.32    7.62
  -1   5   3   36.38   15.76
   1   5  -3   -1.97   11.16
  -1   5   3   33.69   12.48
   1  -5  -3   28.88    9.71
  -1  -5   3   33.15    9.19
   1  -5  -3   23.56    9.23
   1   5  -2   76.41   22.50
   1   5  -2   48.57   10.30
   1   5  -2   67.36   17.60
   1   5  -2   62.90   12.57
  -1   5   2   79.44   24.81
  -1   5   2   60.61   16.81
  -1   5   2   48.26   10.06
   1  -5  -2   55.89   11.77
   1  -5  -2   77.36   18.64
  -1  -5   2   57.59   19.57
   1   5  -1   99.94   22.16
   1   5  -1   75.64    9.89
   1   5  -1   55.82   19.32
   1   5  -1   61.11   10.82
  -1   5   1   90.76   19.24
  -1   5   1   85.74   25.63
  -1  -5   1   67.36   20.77
   1  -5  -1   68.99   21.09
   1   5   0  121.51   25.36
   1   5   0  103.53   28.05
   1   5   0  107.05   11.19
  -1   5   0  121.35   13.59
   1   5   0   87.84   11.81
  -1   5   0  109.80   29.93
  -1  -5   0   85.60   23.40
   1  -5   0  117.20   28.83
   1   5   1   67.20   18.65
   1   5   1   89.15   21.82
  -1   5  -1   83.79   17.98
  -1   5  -1   68.57   24.98
  -1  -5  -1   72.85   17.90
   1  -5   1   81.75   26.11
   1   5   2   -0.47   20.86
  -1   5  -2  119.02   19.80
   1   5   2  150.65   26.40
  -1   5  -2  132.52   36.13
  -1  -5  -2   88.93   18.89
   1  -5   2  132.00   31.39
   1   5   3  122.46   28.33
  -1   5  -3  115.41   21.84
  -1   5  -3   91.07   20.54
  -1  -5  -3  118.50   22.31
   1  -5   3  119.38   33.89
  -1  -5  -3  104.21   32.25
  -1  -5  -3  128.29   26.75
  -1   5  -4   66.60   16.89
   1   5   4   48.66   20.41
  -1   5  -4   46.61   32.56
  -1  -5  -4   58.10   18.96
   1  -5   4   56.30   23.98
  -1  -5  -4   61.36   25.21
  -1   5  -5   59.99   17.89
   1   5   5   41.79   19.74
  -1   5  -5   27.87   36.64
  -1  -5  -5   76.31   22.02
   1  -5   5   47.58   23.48
  -1  -5  -5   72.54   26.00
  -1   5  -6    1.16    3.71
   1   5   6    5.63    7.43
  -1   5  -6    0.72   14.52
  -1   5  -6    3.75    6.07
   1  -5   6    2.57    6.35
  -1  -5  -6    4.42    9.62
  -1  -5  -6    3.97    9.29
   1   5   7   18.97   14.79
  -1   5  -7   37.03   13.14
  -1   5  -7   19.60   12.06
  -1   5  -7   10.07   28.95
   1  -5   7   30.03   12.23
  -1  -5  -7   35.74   18.80
  -1  -5  -7   39.27   19.62
  -1   5  -8   18.80   14.04
   1   5   8   13.08   12.36
  -1   5  -8   25.24   11.62
  -1   5  -8   12.18   11.23
   1  -5   8   20.30    7.97
  -1  -5  -8   26.71   16.76
  -1  -5  -8   32.42   21.36
   1   5   9    6.87   12.12
  -1   5  -9   20.14    7.04
  -1   5  -9   38.27   15.51
  -1   5  -9   23.66   10.27
  -1  -5  -9   17.24   15.81
  -1  -5  -9   20.25   22.63
   1   5  10    8.06    8.33
  -1   5 -10   16.35    8.27
   1  -5  10   -0.24    8.76
  -1  -5 -10   13.48   13.22
  -1  -5 -10   12.22   10.19
  -1   5 -11   29.98    9.75
   1   5  11   16.62    9.61
  -1  -5 -11   40.00   13.56
   1  -5  11   26.18   12.97
  -1   5 -12   46.70   11.71
   1  -5  12   20.47   11.66
  -1  -5 -12   48.71   18.41
   1   6 -11    3.41    8.74
   1   6 -11    3.00    3.34
   1  -6 -11    5.46    7.50
  -1   6  10    6.42    3.65
   1   6 -10   -5.12    3.11
   1   6 -10   -1.94    5.61
   1  -6 -10    6.03    5.25
  -1   6   9    7.26    7.24
   1   6  -9    6.96    4.61
   1   6  -9    5.70   10.81
   1  -6  -9   19.62    9.19
  -1   6   8   11.52    8.08
   1   6  -8   11.88    9.71
   1   6  -8    8.17    5.49
  -1   6   8    8.76    9.01
   1  -6  -8    6.05    9.66
  -1  -6   8    9.50    9.03
  -1   6   7   32.62   12.14
   1   6  -7   23.42    7.68
   1   6  -7   35.93   23.63
  -1   6   7   30.69   15.63
   1  -6  -7   21.92   12.65
  -1  -6   7   11.48   12.22
  -1   6   6   49.38   16.50
   1   6  -6   54.54   17.25
   1   6  -6   44.04    9.20
  -1   6   6   47.87   22.59
   1  -6  -6   54.89   15.52
  -1  -6   6   32.51   18.30
  -1   6   5  204.96   52.91
   1   6  -5  339.48   76.97
   1   6  -5  198.40   24.06
  -1   6   5  237.61   36.16
   1  -6  -5  207.22   33.66
  -1  -6   5  145.45   42.74
   1   6  -4  135.03   29.60
   1   6  -4  171.27   20.16
   1   6  -4  202.59   44.14
  -1   6   4  179.26   47.72
  -1   6   4  189.25   31.49
  -1  -6   4  149.77   45.10
  -1   6   3   99.08   19.59
   1   6  -3   55.52   27.05
   1   6  -3   71.85   23.31
  -1   6   3   70.38   28.23
   1  -6  -3   49.31   15.24
  -1  -6   3   71.62   27.40
  -1   6   2   52.88   15.02
   1   6  -2   51.00   18.76
   1   6  -2   48.85   18.15
  -1   6   2   57.13   25.76
   1  -6  -2   50.07   15.61
  -1  -6   2   58.12   23.77
   1   6  -1   23.50   15.05
   1   6  -1   15.79    8.84
  -1   6   1   19.62   10.08
  -1   6   1   22.52   10.02
  -1  -6   1   23.48   14.95
   1  -6  -1   21.41   10.88
  -1   6   0    9.27   11.96
   1   6   0    6.45   10.59
   1   6   0    6.51   12.43
  -1   6   0   11.60    8.01
   1  -6   0    5.02   11.83
  -1  -6   0   10.72   10.45
  -1   6  -1   20.76   10.45
   1   6   1   24.30   13.55
   1   6   1   22.41    9.48
  -1   6  -1   22.99   21.28
   1  -6   1   24.99   17.46
  -1  -6  -1   23.21   13.94
   1   6   2    2.28    6.10
   1   6   2    4.02    9.16
  -1   6  -2    6.88    9.04
  -1   6  -2    2.60    5.41
  -1  -6  -2    1.22    6.16
   1  -6   2   -9.24    9.36
   1   6   3   28.00   18.97
   1   6   3    9.05   12.62
  -1   6  -3   32.58    7.39
  -1   6  -3   13.73   25.46
   1  -6   3   27.36   19.11
  -1  -6  -3   17.10    9.32
   1   6   4    9.98   13.18
   1   6   4   45.81   24.21
  -1   6  -4   18.06   25.76
  -1   6  -4   48.79   13.11
   1  -6   4   23.93   15.98
   1   6   5   35.22   13.62
  -1   6  -5   -8.72   11.87
  -1   6  -5   16.58   25.10
  -1  -6  -5   28.36   11.30
   1  -6   5   24.80    8.32
   1   6   6   16.78   10.63
  -1   6  -6   10.41    8.92
  -1   6  -6   10.10   22.63
  -1  -6  -6   10.69    9.87
   1  -6   6    6.11    9.78
   1   6   7    8.36    9.37
  -1   6  -7    7.85    4.94
  -1   6  -7    0.30   17.78
  -1  -6  -7   14.32    7.62
   1  -6   7    4.85    7.37
   1   6   8   57.52   24.60
  -1   6  -8   48.15   13.80
  -1   6  -8   33.35    9.84
  -1  -6  -8   40.74    8.80
   1  -6   8   24.88   10.93
   1   6   9   21.85   17.42
  -1   6  -9   25.09   11.39
  -1  -6  -9   48.27   17.17
   1   6  10   -3.08   10.61
  -1   6 -10   16.35    4.85
  -1  -6 -10   18.99   11.91
  -1   6 -11   19.56    8.67
  -1  -6 -11   18.21   10.67
   1   7  -9   -4.29    5.96
   1  -7  -9    6.12    4.31
   1   7  -8    8.37    3.78
   1   7  -8   11.95    7.89
  -1   7   8    3.57    4.69
   1  -7  -8   16.48    5.81
  -1  -7   8   14.08    6.09
  -1   7   7   21.34    7.26
   1   7  -7    5.52    6.42
  -1   7   7   -3.14    4.79
   1  -7  -7    9.44    5.04
  -1  -7   7   -1.36    8.29
   1   7  -6    9.43    6.19
  -1   7   6   12.08    7.90
  -1   7   6    1.65    5.03
  -1  -7   6  -10.34    8.94
   1   7  -5   25.55   11.26
  -1   7   5    1.80    9.24
  -1   7   5    3.03    5.69
  -1  -7   5   -1.03   10.46
   1   7  -4   18.43   10.32
  -1   7   4    0.56    8.29
  -1   7   4    0.32    4.87
  -1  -7   4    0.50    4.57
   1   7  -3   33.39   11.52
   1   7  -3   25.58   13.13
  -1   7   3   23.97   16.52
  -1   7   3   16.74   10.17
  -1  -7   3   18.87   14.17
  -1   7   2   35.73    7.99
   1   7  -2   35.87   12.23
   1   7  -2   36.56   11.64
  -1   7   2   33.00   19.87
   1  -7  -2   26.61   11.10
  -1  -7   2   39.96   16.12
  -1   7   1   54.35   14.52
   1   7  -1   62.48   18.36
   1   7  -1   66.77   19.53
  -1   7   1   52.67   24.95
   1  -7  -1   39.10   17.96
  -1  -7   1   42.01   18.72
  -1   7   0    8.16   21.20
   1   7   0   27.53   13.54
  -1   7   0   21.35    9.28
   1  -7   0   13.86   11.95
  -1  -7   0   22.59   11.61
  -1   7  -1   11.32    8.67
   1   7   1   14.33    8.54
  -1   7  -1   38.15   15.72
   1  -7   1   21.57   11.55
  -1  -7  -1    7.94    9.91
  -1   7  -2   28.84   11.37
   1   7   2   27.23   19.35
  -1   7  -2   29.28   27.07
   1  -7   2   35.37   15.69
  -1  -7  -2   18.75   13.05
  -1   7  -3   47.37   30.28
   1   7   3   45.21   23.13
  -1   7  -3   43.39   13.83
   1  -7   3   25.71   18.42
  -1   7  -4   28.00   14.15
   1   7   4   17.16   14.99
  -1   7  -4   22.64    8.37
   1  -7   4    7.90    7.95
  -1   7  -5   20.45   10.09
   1   7   5   27.66   16.18
  -1   7  -5   20.59   24.07
   1  -7   5   24.29   14.18
  -1   7  -6    7.84    7.76
   1   7   6   26.90   12.37
  -1   7  -6    9.64   18.85
   1  -7   6   10.84    9.45
  -1   7  -7   21.11    8.22
   1   7   7   12.37   12.22
  -1   7  -7   26.83    8.46
   1  -7   7    9.54    5.05
  -1   7  -8    1.40    1.98
   1   7   8   -0.16    5.82
  -1   7  -8   -3.44    3.25
   1  -7   8   -1.58    3.35
  -1  -7  -8    0.11    2.65
   1   7   9    0.20    7.70
  -1   7  -9    7.58    3.04
  -1   8   6    6.39    7.21
  -1  -8   6   10.97    6.33
  -1   8   5   11.32    4.77
  -1   8   5    5.01   10.60
  -1  -8   5    6.37    7.51
  -1   8   4   19.29    5.26
  -1   8   4    7.74   14.87
  -1  -8   4   24.29   13.09
   1   8  -3   36.89   16.45
  -1   8   3   37.32   17.58
  -1   8   3   35.23    8.02
  -1  -8   3   51.64   18.17
  -1   8   2   21.99    6.97
   1   8  -2   12.88   14.09
  -1   8   2   32.09   14.57
   1  -8  -2   15.42    7.77
  -1  -8   2   33.49   14.31
  -1   8   1    7.46    4.82
   1   8  -1   12.29    7.52
  -1   8   1    9.08   10.12
   1  -8  -1    2.07    5.80
  -1  -8   1   -4.81    8.91
  -1   8   0    5.70    3.30
   1   8   0    3.97   10.23
  -1   8   0    0.41   14.69
   1  -8   0   12.67    6.92
  -1  -8   0    5.49    8.50
  -1   8  -1    9.57   18.16
   1   8   1   12.79   10.14
  -1   8  -1   12.38    6.58
   1  -8   1   11.35    9.30
  -1  -8  -1   12.59    7.02
  -1   8  -2    2.05    4.47
   1   8   2   11.16    8.10
  -1   8  -2    1.27   14.93
   1  -8   2   18.39    7.67
  -1  -8  -2    1.85    4.28
  -1   8  -3   17.24    6.39
   1   8   3    2.60   11.07
  -1   8  -3   -5.76   19.71
   1  -8   3   17.87   10.19
  -1   8  -4   15.45    5.38
   1   8   4    1.08    5.88
  -1   8  -4    8.00   17.38
   1  -8   4   13.16    8.21
  -1   8  -5    6.14    4.50
   1   8   5   12.05    7.95
  -1   8  -5   13.01   12.46
   1  -8   5   -0.51    6.77
   1   8   6    4.32    4.07
  -1   8  -6    3.69    3.47
   1  -8   6   10.64    6.05
   2   0 -15    4.68    6.21
   2   0 -14    1.65    6.49
   2   0 -13   -6.19    6.58
  -2   0  13    2.51    5.40
   2   0 -12   19.62   11.68
  -2   0  12    8.29   10.76
   2   0 -11   16.97    9.37
  -2   0  11    0.60    7.83
   2   0 -10  764.65  101.37
   2   0 -10  626.82  112.94
   2   0  -9  735.11   93.15
   2   0  -9  689.98  106.54
   2   0  -9  795.27  102.76
   2   0  -8  104.44   16.78
   2   0  -8   99.05   19.57
   2   0  -8  134.45   22.36
  -2   0   8   42.94   20.70
  -2   0   8   62.35   15.09
   2   0  -7  160.78   20.49
   2   0  -7  110.16   16.36
   2   0  -7  109.73   16.63
  -2   0   7   83.61   19.64
  -2   0   7   66.71   14.73
  -2   0   7   87.90   17.40
   2   0  -6    6.67    4.34
   2   0  -6   14.09    5.05
   2   0  -6    5.62    3.41
   2   0  -6   11.34    5.57
  -2   0   6    3.83    4.36
  -2   0   6    3.94    5.37
  -2   0   6    2.69    3.06
  -2   0   6    9.60    7.19
   2   0  -5   13.96    5.82
   2   0  -5   10.85    4.32
   2   0  -5   14.00    3.40
   2   0  -5   12.79    5.77
  -2   0   5    7.21    3.31
  -2   0   5   11.49    7.92
  -2   0   5    6.73    4.28
  -2   0   5    8.69    6.54
   2   0  -4    2.91    3.51
   2   0  -4    2.70    5.22
   2   0  -4    2.84    2.57
   2   0  -4    6.04    3.56
  -2   0   4    1.38    3.08
  -2   0   4    2.60    3.69
  -2   0   4    0.20    2.46
  -2   0   4    3.06    4.86
   2   0  -3   44.87   11.39
   2   0  -3   40.22    6.75
   2   0  -3   40.38   10.63
   2   0  -3   46.31    7.21
  -2   0   3   39.25   11.52
  -2   0   3   39.06   16.10
  -2   0   3   25.49   11.08
   2   0  -2   14.86    5.90
   2   0  -2   16.82    7.90
   2   0  -2   12.13    5.24
   2   0  -2   12.45    6.61
  -2   0   2   14.02    6.59
  -2   0   2   20.35    9.68
   2   0  -1  274.04   24.40
   2   0  -1  223.11   31.11
   2   0  -1  285.72   18.26
   2   0  -1  226.82   16.63
   2   0  -1  275.24   36.23
  -2   0   1  280.60   22.90
  -2   0   1  247.57   34.43
  -2   0   1  242.57   16.73
  -2   0   1  299.87   37.54
   2   0   0  481.04   54.50
   2   0   0  382.90   50.35
   2   0   0  510.77   51.80
   2   0   0  453.15   58.19
  -2   0   0  524.32   41.91
  -2   0   0  545.88   58.56
  -2   0   0  455.09   30.53
  -2   0   0  449.72   30.91
  -2   0   0  508.72   34.89
  -2   0   0  481.42   56.68
   2   0   1  198.62   25.13
   2   0   1  202.30   37.03
   2   0   1  302.36   37.89
   2   0   1  171.22   28.41
  -2   0  -1  210.47   12.69
  -2   0  -1  211.85   19.36
  -2   0  -1  214.12   26.12
  -2   0  -1  247.55   31.55
  -2   0  -1  145.45   22.52
   2   0   2  428.14   48.95
   2   0   2  396.54   49.26
   2   0   2  594.75   69.21
   2   0   2  398.77   35.17
   2   0   2  399.88   54.54
  -2   0  -2  449.85   26.06
  -2   0  -2  475.42   45.81
  -2   0  -2  438.68   38.64
  -2   0  -2  459.81   38.80
   2   0   3  400.78   51.22
   2   0   3  344.82   47.03
   2   0   3  391.95   52.10
   2   0   3  654.89   57.45
   2   0   3  463.87   33.70
  -2   0  -3  505.78   46.55
  -2   0  -3  503.31   43.75
  -2   0  -3  590.75   50.97
  -2   0  -3  533.73   27.85
  -2   0  -3  587.41   42.48
   2   0   4   91.01   20.38
   2   0   4  196.88   41.30
   2   0   4  163.91   15.65
   2   0   4   85.57   18.06
   2   0   4  135.49   27.18
  -2   0  -4  218.04   23.50
  -2   0  -4  192.34   20.91
  -2   0  -4  179.49   11.18
  -2   0  -4  151.12   19.80
  -2   0  -4  176.40   20.40
   2   0   5  192.34   39.32
   2   0   5  279.99   62.33
   2   0   5  251.42   19.28
   2   0   5  221.99   50.18
  -2   0  -5  287.34   31.64
  -2   0  -5  262.51   16.93
  -2   0  -5  271.74   21.20
  -2   0  -5  209.53   17.86
  -2   0  -5  250.55   30.68
   2   0   6   89.33   20.66
   2   0   6   74.50   22.41
   2   0   6   46.10   16.21
   2   0   6   80.64   10.25
  -2   0  -6   96.35   15.51
  -2   0  -6   74.72   15.11
  -2   0  -6   88.67   16.18
  -2   0  -6   93.56    8.85
   2   0   7    7.29   17.21
   2   0   7   13.13   12.14
   2   0   7   12.67   11.99
   2   0   7   13.30    5.16
  -2   0  -7   17.83    7.88
  -2   0  -7   17.53    7.10
  -2   0  -7   13.80    5.19
  -2   0  -7   10.32    7.74
   2   0   8   -1.54    7.08
   2   0   8    2.17    3.00
  -2   0  -8    1.13    3.86
  -2   0  -8   -3.62    4.62
  -2   0  -8   -0.31    4.63
   2   0   9  -12.74   18.71
  -2   0  -9   36.44   14.48
  -2   0  -9   58.13   15.42
  -2   0  -9   21.46    7.38
   2   0  10   18.57   13.18
  -2   0 -10   37.52   13.11
  -2   0 -10   39.56   13.31
  -2   0 -10   28.93    8.68
   2   0  11    4.09   13.11
  -2   0 -11    8.20    7.35
   2   0  12   24.41   17.67
  -2   0 -12   20.72   11.68
   2   0  13    1.91   10.93
  -2   0 -13    3.95    4.73
   2   0  14  -10.24   14.03
   2   1 -15   21.85    9.50
   2  -1 -15   24.95   10.64
   2   1 -14   11.04    9.40
   2  -1 -14   27.65    9.93
  -2  -1  14    0.05    8.59
   2   1 -13    0.86    4.57
   2  -1 -13    2.07    8.16
  -2  -1  13   11.66    7.99
   2   1 -12   14.37    5.94
   2  -1 -12    1.59   11.34
   2  -1 -12    6.14    7.40
  -2  -1  12    9.54   10.02
   2   1 -11    4.40    9.29
   2   1 -11    1.87   13.13
   2  -1 -11    0.66    9.39
   2  -1 -11   11.12    6.15
   2   1 -10    7.07    8.02
   2   1 -10    6.87    9.62
   2  -1 -10   -1.09    7.09
   2  -1 -10    6.31    8.85
   2   1  -9   44.29   18.46
   2   1  -9   41.32   17.35
   2  -1  -9   41.92   16.47
   2  -1  -9   31.51   14.13
   2   1  -8   17.86    9.34
   2   1  -8   26.70    8.20
  -2   1   8    0.36    7.21
   2  -1  -8   40.41   11.02
   2  -1  -8   20.78    9.40
   2   1  -7  132.18   15.88
   2   1  -7  130.23   13.80
   2   1  -7  174.04   32.30
  -2   1   7   53.20   22.14
  -2   1   7   85.46   17.92
   2  -1  -7  107.55   19.83
   2  -1  -7  117.52   18.05
  -2  -1   7   66.79   11.90
  -2  -1   7   57.27   14.44
  -2  -1   7   85.96   23.39
   2  -1  -7  150.27   21.91
   2   1  -6   21.83    5.71
   2   1  -6   44.57   14.25
   2   1  -6   25.86    5.73
   2   1  -6    1.36    5.01
  -2   1   6   19.98   12.87
  -2   1   6   18.20    4.39
  -2   1   6    4.63    5.93
   2  -1  -6   24.01    8.45
  -2  -1   6   19.39    8.44
  -2  -1   6   16.99    6.80
  -2  -1   6   11.80    5.30
   2  -1  -6   26.30    8.40
   2  -1  -6   32.19    8.24
  -2  -1   6   16.10    9.39
   2   1  -5  133.66   21.28
   2   1  -5  137.73   12.56
   2   1  -5  124.41   13.93
  -2   1   5   96.23   12.44
   2   1  -5  145.66   14.59
  -2   1   5  108.36   25.28
  -2   1   5   95.59   15.16
   2  -1  -5   99.85   12.28
   2  -1  -5  132.70   13.28
  -2  -1   5  124.93   21.51
   2  -1  -5  139.12   18.44
  -2  -1   5   80.67   10.34
   2  -1  -5   92.38   11.26
  -2  -1   5   92.20   17.85
  -2  -1   5  141.74   21.86
   2   1  -4  645.45   54.85
   2   1  -4  703.08   73.98
   2   1  -4  713.78   53.63
   2   1  -4  729.10   48.24
  -2   1   4  697.83   42.61
  -2   1   4  547.47   48.80
  -2   1   4  530.85   64.55
  -2   1   4  595.43   80.93
   2  -1  -4  586.34   48.20
  -2  -1   4  671.46   60.85
  -2  -1   4  678.49   44.81
   2  -1  -4  707.16   72.86
   2  -1  -4  674.37   45.65
   2  -1  -4  681.69   47.63
  -2  -1   4  797.60   83.29
  -2  -1   4  647.83   70.23
   2   1  -3  385.16   33.27
   2   1  -3  533.83   53.36
   2   1  -3  495.69   39.51
   2   1  -3  487.38   28.32
  -2   1   3  431.96   30.18
  -2   1   3  309.57   40.87
  -2   1   3  388.11   27.38
  -2   1   3  474.51   65.91
   2  -1  -3  468.72   52.41
  -2  -1   3  528.09   54.27
  -2  -1   3  506.61   60.40
   2  -1  -3  407.21   21.57
   2  -1  -3  429.95   40.29
   2  -1  -3  478.12   61.91
  -2  -1   3  492.55   27.31
   2   1  -2   74.73   11.85
   2   1  -2   87.31   16.88
   2   1  -2  111.53   15.40
   2   1  -2  142.33   12.17
  -2   1   2   96.16   23.96
  -2   1   2  127.88   20.30
  -2   1   2   99.16   15.46
  -2  -1   2  115.43   18.27
  -2  -1   2  118.25   26.83
  -2  -1   2  111.07    8.46
   2  -1  -2   87.91   14.66
   2  -1  -2   93.24   19.74
   2  -1  -2    1.12   23.62
   2   1  -1  169.52   23.31
   2   1  -1  199.65   28.02
   2   1  -1  285.35   33.47
  -2   1   1  202.59   35.21
   2   1  -1  174.84   10.01
   2   1  -1  197.04   22.57
  -2   1   1  228.10   25.27
  -2   1   1  250.84   29.14
   2  -1  -1  221.32   23.37
   2  -1  -1  224.62   33.51
   2  -1  -1  177.36   21.64
   2  -1  -1  168.99   47.47
  -2  -1   1  181.59    7.74
  -2  -1   1  150.55   16.78
  -2  -1   1  209.46   45.83
  -2  -1   1  219.41   30.84
   2   1   0  115.82   20.53
   2   1   0  172.59   33.84
   2   1   0   78.17   15.82
   2   1   0  163.34   20.09
  -2   1   0  175.23   15.45
  -2   1   0   96.18   18.11
  -2   1   0  148.09   30.03
  -2   1   0  113.67   13.60
   2  -1   0  100.09    5.71
   2  -1   0  124.41   18.01
   2  -1   0  125.10   37.56
  -2  -1   0  128.72   20.90
   2  -1   0   92.20    7.69
  -2  -1   0  126.97   31.61
   2  -1   0  101.08   18.42
  -2  -1   0   79.50   12.21
   2   1   1   20.70    7.70
  -2   1  -1   19.28    8.78
   2   1   1   19.15    8.96
   2   1   1   31.91   14.07
   2   1   1   29.99    7.86
  -2   1  -1   15.85    9.23
  -2   1  -1    7.62    7.76
  -2   1  -1   15.16    7.18
   2  -1   1   17.90    7.61
   2  -1   1   22.94    8.05
  -2  -1  -1   21.75   10.10
  -2  -1  -1    9.87    4.83
   2  -1   1   27.54    6.37
   2  -1   1   17.45   10.85
   2  -1   1   12.29    4.08
  -2  -1  -1   28.39   13.21
   2   1   2  421.97   67.44
  -2   1  -2  337.24   23.80
   2   1   2  325.02   44.82
  -2   1  -2  402.62   79.37
   2   1   2  200.64   28.86
  -2   1  -2  353.72   32.75
  -2   1  -2  336.80   32.21
   2  -1   2  232.14   23.07
   2  -1   2  291.35   31.79
   2  -1   2  255.66   42.06
   2  -1   2  347.11   36.74
  -2  -1  -2  261.50   26.21
  -2  -1  -2  362.59   54.71
  -2  -1  -2  505.42   64.31
   2  -1   2  257.54   26.31
  -2  -1  -2  388.43   37.06
  -2  -1  -2  348.11   34.93
   2   1   3   73.76    4.20
   2   1   3   53.01   21.62
   2   1   3   87.01   22.78
   2   1   3  103.47   33.87
  -2   1  -3   76.29   11.40
  -2   1  -3   35.46   36.33
  -2   1  -3  101.83   14.22
  -2   1  -3   84.81   12.25
   2  -1   3   68.62   16.67
   2  -1   3   55.20   16.35
   2  -1   3   78.63   16.19
   2  -1   3   77.40    9.81
  -2  -1  -3  104.28   17.40
  -2  -1  -3   75.45   14.36
  -2  -1  -3   92.43   12.87
  -2  -1  -3   85.90    5.31
  -2  -1  -3   88.85   14.31
   2  -1   3   73.98   12.47
   2  -1   3   51.48   12.21
   2   1   4   44.74   16.72
   2   1   4   43.50    4.37
   2   1   4   40.94   13.21
   2   1   4   59.22   30.50
   2   1   4   31.36    8.16
  -2   1  -4   54.16    8.15
  -2   1  -4   64.76   10.01
  -2   1  -4   67.68   15.92
  -2   1  -4   44.69    9.43
  -2   1  -4   59.70    7.97
   2  -1   4   45.64    8.03
   2  -1   4   22.01   11.94
  -2  -1  -4   60.67   12.80
  -2  -1  -4   50.33    4.50
   2  -1   4   15.30   15.00
   2  -1   4    2.18   14.05
  -2  -1  -4   52.79    8.27
  -2  -1  -4   66.55   11.45
   2  -1   4   42.26   17.91
  -2  -1  -4   78.69   14.75
   2   1   5  248.52   17.52
   2   1   5  205.02   27.92
   2   1   5  287.06   77.92
  -2   1  -5  335.83   26.59
  -2   1  -5  242.19   23.91
  -2   1  -5  233.46   22.76
  -2   1  -5  319.47   24.35
   2   1   5  197.37   35.95
  -2   1  -5  301.04   35.29
   2  -1   5  230.89   39.40
   2  -1   5  286.67   25.45
  -2  -1  -5  262.72   34.23
  -2  -1  -5  283.17   18.80
  -2  -1  -5  329.67   23.55
  -2  -1  -5  360.23   41.68
  -2  -1  -5  362.49   26.32
   2  -1   5  212.54   36.89
   2  -1   5  230.39   42.83
   2   1   6  192.66   38.74
   2   1   6  335.98   82.21
   2   1   6  272.02   21.43
  -2   1  -6  324.20   26.27
   2   1   6  216.41   46.15
  -2   1  -6  311.20   26.74
  -2   1  -6  294.13   35.00
  -2   1  -6  269.77   26.96
   2  -1   6  296.15   28.78
   2  -1   6  212.13   42.47
   2  -1   6  181.12   41.26
  -2  -1  -6  307.37   19.18
   2  -1   6  176.12   30.87
  -2  -1  -6  291.65   41.48
  -2  -1  -6  383.62   43.56
  -2  -1  -6  451.72   46.61
  -2   1  -7  298.47   37.90
   2   1   7  226.21   55.27
  -2   1  -7  335.19   27.82
  -2   1  -7  323.47   42.32
  -2   1  -7  331.28   29.11
   2  -1   7  306.36   32.62
  -2  -1  -7  344.60   48.56
  -2  -1  -7  487.35   53.54
   2  -1   7  120.54   46.84
   2  -1   7  240.19   53.73
   2   1   8   88.54   36.84
  -2   1  -8  149.18   17.54
  -2   1  -8  133.31   20.35
  -2   1  -8  128.02   23.64
  -2   1  -8  122.73   19.40
  -2  -1  -8  166.85   27.61
  -2  -1  -8  133.42   29.24
   2  -1   8   76.70   35.51
   2   1   9  124.38   31.54
  -2   1  -9  200.03   21.91
  -2   1  -9  189.32   30.09
  -2  -1  -9  253.49   50.40
   2  -1   9  125.76   46.35
  -2  -1  -9  237.42   33.28
   2   1  10  -14.03   29.85
  -2   1 -10   41.31   18.29
  -2   1 -10   88.92   15.76
  -2  -1 -10  104.39   24.53
   2  -1  10   39.96   29.12
  -2  -1 -10   84.88   18.21
   2   1  11   16.80    9.46
  -2   1 -11    4.64    9.42
  -2   1 -11   -0.10    6.09
  -2  -1 -11   23.18   10.24
   2  -1  11   10.96   13.27
  -2  -1 -11   11.61    9.68
   2   1  12   24.63   16.89
  -2   1 -12   -1.83    8.73
  -2   1 -12    8.69    6.57
  -2  -1 -12    8.65   10.17
   2  -1  12   15.01   13.49
  -2  -1 -12   15.32    7.88
   2   1  13    9.04   13.67
  -2   1 -13    7.23    5.61
  -2   1 -13    2.75    5.28
  -2  -1 -13   11.16    8.44
   2  -1  13    9.32   10.59
  -2  -1 -13    6.21    6.88
   2   1  14   -1.34    7.77
  -2   1 -14    2.55    2.63
   2  -1  14   -7.74    8.52
   2   2 -14   10.39    7.48
   2  -2 -14    6.14    5.08
   2  -2 -14    5.17    8.23
  -2  -2  14   14.59    8.54
   2   2 -13    2.62    6.20
   2  -2 -13    2.36    5.75
   2  -2 -13    0.24    8.36
  -2  -2  13    7.76    7.57
   2   2 -12   22.27   14.75
   2   2 -12    8.87    9.30
   2  -2 -12   13.49   11.28
   2  -2 -12   -1.58   10.58
   2   2 -11   10.16   11.56
   2   2 -11   11.86   11.88
   2  -2 -11    9.80    6.52
   2  -2 -11    7.88   11.31
   2   2 -10  231.86   56.41
   2   2 -10  247.78   37.55
   2  -2 -10  328.32   53.24
   2  -2 -10  233.98   46.52
   2   2  -9  249.49   50.36
   2   2  -9  298.07   38.61
   2  -2  -9  341.01   55.09
   2  -2  -9  265.11   50.51
   2   2  -8   72.12   15.98
   2   2  -8  105.43   37.05
   2  -2  -8   76.10   28.05
   2  -2  -8   88.96   14.68
   2   2  -7  127.60   41.89
   2   2  -7  108.35   16.25
   2   2  -7   78.13   15.09
   2  -2  -7   90.49   28.95
   2  -2  -7  110.32   22.33
  -2  -2   7   70.38   14.55
   2   2  -6   12.48   10.55
   2   2  -6   14.05    5.16
   2   2  -6   15.34    6.30
  -2   2   6   12.30    7.04
  -2   2   6    6.27   10.44
   2  -2  -6   16.60   11.31
  -2  -2   6   10.36    8.13
   2  -2  -6   14.17    8.60
  -2  -2   6   12.34    5.27
  -2  -2   6    9.49   11.43
   2   2  -5    3.78    7.59
   2   2  -5    6.81    3.63
   2   2  -5    5.56    4.63
  -2   2   5    2.65    3.67
  -2   2   5    2.64    9.83
  -2   2   5    1.64    3.09
  -2  -2   5    8.60    7.73
  -2  -2   5    4.88    3.05
   2  -2  -5    3.36    3.06
   2  -2  -5    0.78    7.90
   2  -2  -5    7.24    5.71
   2   2  -4  568.05   73.02
   2   2  -4  486.66   29.97
   2   2  -4  555.34   52.21
  -2   2   4  465.10   45.22
  -2   2   4  445.10   52.10
  -2   2   4  425.45   67.81
  -2  -2   4  539.75   77.82
  -2  -2   4  523.86   33.48
  -2  -2   4  430.27   38.85
   2  -2  -4  464.73   55.68
   2  -2  -4  450.63   53.11
   2  -2  -4  505.76   61.29
   2   2  -3  127.37   24.90
   2   2  -3   95.84    6.93
   2   2  -3   99.23    4.81
   2   2  -3  123.52    7.79
   2   2  -3  146.19   20.07
  -2   2   3   85.96   21.83
  -2   2   3   87.53   23.45
  -2   2   3   91.46   13.04
  -2  -2   3  108.89   10.04
  -2  -2   3  126.60   28.34
   2  -2  -3   94.26   18.80
   2  -2  -3  115.69   22.33
   2  -2  -3  116.81   25.76
   2   2  -2   71.56    4.60
   2   2  -2   78.95   18.30
   2   2  -2   57.88   11.51
   2   2  -2   78.93   14.66
  -2   2   2   65.60   15.15
  -2   2   2   66.49   18.30
  -2   2   2   64.97   12.03
  -2  -2   2   96.11   19.88
  -2  -2   2   71.05    6.41
  -2  -2   2   87.71   10.82
   2  -2  -2   70.05   15.46
   2  -2  -2   68.57   15.99
   2  -2  -2   91.11   20.80
   2   2  -1  277.41   27.55
   2   2  -1  282.88   16.17
   2   2  -1  246.52    9.24
   2   2  -1  311.35   33.71
  -2   2   1  290.14   36.45
  -2   2   1  264.43   34.49
   2   2  -1  238.43   10.42
  -2   2   1  281.42   45.86
  -2   2   1  257.33   36.20
  -2  -2   1  315.95   30.17
  -2  -2   1  297.38   36.29
   2  -2  -1  216.05   31.45
   2  -2  -1  243.35   33.14
   2   2   0  114.07   24.17
   2   2   0  123.08   12.97
   2   2   0  118.02   16.67
  -2   2   0  112.50   19.27
  -2   2   0  141.75   22.64
  -2   2   0  122.86   20.29
  -2   2   0  129.82   17.64
  -2  -2   0  129.46   21.97
  -2  -2   0   63.61   11.42
   2  -2   0  132.46   18.98
   2  -2   0   94.40   11.52
  -2  -2   0  141.16   16.88
  -2  -2   0  120.14   12.78
   2   2   1  386.73   53.28
   2   2   1  376.97   27.14
   2   2   1  338.30   31.68
  -2   2  -1  347.68   44.23
  -2   2  -1  421.44   64.78
  -2   2  -1  313.12   38.35
  -2   2  -1  341.56   34.11
  -2  -2  -1  200.99   30.25
  -2  -2  -1  375.13   41.28
   2  -2   1  279.47   30.91
   2  -2   1  333.48   43.30
   2  -2   1  256.31   37.35
  -2  -2  -1  363.13   22.44
  -2  -2  -1  415.13   51.82
   2   2   2    5.73    8.06
   2   2   2   13.38    4.53
   2   2   2    5.73    4.08
  -2   2  -2   -3.73   11.69
  -2   2  -2    8.74    4.59
  -2   2  -2   16.72    8.88
  -2   2  -2    3.38    4.99
   2  -2   2    4.12    5.94
   2  -2   2    7.40    4.85
   2  -2   2   11.31    4.07
  -2  -2  -2    6.27    5.60
  -2  -2  -2    8.79    6.92
   2  -2   2    7.81    3.81
   2  -2   2    5.18    3.96
  -2  -2  -2    6.05    5.87
  -2  -2  -2    7.67    9.22
   2   2   3  354.17   35.35
   2   2   3  380.29   33.56
   2   2   3  322.18   26.96
  -2   2  -3  354.14   80.58
  -2   2  -3  325.36   27.66
  -2   2  -3  310.38   24.05
  -2   2  -3  260.58   23.66
   2  -2   3  278.43   26.28
   2  -2   3  188.76   32.55
  -2  -2  -3  345.57   38.42
  -2  -2  -3  428.43   52.10
   2  -2   3  359.90   29.82
   2  -2   3  249.69   32.96
   2  -2   3  366.07   47.63
  -2  -2  -3  362.32   41.98
  -2  -2  -3  190.65   28.56
   2   2   4  200.75   26.52
   2   2   4  254.13   51.70
   2   2   4  292.22   34.97
   2   2   4  209.76   18.10
  -2   2  -4  207.14   22.08
  -2   2  -4  222.70   16.80
  -2   2  -4  174.47   17.09
  -2   2  -4  196.30   17.80
  -2   2  -4  209.37   45.08
   2  -2   4  160.85   22.36
  -2  -2  -4  218.06   19.79
   2  -2   4  138.33   23.05
   2  -2   4  236.06   39.01
   2  -2   4  236.15   27.11
  -2  -2  -4  251.68   32.42
  -2  -2  -4  209.38   30.86
  -2  -2  -4  177.71   16.27
   2   2   5  120.11   35.95
   2   2   5  110.32   27.85
   2   2   5  153.44   57.73
  -2   2  -5  144.49   16.17
  -2   2  -5   57.73   56.26
  -2   2  -5  145.81   17.87
  -2   2  -5  154.72   20.46
  -2  -2  -5  149.04   13.98
  -2  -2  -5  139.34   28.24
   2  -2   5   96.56   19.63
   2  -2   5  131.51   19.08
   2  -2   5   95.96   19.69
   2  -2   5  141.65   31.24
  -2  -2  -5  157.71   27.08
   2   2   6  127.57   38.05
   2   2   6  113.81   27.77
   2   2   6  219.90   65.09
  -2   2  -6  175.97   29.97
  -2   2  -6  149.57   17.01
   2  -2   6   36.37   21.78
   2  -2   6   81.52   21.66
   2  -2   6  132.69   19.67
  -2  -2  -6  164.25   26.51
  -2  -2  -6  156.75   21.98
  -2  -2  -6  148.19   28.73
   2  -2   6  110.38   20.16
   2  -2   6  117.73   29.86
   2   2   7   92.61   38.09
  -2   2  -7  102.95   16.20
  -2   2  -7  100.67   20.90
  -2  -2  -7  103.49   28.65
   2  -2   7   88.84   39.27
  -2  -2  -7  160.77   28.05
   2   2   8  110.72   45.72
  -2   2  -8  102.74   22.24
  -2   2  -8  123.36   17.71
  -2  -2  -8  181.63   32.38
   2  -2   8   71.50   40.44
  -2  -2  -8  169.78   28.65
   2   2   9   18.04   24.63
  -2   2  -9   28.86   11.47
  -2   2  -9   38.42   10.54
  -2  -2  -9   35.32   19.17
   2  -2   9    9.57   17.99
  -2  -2  -9   30.94   16.05
   2   2  10   29.73   23.19
  -2   2 -10   26.80    8.37
  -2   2 -10   13.48   10.21
  -2  -2 -10   35.90   16.76
   2  -2  10   10.45   16.53
  -2  -2 -10   27.85   12.92
   2   2  11   24.55   18.36
  -2   2 -11   14.06    8.89
  -2   2 -11   18.14    8.35
  -2  -2 -11   15.37   14.52
   2  -2  11   32.33   14.88
  -2  -2 -11    1.73   10.24
   2   2  12   15.74   18.00
  -2   2 -12   29.59    8.03
  -2   2 -12    1.12    7.99
  -2  -2 -12   24.93   14.66
   2  -2  12   26.06   14.72
  -2  -2 -12   19.54   11.58
   2   2  13   -3.80   12.71
  -2   2 -13    3.72    7.87
  -2  -2 -13   23.58    9.31
  -2  -2 -13   15.73    7.47
   2  -2  13   -3.29   11.00
   2   2  14    3.75   10.12
  -2   2 -14   15.01    4.38
   2  -2  14   -2.47   10.35
  -2  -2 -14   15.65    7.09
   2   3 -14   10.63    4.88
  -2   3  14    2.13    4.25
   2  -3 -14    5.99    5.04
  -2  -3  14   -8.64    7.15
   2   3 -13    5.78    6.36
   2  -3 -13   13.36    7.61
   2  -3 -13   -0.76    9.07
  -2  -3  13    6.41    9.10
   2   3 -12    3.27    7.02
   2   3 -12    3.04   11.70
   2  -3 -12    8.86   10.09
   2  -3 -12    1.73    8.62
   2   3 -11   11.37   11.15
   2   3 -11   22.04    9.35
   2  -3 -11    1.31    9.67
   2  -3 -11   -2.42    6.01
   2   3 -10    8.30    6.18
   2   3 -10    3.56    6.49
   2  -3 -10    5.06    9.74
   2  -3 -10    3.03   10.72
   2   3  -9    8.92   10.37
   2   3  -9    5.71    6.38
   2  -3  -9    5.02   10.82
   2  -3  -9    9.84   10.32
   2   3  -8   13.97   13.18
   2   3  -8   17.08    8.72
   2  -3  -8   24.77   14.13
   2  -3  -8   23.59   14.27
   2   3  -7  139.30   40.78
   2   3  -7   48.90    9.71
   2   3  -7   47.68   17.24
   2  -3  -7   80.67   21.79
   2  -3  -7   79.15   26.66
   2   3  -6   33.76   16.90
   2   3  -6   15.73   14.38
   2   3  -6   46.66    7.74
   2  -3  -6   45.60   15.87
   2  -3  -6   47.17   20.61
  -2  -3   6   35.07    9.56
   2   3  -5   93.57   29.24
   2   3  -5   87.35    9.43
   2   3  -5   74.41   17.92
  -2   3   5   57.21   22.15
  -2   3   5   75.12   15.34
  -2   3   5   81.05   15.04
  -2  -3   5   88.41   11.89
   2  -3  -5   74.73   20.94
  -2  -3   5   89.49   31.16
   2  -3  -5   86.13   21.76
   2   3  -4  575.49   84.06
   2   3  -4  526.18   32.56
   2   3  -4  522.84   67.49
  -2   3   4  488.00   81.15
  -2   3   4  495.33   54.07
  -2   3   4  479.28   54.69
   2  -3  -4  444.46   47.44
  -2  -3   4  540.27   61.79
  -2  -3   4  491.88   38.23
   2  -3  -4  446.80   44.33
   2  -3  -4  506.24   45.35
   2  -3  -4  480.90   67.72
   2   3  -3  275.95   43.34
   2   3  -3  215.57   17.50
   2   3  -3  200.93   14.48
   2   3  -3  275.40   39.20
  -2   3   3  228.44   29.31
  -2   3   3  184.10   34.51
  -2   3   3  219.80   29.89
   2   3  -3  217.49   14.52
  -2  -3   3  259.71   28.97
  -2  -3   3  227.44   16.77
   2  -3  -3  228.70   25.13
   2  -3  -3  240.79   33.44
   2  -3  -3  156.24   22.33
   2   3  -2  205.56   33.37
   2   3  -2  191.31   12.84
   2   3  -2  183.03   20.35
   2   3  -2  165.77    8.34
   2   3  -2  203.92   30.72
  -2   3   2  162.43   17.35
  -2   3   2  139.66   27.23
   2   3  -2  170.99   11.88
  -2   3   2  159.48   24.43
  -2   3   2  111.19   23.57
  -2   3   2  207.82   32.13
   2  -3  -2  143.40   13.93
   2  -3  -2  230.31   32.81
  -2  -3   2  201.42   14.56
  -2  -3   2  235.44   40.73
  -2  -3   2  203.22   28.96
   2   3  -1   83.43    8.82
   2   3  -1   98.04   23.93
   2   3  -1  100.79   19.72
  -2   3   1   84.77   17.82
  -2   3   1   77.75   11.62
  -2   3   1   55.77   15.08
  -2   3   1   72.24   16.69
  -2  -3   1   72.55   13.37
  -2  -3   1   94.48   17.31
   2  -3  -1   67.54   14.60
   2  -3  -1   61.22   14.98
  -2  -3   1   88.92    8.73
  -2  -3   1  120.89   27.94
   2   3   0  209.30   18.61
   2   3   0  232.08   40.82
   2   3   0  223.34   30.85
  -2   3   0  152.56   24.60
  -2   3   0  212.69   28.38
  -2   3   0  191.38   38.40
  -2   3   0  196.27   21.56
  -2  -3   0  159.33   27.32
  -2  -3   0  196.22   17.40
   2  -3   0  148.42   25.26
   2  -3   0  190.01   24.76
  -2  -3   0  242.85   40.49
  -2  -3   0  193.36   26.87
   2   3   1  121.51   13.21
   2   3   1  123.03   27.07
   2   3   1  121.66   19.21
  -2   3  -1  112.85   14.87
  -2   3  -1  107.31   19.25
  -2   3  -1   96.27   14.90
  -2   3  -1   83.43   15.21
   2  -3   1   75.28   16.54
  -2  -3  -1  112.73   17.69
  -2  -3  -1   94.38   13.71
   2  -3   1   87.51   20.60
  -2  -3  -1  124.55   16.55
  -2  -3  -1   63.56   16.85
   2   3   2  910.61  113.45
   2   3   2  794.20   64.44
   2   3   2  828.98   74.79
  -2   3  -2  797.52   56.82
  -2   3  -2  934.83  137.51
  -2   3  -2  541.02   62.84
  -2   3  -2  730.70   72.12
  -2  -3  -2  593.50   89.12
  -2  -3  -2  786.15   75.62
   2  -3   2  689.99   82.55
   2  -3   2  725.11   73.86
   2  -3   2  701.78   59.89
  -2  -3  -2  743.87   68.51
  -2  -3  -2 1015.09  107.80
   2   3   3    0.09    6.81
   2   3   3   -0.42    3.69
   2   3   3    0.25    3.41
  -2   3  -3    3.34    9.09
  -2   3  -3    1.12    3.53
  -2   3  -3   -0.99    2.36
  -2  -3  -3    4.96    5.61
  -2  -3  -3    1.43    4.02
  -2  -3  -3    3.55    9.17
   2  -3   3    2.03    4.18
   2  -3   3    1.17    4.75
  -2  -3  -3    1.63    4.35
   2   3   4   72.31   15.25
   2   3   4   51.08   21.94
   2   3   4   66.86   11.39
   2   3   4   56.00   30.52
  -2   3  -4   71.60   13.41
  -2   3  -4   51.06   36.58
  -2   3  -4   77.94   13.51
  -2  -3  -4   46.52   14.81
  -2  -3  -4   59.79   14.30
  -2  -3  -4   86.71   17.66
   2  -3   4   35.81    9.31
   2  -3   4   78.87   25.21
   2  -3   4   45.21   13.59
  -2   3  -5   43.74   44.65
  -2   3  -5   95.21   14.64
  -2   3  -5   95.30   17.09
   2   3   5   53.23   22.91
  -2  -3  -5   85.03   16.29
   2  -3   5   46.61   13.88
   2  -3   5   53.14   11.39
   2  -3   5   32.52   11.03
   2   3   6   80.81   36.05
  -2   3  -6  127.53   17.96
  -2   3  -6   42.17   59.86
   2  -3   6   73.95   18.03
  -2  -3  -6  138.59   29.98
   2  -3   6   82.05   18.26
  -2  -3  -6  145.15   16.07
   2   3   7   55.60   30.93
  -2   3  -7  112.93   16.83
  -2   3  -7  105.60   25.04
   2  -3   7   16.35   18.52
  -2  -3  -7  130.29   21.57
   2  -3   7   42.41   14.85
  -2  -3  -7  134.41   35.39
   2   3   8   12.69   18.74
  -2   3  -8   15.17   10.18
  -2   3  -8   25.51    9.85
   2  -3   8   12.96   18.66
  -2  -3  -8   28.82   17.81
  -2  -3  -8   38.07   19.47
   2   3   9   53.14   47.79
  -2   3  -9  121.00   23.17
  -2   3  -9  149.94   22.77
  -2  -3  -9  162.04   44.85
   2  -3   9   59.02   41.07
  -2  -3  -9  250.58   32.08
   2   3  10   -0.09   22.58
  -2   3 -10   31.16   11.18
  -2   3 -10   29.23   11.10
  -2  -3 -10   32.96   20.66
   2  -3  10   37.87   17.56
  -2  -3 -10   33.18   17.04
   2   3  11    8.13   17.24
  -2   3 -11   21.96    7.97
  -2   3 -11   21.46    8.02
  -2  -3 -11   24.04   17.50
   2  -3  11   16.27   14.65
  -2  -3 -11   19.42   13.63
   2   3  12    2.58    9.78
  -2   3 -12   -6.56    5.31
  -2   3 -12    8.41    5.38
  -2  -3 -12    7.72   12.30
   2  -3  12    8.54    8.43
  -2  -3 -12   16.65    8.46
   2   3  13   -0.47   11.16
  -2   3 -13    8.54    5.60
  -2  -3 -13   19.47    9.99
  -2  -3 -13   12.91    7.00
   2  -3  13    7.36    8.69
   2   4 -13    2.02    4.41
  -2   4  13    4.23    7.31
   2  -4 -13   10.16    7.70
  -2  -4  13    8.39    7.70
   2   4 -12   22.24    8.51
   2   4 -12    9.30   18.38
  -2   4  12   14.00    8.43
   2  -4 -12   30.03   16.58
   2   4 -11   29.92   17.43
   2   4 -11   36.33   12.04
   2  -4 -11   -0.98   10.14
   2  -4 -11   48.12   19.09
   2   4 -10   12.48    7.05
   2   4 -10   -0.83   13.20
   2  -4 -10    0.64   14.55
   2  -4 -10   21.34    8.36
   2   4  -9   11.56   14.26
   2   4  -9    9.21    7.32
   2  -4  -9   22.46   14.36
   2  -4  -9   32.17   14.23
   2   4  -8   30.18   16.82
   2   4  -8   16.29    9.24
   2  -4  -8   35.63   17.38
   2  -4  -8   45.46   16.91
  -2  -4   8   26.82   15.84
   2   4  -7   13.13    5.77
   2   4  -7   52.11   28.80
   2  -4  -7   29.15   16.60
   2  -4  -7   28.14   14.28
  -2  -4   7   27.50   11.90
   2   4  -6   18.44   14.37
   2   4  -6   17.46    5.49
  -2   4   6   12.23    9.02
   2  -4  -6   51.05   12.51
  -2  -4   6    7.16    7.00
   2  -4  -6   32.72   15.33
   2   4  -5    3.00    5.68
   2   4  -5    3.88    6.91
  -2   4   5    1.49    4.63
  -2   4   5   -0.26    5.15
   2  -4  -5    0.51    6.21
   2   4  -4   37.53   17.93
   2   4  -4   46.03   17.78
  -2   4   4   49.37   17.92
  -2   4   4   42.22   13.93
   2  -4  -4   48.57   14.26
   2  -4  -4   29.53    9.12
   2  -4  -4   32.46   11.54
   2   4  -3   44.76   21.82
   2   4  -3   47.89   11.61
  -2   4   3   53.41    9.80
  -2   4   3   27.51   12.97
  -2   4   3   46.92   15.52
   2  -4  -3   37.36   13.05
   2  -4  -3   33.67   10.43
   2  -4  -3   38.24   10.69
   2   4  -2   56.65   21.08
   2   4  -2   42.16    6.54
   2   4  -2   44.95    9.84
   2   4  -2   60.00   19.53
  -2   4   2   49.52    9.46
  -2   4   2   31.35   12.03
  -2   4   2   58.65   10.20
   2  -4  -2   42.70   14.13
   2  -4  -2   73.77   16.64
   2  -4  -2   33.38   11.84
   2   4  -1  141.71   16.83
   2   4  -1  157.59   33.93
   2   4  -1  127.18   14.11
   2   4  -1  123.54   28.55
  -2   4   1  138.67   27.25
  -2   4   1  114.44   27.49
  -2   4   1  128.45   24.19
  -2   4   1  155.88   26.54
  -2  -4   1  175.45   35.15
  -2  -4   1  138.24   25.79
   2  -4  -1  132.60   27.07
   2  -4  -1  140.37   22.27
   2  -4  -1  103.76   21.73
   2   4   0   28.83   13.79
   2   4   0   16.16    5.84
   2   4   0   19.05   10.11
  -2   4   0   19.67   14.20
  -2   4   0   21.51   10.32
  -2   4   0   23.44   10.60
  -2   4   0   11.72    7.55
  -2  -4   0   15.55    8.90
  -2  -4   0   19.87    9.66
   2  -4   0   12.48    6.58
   2  -4   0   15.86   10.40
   2  -4   0   14.43   11.12
  -2  -4   0   26.61   11.96
   2   4   1  394.77   62.15
   2   4   1  315.37   33.41
   2   4   1  319.61   43.46
  -2   4  -1  359.46   41.93
  -2   4  -1  416.42   50.80
  -2   4  -1  302.54   55.85
  -2   4  -1  286.68   28.15
  -2  -4  -1  314.74   38.52
  -2  -4  -1  215.87   41.25
   2  -4   1  306.95   36.82
   2  -4   1  299.29   31.92
  -2  -4  -1  446.92   59.35
  -2  -4  -1  310.41   39.01
   2   4   2  575.84   82.27
   2   4   2  561.64   55.35
   2   4   2  515.81   67.19
  -2   4  -2  616.57  115.75
  -2   4  -2  568.64   61.45
   2  -4   2  436.03   46.69
  -2  -4  -2  518.15   53.22
  -2  -4  -2  346.14   67.28
  -2  -4  -2  483.10   53.62
   2   4   3  171.17   28.79
   2   4   3  226.27   45.01
  -2   4  -3  212.77   29.27
  -2   4  -3  249.43   64.23
   2  -4   3  169.80   37.00
  -2  -4  -3  125.63   34.79
  -2  -4  -3  198.60   26.83
  -2  -4  -3  211.16   30.48
   2   4   4  147.75   40.03
  -2   4  -4  143.11   25.02
  -2   4  -4  148.13   38.64
  -2  -4  -4  172.39   33.93
   2  -4   4  107.17   28.65
  -2  -4  -4   96.06   30.63
   2   4   5   46.47   24.77
  -2   4  -5   47.44   39.65
  -2   4  -5   72.16   16.14
  -2  -4  -5   56.79   19.78
   2  -4   5   39.08    9.47
  -2  -4  -5   57.03   20.06
   2   4   6   -2.88   26.08
  -2   4  -6   69.34   14.47
  -2   4  -6   61.18   47.50
  -2  -4  -6   75.64   22.83
   2  -4   6   44.03   15.70
  -2  -4  -6   44.18   21.99
   2   4   7   36.24   32.49
  -2   4  -7   57.76   26.72
  -2   4  -7   81.63   12.44
  -2  -4  -7   79.81   29.51
   2  -4   7   66.85   18.78
  -2  -4  -7  117.08   28.55
   2   4   8   38.54   37.40
  -2   4  -8  109.54   23.00
  -2   4  -8   99.56   23.06
  -2  -4  -8   97.26   35.48
  -2  -4  -8  123.71   33.85
   2   4   9    4.38   17.54
  -2   4  -9   14.47    8.94
  -2   4  -9   31.15    9.01
  -2  -4  -9   17.91   17.71
   2  -4   9   12.00   11.38
  -2  -4  -9   11.09   15.07
   2   4  10    7.66   14.98
  -2   4 -10   14.22    7.37
  -2   4 -10   19.07    8.33
  -2  -4 -10   17.87   14.26
   2  -4  10   -0.76    9.81
  -2  -4 -10   22.44   16.81
   2   4  11   16.14   15.70
  -2   4 -11   31.05    8.08
  -2   4 -11   13.08    6.67
  -2  -4 -11   38.34   21.08
   2  -4  11   13.01   10.77
  -2  -4 -11   14.94   12.88
   2   4  12   -0.37    9.90
  -2   4 -12    5.15    7.06
  -2  -4 -12   37.33   12.20
  -2  -4 -12   37.47    9.50
   2  -4  12   -2.76    7.29
   2   4  13   -0.30    4.48
  -2   4 -13   -0.82    3.20
  -2  -4 -13   -2.47    4.50
   2   5 -12   12.22   17.05
  -2   5  12   17.31    8.77
   2  -5 -12   22.80   12.19
   2   5 -11    2.24    9.07
   2   5 -11    4.06    5.37
  -2   5  11    8.88    7.62
   2  -5 -11   10.30    8.76
   2   5 -10   -3.21    8.18
   2   5 -10   -0.84    3.51
  -2   5  10    8.83    4.18
   2  -5 -10    0.77    6.19
   2   5  -9    6.03    7.03
  -2   5   9   -1.68    5.99
   2  -5  -9   -7.04    8.73
  -2   5   8   -4.47    6.07
   2   5  -8   12.51   12.08
  -2  -5   8    0.47    5.02
   2  -5  -8   -0.14    6.74
   2   5  -7   96.08   38.13
  -2   5   7   23.64   17.37
   2  -5  -7   48.69   18.27
  -2  -5   7   27.33   13.58
  -2   5   6   15.06    9.31
   2   5  -6   14.81   10.26
  -2   5   6   22.76   11.96
  -2  -5   6    6.26    6.77
   2  -5  -6   26.08   11.69
   2   5  -5   48.42   21.26
  -2   5   5   52.67   19.15
  -2   5   5   42.11   16.27
  -2  -5   5   37.37   20.36
   2  -5  -5   40.16   18.18
  -2   5   4  225.58   40.20
   2   5  -4  190.90   44.32
  -2   5   4  170.18   36.85
   2  -5  -4  163.08   29.83
  -2  -5   4  144.36   27.81
   2  -5  -4  242.87   43.77
   2   5  -3  137.16   39.66
  -2   5   3   86.66   26.87
  -2   5   3  120.70   18.40
   2  -5  -3   86.42   19.23
   2  -5  -3  120.41   21.78
   2   5  -2  183.61   40.51
   2   5  -2  118.37   23.08
   2   5  -2  134.97   39.38
  -2   5   2  155.36   29.98
  -2   5   2  100.78   29.61
   2  -5  -2   83.92   23.86
   2  -5  -2  127.50   23.09
   2   5  -1   29.79   12.51
   2   5  -1   52.13   20.88
  -2   5   1   51.25   16.09
   2   5  -1   35.48   20.72
  -2   5   1   35.15   17.54
   2  -5  -1   29.79   12.99
   2   5   0  108.76   34.51
   2   5   0  145.47   36.55
   2   5   0  126.39   36.27
  -2   5   0  144.12   17.96
  -2   5   0  145.38   28.58
   2  -5   0  106.04   31.26
   2   5   1   56.67   18.49
   2   5   1    2.85   10.50
   2   5   1   32.66   15.55
  -2   5  -1   32.73   12.99
  -2   5  -1   32.03   18.62
   2  -5   1   39.86   15.58
  -2   5  -2  236.60   70.92
   2   5   2  225.19   48.01
  -2   5  -2  229.78   36.61
  -2  -5  -2  109.14   39.92
   2  -5   2  177.25   41.46
   2   5   3   -0.09    9.15
  -2   5  -3    5.49   14.20
  -2   5  -3    3.48    6.33
   2  -5   3    1.92    8.17
  -2  -5  -3   -0.35    5.59
  -2  -5  -3    3.62    5.43
  -2  -5  -3    7.82    8.42
   2   5   4   27.19   18.25
  -2   5  -4   36.42   13.60
  -2   5  -4   16.60   20.66
  -2  -5  -4   33.34   12.91
   2  -5   4   21.73   13.93
  -2  -5  -4   19.45   16.30
   2   5   5   21.44   18.15
  -2   5  -5   16.17   34.96
  -2   5  -5   31.05   14.39
  -2  -5  -5   43.39   15.56
   2  -5   5   21.12   14.45
  -2  -5  -5   28.28   10.90
   2   5   6   11.41   18.02
  -2   5  -6   38.89   37.23
  -2   5  -6   32.91   12.20
  -2  -5  -6   36.76   18.53
   2  -5   6   15.33   13.38
  -2  -5  -6   39.82   16.82
   2   5   7    9.25   11.36
  -2   5  -7   11.99    8.37
  -2   5  -7    7.21   10.60
   2  -5   7   -1.61    8.11
  -2  -5  -7    7.52   11.42
  -2  -5  -7   14.82   11.98
   2   5   8   14.31   11.05
  -2   5  -8    7.44    7.39
  -2   5  -8    1.35    7.98
  -2  -5  -8   13.40   12.13
   2  -5   8    7.44    7.95
  -2  -5  -8    2.56   11.44
   2   5   9   22.77   18.76
  -2   5  -9   42.50   12.32
  -2   5  -9   33.13   11.08
  -2  -5  -9   66.93   22.40
  -2  -5  -9   36.07   21.94
   2   5  10   15.08   10.95
  -2   5 -10   10.69    6.20
  -2   5 -10   13.96    7.88
  -2  -5 -10   23.38   16.86
  -2  -5 -10   10.97   12.62
   2   5  11    3.42    7.34
  -2   5 -11    2.90    3.54
  -2   5 -11    8.54    4.88
  -2  -5 -11   21.33    9.34
   2   6 -10   -5.66    5.79
  -2   6  10    6.85    4.10
   2  -6 -10   -7.59    5.27
   2   6  -9   19.02    9.74
  -2   6   9    9.97    8.19
   2  -6  -9    2.21    8.70
  -2   6   8   12.03    9.29
   2   6  -8    8.53   11.23
  -2  -6   8   10.09    4.64
   2  -6  -8   20.16    9.89
   2   6  -7   10.40   10.23
  -2   6   7   14.42    9.17
   2  -6  -7    5.21    9.01
  -2  -6   7    4.81    8.54
   2   6  -6   53.39   18.88
  -2   6   6   21.38   11.91
  -2   6   6   22.37   14.33
  -2  -6   6   10.38   16.15
   2  -6  -6   32.75   12.54
   2   6  -5   11.31   14.63
  -2   6   5   10.35    9.90
  -2   6   5   24.83   10.62
  -2  -6   5   -3.21   17.45
   2  -6  -5    7.19    8.66
  -2   6   4   22.56   14.86
   2   6  -4   27.98   16.40
  -2   6   4   27.97   14.73
  -2  -6   4   35.63   24.39
   2  -6  -4   25.91   11.90
   2   6  -3    4.25   11.26
  -2   6   3    7.88    6.17
  -2   6   3    9.12   10.72
  -2  -6   3   17.78   10.76
   2  -6  -3    5.05    7.17
  -2   6   2   23.31   19.14
   2   6  -2   20.48   18.57
  -2   6   2   22.23   12.06
  -2  -6   2   23.84    8.66
   2  -6  -2   14.35   10.85
   2   6  -1   40.62   23.20
   2   6  -1   31.70   15.46
  -2   6   1   39.96   27.40
  -2   6   1   51.98   16.23
  -2  -6   1   55.36   17.93
   2  -6  -1   32.63   15.48
   2   6   0   30.36   17.42
   2   6   0   20.82   13.27
  -2   6   0   24.94   18.41
  -2   6   0   19.26   13.61
  -2  -6   0   25.44    8.41
   2  -6   0   23.65   13.53
   2   6   1  174.50   37.19
   2   6   1  139.49   38.61
  -2   6  -1  163.71   29.47
  -2   6  -1  191.16   64.65
  -2  -6  -1  130.15   31.15
   2  -6   1  127.45   21.28
   2   6   2  237.54   57.77
  -2   6  -2  309.78   46.58
   2   6   2  271.58   54.22
  -2   6  -2  316.04   99.56
   2  -6   2  206.19   51.26
  -2  -6  -2  334.31   61.23
  -2   6  -3   77.85   55.96
   2   6   3   67.12   31.69
   2   6   3  127.10   25.70
  -2   6  -3  129.21   26.95
   2  -6   3   84.27   19.08
  -2  -6  -3  104.95   21.57
  -2   6  -4   38.31   43.76
   2   6   4   42.14   23.20
   2   6   4   52.50   18.48
  -2   6  -4   57.12   11.86
   2  -6   4   28.72   20.67
  -2   6  -5   21.56   11.42
   2   6   5   20.44   13.79
   2   6   5   10.54   11.43
  -2   6  -5   -4.26   30.86
   2  -6   5   10.68   11.74
  -2   6  -6    7.29   10.02
   2   6   6   17.53   12.32
   2   6   6   -3.38   10.58
  -2   6  -6   22.05   26.06
   2  -6   6   25.09   10.14
  -2  -6  -6   14.22   12.71
  -2   6  -7    9.61    7.28
   2   6   7    6.87    9.03
   2   6   7    8.88    7.98
  -2   6  -7    6.07    8.64
   2  -6   7   -2.26    7.46
  -2  -6  -7    1.48   10.47
  -2   6  -8    6.70    7.50
   2   6   8    7.73    8.33
   2   6   8   -8.68    8.79
  -2   6  -8   -0.29    6.28
   2  -6   8   16.86    7.54
  -2  -6  -8   17.36    5.59
   2   6   9   -3.27    5.24
   2   6   9    0.47    5.38
  -2   6  -9    0.61    3.39
  -2   6  -9    2.41    4.54
  -2  -6  -9    7.72    4.70
   2   6  10    0.59    8.10
  -2   6 -10    6.58    5.14
  -2  -6 -10    8.10    7.72
   2   7  -8   -4.60    6.29
  -2   7   8    5.62    4.76
   2  -7  -8    8.06    3.84
  -2   7   7    9.61    8.34
   2   7  -7    6.91    8.17
  -2   7   7    7.93    6.47
   2  -7  -7   12.20    4.92
  -2  -7   7   10.28    8.83
   2   7  -6   26.79   15.80
  -2   7   6    4.90    8.21
  -2   7   6   24.57    7.70
  -2  -7   6    7.54    5.50
   2   7  -5   63.93   26.58
  -2   7   5   31.47   11.62
  -2   7   5   28.55   14.23
  -2  -7   5   22.64   15.03
   2   7  -4   25.94   16.25
  -2   7   4   32.69   14.54
  -2   7   4   30.32   11.16
  -2  -7   4    9.58   14.69
   2   7  -3   29.88   13.17
  -2   7   3   28.78   11.41
  -2   7   3   26.12   15.33
   2  -7  -3    8.64   10.84
  -2  -7   3   26.80   16.25
  -2   7   2   59.77   26.34
   2   7  -2   76.74   25.86
  -2   7   2   72.15   18.77
   2  -7  -2   61.46   17.60
  -2  -7   2   49.91   24.77
  -2   7   1   29.93   11.99
   2   7  -1   36.80   14.51
   2   7  -1   17.51   11.15
  -2   7   1   28.97   19.53
   2  -7  -1   30.23   14.21
  -2  -7   1   30.26   16.36
  -2   7   0   32.29   13.48
   2   7   0   53.17   15.05
   2   7   0   24.97   13.81
  -2   7   0   41.30   31.67
   2  -7   0   37.24   15.19
  -2  -7   0   23.57   16.64
  -2   7  -1    2.45   15.53
   2   7   1   14.00    8.91
   2   7   1    1.60    8.05
  -2   7  -1    1.24    6.53
   2  -7   1    3.87    7.99
  -2  -7  -1    1.23    6.55
  -2   7  -2    0.50   24.85
   2   7   2   19.23   11.74
   2   7   2   25.75   12.17
  -2   7  -2   24.23    9.66
   2  -7   2   -1.30    7.14
  -2  -7  -2   13.91    7.71
  -2   7  -3    4.82    7.46
   2   7   3   15.32    8.60
   2   7   3    4.20    8.96
  -2   7  -3    0.02   19.31
   2  -7   3   -4.17    9.27
  -2   7  -4   13.91    9.45
   2   7   4    7.41    9.73
   2   7   4    8.94    7.16
  -2   7  -4   24.83   23.05
   2  -7   4   17.04   11.24
  -2   7  -5    6.03    7.51
   2   7   5    1.83    4.85
   2   7   5   24.50   10.26
  -2   7  -5   38.83   20.67
   2  -7   5   18.49   10.21
  -2   7  -6    9.64    7.05
   2   7   6    1.64    8.61
   2   7   6    2.45    9.99
  -2   7  -6   18.54    9.00
   2  -7   6   -0.35   10.04
  -2   7  -7   14.67    6.25
   2   7   7    0.05    4.76
   2   7   7    1.24    8.94
  -2   7  -7   10.36    5.52
   2  -7   7   -4.76   11.97
   2   7   8    2.72    7.93
  -2   7  -8   13.49    5.11
  -2   7  -8    5.17    3.95
  -2   8   5    8.44    4.18
  -2   8   5   11.86    8.53
  -2  -8   5    1.73    7.72
   2   8  -4   54.66   15.03
  -2   8   4   26.95   18.03
  -2   8   4   34.25    8.26
  -2  -8   4   31.47   14.70
   2   8  -3   15.15    5.98
  -2   8   3   17.20   14.16
  -2   8   3   20.37    6.10
  -2  -8   3    1.43    6.69
  -2   8   2   11.68    5.33
   2   8  -2    6.42    9.61
  -2   8   2   -2.57   12.54
   2  -8  -2    3.34    7.93
  -2  -8   2    0.12    8.48
  -2   8   1   18.84    4.86
   2   8  -1   10.84    8.14
  -2   8   1   43.05   17.90
   2  -8  -1   23.38   15.94
  -2  -8   1   -0.01   10.75
  -2   8   0   33.36    9.26
   2   8   0   14.45    9.04
   2   8   0   16.79    8.66
  -2   8   0   54.34   24.30
   2  -8   0   24.86   13.91
  -2  -8   0   28.17   11.36
  -2   8  -1   44.99   10.35
   2   8   1   17.37    7.66
   2   8   1   38.47   13.15
  -2   8  -1   28.92   27.01
   2  -8   1   30.62   16.81
  -2  -8  -1   32.27   10.70
  -2   8  -2   37.69   10.76
   2   8   2   41.72    6.79
   2   8   2   35.83   11.41
  -2   8  -2   51.87   29.22
   2  -8   2   47.34   18.15
  -2  -8  -2   17.31    6.55
  -2   8  -3   22.29   18.10
   2   8   3   25.24   11.31
  -2   8  -3   23.83    8.51
   2  -8   3   42.87   17.30
  -2   8  -4   21.80   22.42
   2   8   4   20.39    9.69
  -2   8  -4   15.96    7.62
   2  -8   4   25.26   13.44
  -2   8  -5   17.06    6.40
   2   8   5    7.60    6.49
  -2   8  -5   -2.01    4.76
   2  -8   5    8.46   12.39
   3   0 -14    5.33    6.41
   3   0 -13   -1.63    5.57
   3   0 -12    7.10    8.28
   3   0 -11   10.75    9.65
   3   0 -10    2.30    6.43
   3   0  -9    2.11    6.56
   3   0  -9    2.77    5.47
   3   0  -8   12.00    9.05
   3   0  -8   20.90    9.53
   3   0  -7   16.76    8.90
   3   0  -7   20.54    9.66
   3   0  -6  121.49   16.19
   3   0  -6  116.52   20.86
   3   0  -6   88.68   11.62
  -3   0   6   79.60   16.57
  -3   0   6   79.90   21.42
   3   0  -5   13.51    7.17
   3   0  -5    7.02    4.80
   3   0  -5   13.61    4.80
   3   0  -5   20.14    5.14
  -3   0   5    3.85    3.32
  -3   0   5   14.52    4.87
  -3   0   5   11.68    7.89
  -3   0   5    9.19    4.67
   3   0  -4  102.40   11.50
   3   0  -4   92.02   16.08
   3   0  -4   74.29   14.23
   3   0  -4  115.94   16.14
  -3   0   4   91.04    8.02
  -3   0   4   88.54   14.66
  -3   0   4   94.46   23.19
  -3   0   4   66.92   15.00
   3   0  -3 2182.06  210.10
   3   0  -3 2310.38  211.75
   3   0  -3 2130.18  217.53
   3   0  -3 2106.16  236.95
  -3   0   3 2274.34  241.66
  -3   0   3 2200.08  231.84
  -3   0   3 2140.56  181.81
  -3   0   3 2313.20  243.96
   3   0  -2  449.35   34.91
   3   0  -2  417.91   47.56
   3   0  -2  428.38   33.71
   3   0  -2  505.83   49.61
  -3   0   2  485.62   33.32
  -3   0   2  505.55   53.01
   3   0  -1  441.00   53.77
   3   0  -1  475.50   34.47
   3   0  -1  428.27   31.68
   3   0  -1  471.80   51.32
  -3   0   1  579.69   69.60
  -3   0   1  467.16   25.73
  -3   0   1  526.51   55.93
  -3   0   1  397.18   23.91
  -3   0   1  552.37   37.33
   3   0   0  146.09   16.12
   3   0   0  149.14   27.61
   3   0   0  142.57   15.34
   3   0   0  162.57   26.60
  -3   0   0  180.14   18.22
  -3   0   0  144.39   15.87
  -3   0   0  166.76   25.05
  -3   0   0  140.41    8.17
  -3   0   0  224.34   22.83
   3   0   1   60.57   13.36
   3   0   1   74.39   16.78
   3   0   1   76.27   14.52
   3   0   1  104.85   15.94
   3   0   1   77.02   17.87
  -3   0  -1  120.53   23.85
  -3   0  -1   76.65   10.45
  -3   0  -1   73.94   15.04
  -3   0  -1   79.27    4.10
   3   0   2    4.72    3.80
   3   0   2    3.62    5.73
   3   0   2    1.07    3.05
   3   0   2    1.84    4.29
   3   0   2    0.70    4.75
  -3   0  -2    0.02    5.25
  -3   0  -2    0.53    4.14
  -3   0  -2    1.82    3.20
  -3   0  -2    0.64    4.25
   3   0   3   18.70    9.34
   3   0   3   12.13    6.88
   3   0   3   26.55   10.48
   3   0   3   24.27    8.72
  -3   0  -3   51.13   12.24
  -3   0  -3   31.61    5.76
  -3   0  -3   21.84    9.66
  -3   0  -3   25.55    4.88
   3   0   4   38.54   21.10
   3   0   4   24.57   11.26
   3   0   4   64.58   11.07
   3   0   4   44.46   12.40
  -3   0  -4   95.53   17.12
  -3   0  -4   74.50   13.24
  -3   0  -4   69.12   13.55
  -3   0  -4   77.04   13.70
   3   0   5   44.38   16.29
   3   0   5   38.41   19.43
   3   0   5   46.17   17.51
   3   0   5   28.26    8.58
  -3   0  -5   27.82    8.51
  -3   0  -5   78.94   15.53
  -3   0  -5   61.80    8.61
  -3   0  -5   50.97   13.48
   3   0   6  118.45   35.22
  -3   0  -6  198.61   30.49
  -3   0  -6  179.54   28.34
   3   0   7  194.55   55.08
  -3   0  -7  343.17   45.79
  -3   0  -7  314.93   43.38
   3   0   8   -2.79   10.43
  -3   0  -8    9.07    8.29
  -3   0  -8    7.00    8.34
   3   0   9   -4.54    7.28
  -3   0  -9    2.67    5.18
  -3   0  -9   -0.56    4.21
   3   0  10  -33.17   41.51
  -3   0 -10  191.61   33.81
  -3   0 -10  172.70   30.85
   3   0  11   21.77   13.24
  -3   0 -11   20.92    7.90
  -3   0 -11   41.52   11.66
   3   0  12   17.05   13.49
  -3   0 -12    8.30    9.77
   3   0  13   12.31    8.90
  -3   0 -13    2.32    3.13
   3   1 -14    1.20    5.99
   3  -1 -14   14.90    6.87
   3   1 -13    7.54    5.48
   3  -1 -13   -5.86    6.98
   3   1 -12    8.29    9.02
   3  -1 -12   17.60   10.95
   3   1 -11    7.58    9.59
   3  -1 -11   16.53    6.57
   3  -1 -11   10.23    9.14
   3   1 -10    0.25    5.69
   3   1 -10    3.17    3.66
   3  -1 -10    2.71    7.12
   3  -1 -10    0.64    6.88
   3   1  -9  338.82   45.46
   3   1  -9  242.49   47.64
   3  -1  -9  306.60   52.69
   3  -1  -9  348.13   52.00
   3   1  -8  172.29   24.40
   3   1  -8  117.46   24.32
   3  -1  -8  154.26   31.45
   3  -1  -8  180.03   30.60
   3   1  -7   64.04   12.25
   3   1  -7   89.69   23.50
   3  -1  -7   57.15   18.94
   3  -1  -7   53.46   16.46
   3   1  -6   80.62   10.60
   3   1  -6  125.26   32.46
   3   1  -6   84.00   13.27
   3   1  -6   63.50   10.98
  -3   1   6   70.94   11.42
   3  -1  -6   44.83    8.26
   3  -1  -6   73.61   14.39
  -3  -1   6   48.06   16.83
  -3  -1   6   83.89   12.74
  -3  -1   6   65.24    8.69
  -3  -1   6    9.43   13.18
   3  -1  -6   67.96   18.77
   3   1  -5   16.78    5.15
   3   1  -5   20.73    6.15
   3   1  -5   17.64    7.23
   3   1  -5   13.50    6.49
  -3   1   5    8.59    7.55
  -3   1   5   17.99   12.63
   3  -1  -5   36.12    7.54
   3  -1  -5   28.77   11.91
  -3  -1   5   13.79    9.15
  -3  -1   5   26.89   10.54
  -3  -1   5   20.95    5.51
  -3  -1   5   17.79    7.97
   3  -1  -5   17.90    5.27
   3   1  -4   12.01    4.81
   3   1  -4    1.02    3.30
   3   1  -4   11.36    5.72
   3   1  -4   17.57    5.59
  -3   1   4    9.22    7.12
  -3   1   4   13.28   10.55
   3  -1  -4   17.27    9.47
  -3  -1   4    5.35    6.80
  -3  -1   4   11.51    9.26
  -3  -1   4   12.41    2.76
  -3  -1   4   17.03    8.55
   3  -1  -4   17.90    5.50
   3  -1  -4   12.69    4.89
   3   1  -3   26.23    8.54
   3   1  -3   18.86    4.13
   3   1  -3   17.28    7.05
   3   1  -3   34.19    7.66
  -3   1   3   31.59   16.36
  -3   1   3   13.38    9.44
   3  -1  -3   24.61    7.98
  -3  -1   3   21.17    8.55
  -3  -1   3   25.54   19.26
   3  -1  -3   25.67   10.91
   3  -1  -3   10.80    6.35
   3   1  -2   13.09    6.04
   3   1  -2   13.89    7.47
   3   1  -2   24.16    6.97
  -3   1   2   12.82    9.27
  -3   1   2   19.73   11.36
  -3   1   2   11.99    4.57
   3  -1  -2   13.64    5.08
  -3  -1   2   16.16   18.11
   3  -1  -2   18.07    9.20
  -3  -1   2   16.92    7.58
   3   1  -1  140.78   22.75
   3   1  -1  151.67   23.59
   3   1  -1  204.12   17.20
   3   1  -1  217.16   24.81
  -3   1   1  238.26   39.31
  -3   1   1  269.04   35.35
  -3   1   1  153.05   16.82
  -3   1   1  205.86   17.11
  -3  -1   1  149.57   12.76
  -3  -1   1  144.90   38.26
   3  -1  -1  198.25   29.59
   3  -1  -1  196.42   21.27
   3  -1  -1  186.57   25.11
  -3  -1   1  229.69   25.32
   3   1   0  130.04   19.77
   3   1   0  186.35   20.31
   3   1   0  168.26   24.77
  -3   1   0  138.57   17.67
  -3   1   0  136.78   17.41
   3   1   0   98.94   19.39
  -3   1   0  155.26   28.63
  -3   1   0  116.51   15.61
  -3  -1   0  152.61   23.00
   3  -1   0  100.71   16.21
   3  -1   0  127.29   37.95
  -3  -1   0  144.32   30.29
   3  -1   0  115.88   24.32
   3   1   1  353.76   51.45
   3   1   1  649.15   65.99
   3   1   1  591.88   60.44
  -3   1  -1  602.13   53.29
  -3   1  -1  480.64   36.61
   3   1   1  499.06   57.87
  -3   1  -1  514.62   54.96
  -3   1  -1  659.03   68.70
   3  -1   1  460.77   42.21
   3  -1   1  348.42   34.89
  -3  -1  -1  587.91   46.78
   3  -1   1  440.63   49.06
   3  -1   1  465.17   88.71
   3  -1   1  511.78   63.10
  -3  -1  -1  552.38   58.44
  -3  -1  -1  610.94   81.02
  -3   1  -2   19.17    9.52
   3   1   2   24.39   12.87
   3   1   2   16.52    8.33
  -3   1  -2   29.90    8.60
   3   1   2   13.34    9.54
  -3   1  -2   17.70    6.69
  -3   1  -2   19.06    3.35
   3  -1   2    7.55    4.31
   3  -1   2   16.85    7.83
   3  -1   2   20.92   14.40
  -3  -1  -2   21.30    5.55
  -3  -1  -2   24.13    7.35
  -3  -1  -2   -0.95    8.80
   3  -1   2   14.53    8.10
  -3  -1  -2   24.64   10.88
  -3  -1  -2   29.64    5.18
   3  -1   2   11.87    6.47
   3   1   3   71.55   19.44
   3   1   3   43.87   18.37
   3   1   3  118.25   28.11
   3   1   3   35.47   13.56
  -3   1  -3   69.98    7.23
  -3   1  -3   61.50   13.28
  -3   1  -3   77.26   14.75
  -3   1  -3  115.61   19.33
   3  -1   3   56.94   14.68
   3  -1   3   63.92   15.14
   3  -1   3   32.84   16.21
  -3  -1  -3   75.91   12.26
  -3  -1  -3   85.06   12.18
   3  -1   3   69.99   16.39
   3  -1   3   67.53   24.45
  -3  -1  -3  100.77   17.96
  -3  -1  -3   80.68   16.09
   3   1   4  155.63   36.67
   3   1   4  167.22   32.39
   3   1   4  254.44   51.39
  -3   1  -4  210.61   28.21
  -3   1  -4  189.43   13.52
  -3   1  -4  178.92   26.82
  -3   1  -4  256.13   28.20
  -3   1  -4  222.46   24.50
   3  -1   4  187.69   33.35
   3  -1   4  123.46   24.47
   3  -1   4  124.59   31.99
  -3  -1  -4  234.38   26.72
   3  -1   4  181.56   39.06
  -3  -1  -4  201.10   21.12
  -3  -1  -4  250.81   33.29
  -3  -1  -4  207.67   31.88
   3   1   5  114.62   35.30
   3   1   5  102.54   25.58
  -3   1  -5  145.35   19.32
  -3   1  -5  148.07   24.32
  -3   1  -5  206.57   24.65
  -3   1  -5  137.36   12.43
  -3   1  -5  175.25   28.37
  -3  -1  -5  166.85   24.81
   3  -1   5   87.81   21.94
   3  -1   5  129.00   28.76
  -3  -1  -5  172.04   29.61
  -3  -1  -5  146.07   18.78
   3   1   6   80.15   33.71
  -3   1  -6  129.79   19.68
  -3   1  -6   74.86   15.41
  -3   1  -6  123.05   23.48
   3  -1   6   73.32   17.07
  -3  -1  -6  188.71   29.58
  -3  -1  -6  113.36   23.62
   3  -1   6   77.29   21.51
   3   1   7   26.75   19.73
  -3   1  -7   29.30    9.91
  -3   1  -7   20.05   12.82
   3  -1   7   11.56   13.14
  -3  -1  -7   29.54   14.74
  -3  -1  -7   45.44   16.53
   3   1   8   22.62   21.46
  -3   1  -8   26.37   13.04
  -3   1  -8   23.29   10.92
  -3  -1  -8   39.03   14.82
   3  -1   8   17.11   14.83
  -3  -1  -8   30.30   15.32
   3   1   9    9.04   16.95
  -3   1  -9   15.93    9.59
   3  -1   9    7.67   12.07
  -3  -1  -9    7.21   11.53
  -3  -1  -9   17.85   10.52
   3   1  10   19.59   24.16
  -3   1 -10   -3.35   14.86
  -3  -1 -10   59.79   19.83
  -3  -1 -10   72.38   19.05
   3  -1  10   46.99   20.40
   3   1  11    8.88   14.42
  -3   1 -11    8.72    8.94
  -3  -1 -11    6.11   10.58
  -3  -1 -11    7.36   10.14
   3  -1  11   14.29   11.54
   3   1  12   11.89   15.89
  -3   1 -12    9.62    8.39
  -3  -1 -12   14.56    9.81
  -3  -1 -12   30.58   10.70
   3  -1  12   15.87   14.35
   3   1  13   18.12   15.02
  -3   1 -13   19.36    9.24
  -3  -1 -13   41.79   13.17
  -3  -1 -13   22.53   10.35
   3  -1  13   10.58   13.35
   3  -2 -14   20.12   11.51
   3   2 -13    3.99    3.49
   3  -2 -13   11.12    4.94
   3  -2 -13   12.07    9.00
   3   2 -12    3.90    7.60
   3   2 -12    9.22   11.46
   3  -2 -12   15.80    9.18
   3  -2 -12   19.74   10.46
   3   2 -11   11.80    9.06
   3   2 -11   12.08    7.00
   3  -2 -11   10.66   10.77
   3  -2 -11   -5.17   10.39
   3   2 -10   21.41    9.93
   3   2 -10   27.60   15.27
   3  -2 -10   26.08   14.92
   3  -2 -10   35.48   16.28
   3   2  -9   93.28   25.37
   3   2  -9   99.80   19.18
   3  -2  -9  106.99   30.42
   3  -2  -9  127.46   19.89
   3   2  -8   68.75   14.35
   3   2  -8  102.88   34.04
   3  -2  -8   66.86   24.20
   3  -2  -8   71.09   14.64
   3   2  -7    9.65    9.93
   3   2  -7   41.90   21.26
   3  -2  -7   25.22   13.84
   3  -2  -7   29.21   12.45
   3   2  -6   58.77   18.34
   3   2  -6   58.44   13.58
   3  -2  -6   58.06   18.55
   3  -2  -6    8.58   15.71
   3   2  -5   47.30   16.04
   3   2  -5   68.02   12.32
  -3   2   5   16.33    9.86
   3  -2  -5   47.21   16.90
   3  -2  -5   48.28   12.72
  -3  -2   5   41.55    9.79
  -3  -2   5   59.70   22.36
   3  -2  -5   33.35    8.75
   3   2  -4  107.07   23.46
   3   2  -4  126.06   20.05
  -3   2   4   83.59   27.42
   3   2  -4   58.78   10.00
   3  -2  -4  120.61   18.79
   3  -2  -4   87.29   17.72
  -3  -2   4  122.98   36.33
  -3  -2   4  107.77   17.71
   3  -2  -4  124.12   24.66
  -3  -2   4  104.48   24.46
   3   2  -3  794.90   87.10
   3   2  -3  442.24   45.69
   3   2  -3  852.00   78.90
  -3   2   3  604.46   67.57
   3  -2  -3  907.41  102.12
   3  -2  -3  810.57   60.55
  -3  -2   3  835.73   95.95
  -3  -2   3  794.51  126.35
   3  -2  -3  651.44   85.90
   3   2  -2  290.93   36.69
   3   2  -2  223.20   27.00
   3   2  -2  303.22   33.16
  -3   2   2  251.90   50.35
  -3   2   2  262.70   47.96
  -3   2   2  145.60   31.27
  -3   2   2  314.40   33.82
  -3  -2   2  311.18   67.51
  -3  -2   2  370.50   48.66
   3  -2  -2  318.05   30.12
   3  -2  -2  225.85   53.67
   3   2  -1  359.23   43.47
   3   2  -1  311.73   45.06
   3   2  -1  327.29   36.34
  -3   2   1  362.48   59.87
  -3   2   1  269.60   51.72
  -3   2   1  333.53   33.68
  -3   2   1  267.93   39.01
   3  -2  -1  254.79   66.36
  -3  -2   1  333.02   73.55
   3  -2  -1  268.76   39.47
  -3  -2   1  312.61   44.62
   3   2   0  128.44   15.73
   3   2   0  131.31   18.18
   3   2   0  161.59   25.84
  -3   2   0  125.62   15.74
  -3   2   0  100.63   22.02
  -3   2   0  114.33   33.58
  -3   2   0   64.65   17.97
  -3  -2   0   72.25   14.73
  -3  -2   0  131.97   23.97
   3  -2   0   92.66   19.30
   3  -2   0  122.48   45.30
  -3  -2   0  140.68   25.67
  -3  -2   0  131.11   15.68
   3   2   1   47.06   16.46
   3   2   1   83.01   21.05
   3   2   1   47.64   10.89
  -3   2  -1   38.28   27.74
  -3   2  -1   52.23   15.93
  -3   2  -1   58.74   16.52
  -3   2  -1   57.80    8.86
   3  -2   1   40.51   12.90
  -3  -2  -1   32.29    9.94
  -3  -2  -1   72.48   27.07
   3  -2   1   43.97   13.72
   3  -2   1   53.94   32.22
  -3  -2  -1   62.59   17.38
  -3  -2  -1   51.89   10.98
   3   2   2    8.31    8.97
   3   2   2   12.45   16.27
   3   2   2    0.23    4.92
  -3   2  -2    9.33    7.39
  -3   2  -2    6.94    6.51
  -3   2  -2    9.63    4.28
  -3   2  -2    9.08   15.55
   3  -2   2    8.01    5.73
  -3  -2  -2    8.64    5.66
  -3  -2  -2    7.67    7.63
   3  -2   2    6.14    6.61
   3  -2   2    6.25    9.45
  -3  -2  -2    8.56   10.93
  -3  -2  -2    7.20    5.86
   3   2   3   40.77   20.28
   3   2   3   65.60   30.48
   3   2   3   31.00   10.18
  -3   2  -3   71.57   13.61
  -3   2  -3   65.20   12.95
  -3   2  -3   25.29   35.23
  -3   2  -3   50.55    8.52
  -3  -2  -3   74.46   12.14
  -3  -2  -3   60.78   14.80
   3  -2   3   50.15   13.88
   3  -2   3   46.56   15.96
   3  -2   3   49.93   31.77
  -3  -2  -3   46.80   10.45
   3   2   4   29.63   11.82
   3   2   4   53.37   29.55
  -3   2  -4   39.83    7.73
  -3   2  -4   52.57   11.35
  -3   2  -4   46.68    8.78
  -3   2  -4   46.07   10.00
  -3   2  -4   58.60    9.72
  -3  -2  -4   44.22   11.38
   3  -2   4   41.23   27.98
  -3  -2  -4   47.07    8.68
  -3  -2  -4   41.38   14.77
   3   2   5   30.67   23.19
  -3   2  -5   51.08   10.40
  -3   2  -5   42.93    8.23
  -3   2  -5   53.38   12.71
  -3   2  -5   58.34   10.31
  -3  -2  -5   53.89   13.77
  -3  -2  -5   55.60   17.95
   3  -2   5   41.12   23.89
   3   2   6   94.55   23.46
  -3   2  -6  116.18   25.16
  -3   2  -6  107.82   14.51
  -3   2  -6  133.72   16.56
  -3  -2  -6  129.38   31.25
   3  -2   6  101.90   29.46
  -3  -2  -6  135.56   23.14
   3  -2   6   39.32   19.73
   3   2   7  107.22   47.53
  -3   2  -7  164.35   19.17
  -3   2  -7  132.08   30.64
  -3  -2  -7  162.34   26.74
   3  -2   7   89.58   27.59
  -3  -2  -7  251.74   40.51
   3   2   8    3.23   11.89
  -3   2  -8    3.65    4.56
  -3   2  -8    4.44    4.04
  -3  -2  -8    2.87    5.86
   3  -2   8   -0.84    7.16
  -3  -2  -8    8.70    9.49
   3   2   9    2.83    9.02
  -3   2  -9   -0.09    2.87
  -3   2  -9   -0.99    5.16
  -3  -2  -9    6.41    9.39
   3  -2   9   -3.99    5.43
  -3  -2  -9    0.53    6.92
   3   2  10   60.60   39.13
  -3   2 -10   86.61   21.29
  -3  -2 -10  132.39   26.48
  -3  -2 -10  131.53   32.13
   3  -2  10   36.88   24.11
   3   2  11   21.09   19.31
  -3   2 -11   17.25   14.36
   3  -2  11   20.72   14.32
  -3  -2 -11   34.87   20.02
  -3  -2 -11   33.36   15.83
   3   2  12   33.74   17.23
  -3   2 -12   18.57    9.73
  -3  -2 -12   15.66   12.95
  -3  -2 -12   32.77   14.56
   3  -2  12   20.25   13.60
   3   2  13    1.88    8.75
  -3   2 -13    2.78    4.66
   3  -2  13   -1.20    5.95
  -3  -2 -13   19.74    7.44
  -3  -2 -13   -0.75    5.78
  -3   3  13   -4.75    3.47
   3  -3 -13    3.74    3.88
   3   3 -12    9.62    5.12
   3   3 -12   15.36   12.11
   3  -3 -12   -0.69    9.31
   3  -3 -12   10.95   11.52
   3   3 -11    7.76   10.26
   3  -3 -11    6.20   12.62
   3  -3 -11   21.87   12.43
   3   3 -10    9.76    9.20
   3  -3 -10    0.61   10.96
   3  -3 -10    8.91    7.05
   3   3  -9   64.87   25.20
   3  -3  -9   93.33   30.36
   3  -3  -9  102.96   30.63
   3   3  -8   64.95   23.61
   3  -3  -8   80.95   30.12
   3  -3  -8  110.28   28.84
   3   3  -7   36.23   18.88
   3   3  -7   91.32   39.23
   3  -3  -7   59.39   31.39
   3  -3  -7   70.01   14.75
   3   3  -6   25.30   15.92
   3   3  -6   35.79   14.28
   3  -3  -6   38.97   18.61
   3  -3  -6   46.89   17.18
   3   3  -5   38.95   22.12
   3   3  -5   48.86   18.59
   3  -3  -5   60.35   19.72
   3  -3  -5   75.59   19.56
   3  -3  -5   32.27   11.61
   3   3  -4   11.72   10.28
   3   3  -4    6.99    7.84
  -3   3   4    2.63    4.88
  -3   3   4    3.74    5.87
   3  -3  -4    3.30    8.46
   3  -3  -4    8.19    8.34
   3   3  -3    2.45    7.99
   3   3  -3    1.13    6.16
  -3   3   3    2.96    5.83
  -3   3   3    3.51    5.37
  -3   3   3    1.18    4.91
   3  -3  -3    0.58    4.38
   3  -3  -3    2.82    8.97
   3   3  -2   24.46    7.56
   3   3  -2   23.00   10.84
  -3   3   2   12.57   10.92
  -3   3   2   24.44   11.93
  -3   3   2   15.72    9.33
  -3   3   2    8.69    5.77
   3  -3  -2   20.58   19.81
  -3  -3   2   22.08   14.91
   3  -3  -2   20.44   10.89
   3   3  -1  128.98   29.15
   3   3  -1  105.47   22.19
  -3   3   1   79.87   21.29
  -3   3   1  105.63   28.66
  -3   3   1   47.47   22.28
  -3   3   1  100.62   19.05
  -3  -3   1  100.59   12.49
  -3  -3   1   99.76   34.73
   3  -3  -1   83.21   18.59
   3  -3  -1   82.67   44.56
  -3  -3   1  107.38   28.35
   3   3   0  149.25   22.36
   3   3   0  178.77   21.37
   3   3   0  159.31   25.35
  -3   3   0  108.98   17.03
  -3   3   0  121.62   35.61
  -3   3   0  124.18   21.29
  -3   3   0   88.84   24.49
  -3  -3   0   90.63   17.10
  -3  -3   0  141.57   42.29
   3  -3   0   92.84   20.41
   3  -3   0  113.81   35.36
  -3  -3   0  187.36   35.22
  -3  -3   0  142.32   17.06
   3   3   1  219.38   43.37
   3   3   1  191.60   29.41
  -3   3  -1  162.73   35.37
  -3   3  -1  180.41   58.08
   3   3   1  254.52   26.08
  -3   3  -1  194.12   24.12
   3  -3   1  172.22   26.59
  -3  -3  -1  111.82   24.29
  -3  -3  -1  212.11   26.55
   3  -3   1  177.45   46.60
  -3  -3  -1  213.04   49.27
  -3  -3  -1  254.95   45.15
   3   3   2  133.22   18.12
   3   3   2   49.42   16.25
  -3   3  -2  100.49   14.76
  -3   3  -2   77.01   41.77
   3   3   2  129.84   28.12
  -3   3  -2   15.44   20.25
  -3  -3  -2   93.46   15.90
  -3  -3  -2   87.67   22.63
   3  -3   2   67.72   19.57
   3  -3   2   89.08   30.33
  -3  -3  -2  120.51   30.85
   3   3   3   59.93   23.55
   3   3   3   47.99   12.70
  -3   3  -3   83.20   11.77
  -3   3  -3   64.29   42.06
  -3   3  -3   18.38   11.71
  -3  -3  -3   89.88   14.96
  -3  -3  -3   93.61   24.19
  -3  -3  -3   25.10   12.10
   3  -3   3   47.72   15.48
   3  -3   3   66.41   23.40
   3   3   4   90.23   39.59
   3   3   4   87.20   17.60
  -3   3  -4   87.21   63.66
  -3   3  -4  132.71   18.77
   3  -3   4   70.10   32.51
  -3  -3  -4  104.86   13.37
  -3  -3  -4  119.50   16.23
  -3  -3  -4  130.32   26.59
   3   3   5  122.52   47.79
  -3   3  -5  161.83   23.16
  -3   3  -5  155.41   40.68
  -3  -3  -5  140.98   35.68
   3  -3   5  161.75   59.19
  -3  -3  -5  144.68   28.65
   3   3   6   31.95   25.90
  -3   3  -6   41.18   11.07
  -3   3  -6   36.28   16.93
  -3  -3  -6   42.03   16.36
   3  -3   6   48.57   27.44
  -3  -3  -6   41.77   19.82
   3   3   7   26.57   23.43
  -3   3  -7   30.33    9.99
  -3   3  -7   24.22   14.28
  -3  -3  -7   35.88   18.50
   3  -3   7   36.64   17.85
  -3  -3  -7   33.64   15.18
   3   3   8   -4.95   28.33
  -3   3  -8   57.43   10.80
  -3   3  -8   64.11   11.16
  -3  -3  -8   25.16   21.32
  -3  -3  -8   96.88   34.15
   3   3   9   39.80   24.67
  -3   3  -9   15.16   14.04
  -3   3  -9   34.12    8.99
  -3  -3  -9   28.50   21.84
  -3  -3  -9   45.05   15.60
   3   3  10    6.58   15.73
  -3   3 -10    1.29    7.95
  -3   3 -10   11.32    4.73
  -3  -3 -10   12.39   13.02
  -3  -3 -10   11.52   11.68
   3   3  11   20.03   12.58
  -3   3 -11    7.90    4.57
  -3   3 -11    2.84    3.96
  -3  -3 -11   14.01   11.00
  -3  -3 -11    4.57    9.33
   3   3  12    4.22   13.43
  -3   3 -12    8.43    6.86
  -3   3 -12   14.32    3.99
  -3  -3 -12   25.80   12.35
   3  -3  12    1.80    6.65
  -3  -3 -12   32.65   11.41
   3   4 -12    8.14   11.15
  -3   4  12   15.07    7.54
   3  -4 -12   -2.63    8.59
   3   4 -11   20.87   10.37
  -3   4  11   12.14   10.06
   3  -4 -11  -13.32   11.04
   3   4 -10   28.60   15.14
  -3   4  10   23.90   11.16
   3  -4 -10   30.26   19.27
   3   4  -9   60.30   38.00
  -3   4   9   56.71   15.93
   3  -4  -9   48.36   24.90
   3   4  -8   35.91   11.58
  -3   4   8   28.72   13.56
   3  -4  -8   50.01   13.34
  -3  -4   8   34.00   13.71
   3   4  -7   17.50   22.19
  -3   4   7    5.55    7.94
   3  -4  -7   19.50   12.58
  -3  -4   7    8.76    5.90
   3   4  -6   19.40   16.15
   3   4  -6   27.93   15.02
  -3   4   6   21.81   17.19
   3  -4  -6   25.92   10.07
   3   4  -5   80.87   32.81
   3   4  -5   80.56   26.69
  -3   4   5   45.55   23.14
   3  -4  -5   93.87   24.75
   3   4  -4   62.87   27.06
   3   4  -4  101.77   25.14
  -3   4   4   60.76   23.43
   3  -4  -4  104.34   26.57
   3  -4  -4   64.35   25.63
   3   4  -3   19.88   17.07
   3   4  -3   20.70   12.93
  -3   4   3   16.47   11.79
  -3   4   3   10.49    9.46
   3  -4  -3   -0.50   19.53
   3  -4  -3   36.23   12.41
   3   4  -2   72.71   27.35
   3   4  -2   74.58   24.37
  -3   4   2   63.79   25.44
  -3   4   2   46.76   18.83
   3  -4  -2   45.82   35.02
   3  -4  -2   57.58   19.20
   3   4  -1  144.90   38.25
   3   4  -1  145.87   37.31
  -3   4   1  153.95   45.56
  -3   4   1  152.51   28.80
   3  -4  -1  127.79   39.46
   3  -4  -1  116.93   23.60
   3   4   0   39.84   10.32
  -3   4   0   36.45   22.19
   3   4   0   65.83   21.27
  -3   4   0   32.63   11.88
   3  -4   0   26.05    9.54
  -3  -4   0   31.93   14.92
   3  -4   0   -0.43   21.26
   3   4   1   86.14   25.75
   3   4   1   46.87   18.61
  -3   4  -1   42.77   14.20
  -3   4  -1   50.05   29.98
  -3  -4  -1   45.57   14.45
   3  -4   1   34.14   12.47
   3  -4   1   58.03   21.34
  -3  -4  -1   62.62   12.04
   3   4   2    2.65    8.03
   3   4   2    2.04    5.64
  -3   4  -2    2.42    4.40
  -3   4  -2   -2.75   11.57
  -3  -4  -2   -0.54    4.26
   3  -4   2   -5.18    6.75
  -3  -4  -2   -0.46    5.60
   3   4   3    6.92   12.67
   3   4   3    7.45    9.34
  -3   4  -3    9.46   20.66
  -3   4  -3    8.32    6.43
  -3  -4  -3    9.50    7.98
   3  -4   3    2.14   10.73
  -3  -4  -3    4.95    8.14
   3   4   4    9.19   16.92
  -3   4  -4   11.76   32.03
  -3   4  -4   16.59    9.10
  -3  -4  -4   28.78   11.82
   3  -4   4   15.74   17.11
  -3  -4  -4    9.33   11.53
   3   4   5   24.10   21.22
  -3   4  -5   37.28   11.28
  -3   4  -5   13.33   38.79
  -3  -4  -5    6.82   14.85
   3  -4   5   22.94   18.24
  -3  -4  -5   35.01   15.03
   3   4   6   18.22   20.24
  -3   4  -6   25.95   18.29
  -3   4  -6   20.88    8.90
   3  -4   6   12.89   25.13
  -3  -4  -6   34.22   20.42
  -3  -4  -6   27.69   15.39
   3   4   7    1.47   23.40
  -3   4  -7   31.94   10.48
  -3   4  -7   25.29   14.93
  -3  -4  -7   39.41   11.96
   3  -4   7   26.99   18.62
  -3  -4  -7    6.72   17.87
   3   4   8   39.55   26.55
  -3   4  -8   30.36   15.27
  -3   4  -8   34.97   11.65
  -3  -4  -8   46.95   22.51
  -3  -4  -8   55.96   21.33
   3   4   9    7.33   21.22
  -3   4  -9   17.48   12.69
  -3   4  -9   36.47    9.27
  -3  -4  -9   27.45   19.39
  -3  -4  -9   33.63   18.19
   3   4  10    1.38   15.96
  -3   4 -10   15.48    7.05
  -3   4 -10   10.09    8.98
  -3  -4 -10   39.79    9.98
  -3  -4 -10   21.34   16.02
   3   4  11    0.82   12.40
  -3   4 -11   11.69    7.14
  -3   4 -11   11.05    5.85
  -3  -4 -11   32.17   14.04
  -3  -4 -11   30.36   11.39
   3   4  12    0.06    8.21
  -3  -4 -12    9.02    8.77
  -3  -4 -12   12.94    7.97
   3   5 -11   13.54    9.91
  -3   5  11   17.71    8.98
   3  -5 -11    9.04   10.10
   3   5 -10   21.03   12.34
  -3   5  10    8.08   12.07
   3  -5 -10   26.24   12.98
   3   5  -9   -5.95    9.62
  -3   5   9    7.59    9.32
   3  -5  -9   21.01   11.30
   3   5  -8   17.36   14.18
  -3   5   8   20.18   14.22
   3  -5  -8   17.15   16.48
  -3  -5   8   27.43   14.47
   3   5  -7   65.25   33.08
  -3   5   7   28.96   10.49
   3  -5  -7   32.89   18.75
  -3  -5   7   19.95   13.22
  -3   5   6   11.99   11.60
   3   5  -6   12.80   15.56
  -3  -5   6    7.92    6.91
   3  -5  -6   11.00   12.32
   3   5  -5   28.94   16.03
  -3   5   5   27.96   14.38
   3  -5  -5   47.47   14.61
  -3  -5   5   -0.71    9.21
   3   5  -4   17.36   11.86
   3   5  -4   -3.95   11.73
  -3   5   4    0.11    7.68
  -3   5   4    6.73    9.87
   3  -5  -4   10.48   10.46
   3  -5  -4   14.50    9.54
   3   5  -3   31.04   24.84
   3   5  -3   40.87   12.75
  -3   5   3   41.66   20.74
  -3   5   3   27.62   10.31
   3  -5  -3   32.11   25.10
   3  -5  -3   18.81   12.57
   3   5  -2    4.36   13.72
   3   5  -2    5.77   11.42
  -3   5   2    4.43    9.53
  -3   5   2   16.45   13.73
   3  -5  -2    1.37   17.53
   3  -5  -2    5.76    6.35
   3   5  -1   39.05   24.29
   3   5  -1   36.24   19.60
  -3   5   1   70.02   27.37
  -3   5   1   22.63   15.01
   3  -5  -1   34.93   21.56
   3   5   0   49.54   21.64
  -3   5   0   40.73   17.15
   3   5   0   75.00   24.63
  -3   5   0   45.00   31.78
   3  -5   0   47.16   22.05
   3   5   1   44.86   18.98
   3   5   1    2.97    8.98
   3   5   1   24.92   14.25
  -3   5  -1   32.96   12.58
  -3   5  -1   27.99   24.79
   3  -5   1   35.04   17.18
   3   5   2  235.40   50.08
   3   5   2  135.35   34.55
  -3   5  -2  175.48   29.23
  -3   5  -2  151.18   75.12
  -3  -5  -2   81.02   34.47
   3  -5   2  144.70   42.60
   3   5   3  247.59   58.92
   3   5   3  140.25   38.03
  -3   5  -3  152.52   90.48
  -3   5  -3  226.98   33.89
  -3  -5  -3  230.11   34.16
   3  -5   3  206.28   47.69
  -3  -5  -3   74.41   42.84
   3   5   4   81.12   39.41
  -3   5  -4   81.63   44.48
  -3   5  -4  110.85   23.47
  -3  -5  -4   68.32   27.37
   3  -5   4   93.66   38.43
  -3  -5  -4  104.04   24.09
   3   5   5   52.76   31.02
  -3   5  -5   70.81   18.18
  -3   5  -5   29.76   34.05
  -3  -5  -5   62.84   20.37
   3  -5   5   41.68   27.81
  -3  -5  -5   59.05   23.53
   3   5   6   10.40   16.51
  -3   5  -6    3.91    8.12
  -3   5  -6   22.07   14.49
  -3  -5  -6   24.71   11.82
   3  -5   6   25.69   20.82
  -3  -5  -6    9.75   13.02
   3   5   7    9.98   16.76
  -3   5  -7    6.33    8.77
  -3   5  -7   20.75   11.64
  -3  -5  -7   27.84   14.43
   3  -5   7   23.65   16.13
  -3  -5  -7   19.69   12.97
   3   5   8   11.87   13.55
  -3   5  -8    7.17    7.16
  -3   5  -8   14.53    8.27
  -3  -5  -8   17.13   11.75
   3  -5   8    1.53    9.69
  -3  -5  -8   13.70   12.02
   3   5   9   12.41    8.57
  -3   5  -9    1.29    5.33
  -3   5  -9   -0.84    4.18
  -3  -5  -9   -4.32    8.34
  -3  -5  -9   14.94    8.57
   3   5  10    2.86    6.08
  -3   5 -10   -0.13    2.94
  -3   5 -10   -1.14    3.44
  -3  -5 -10    3.43    7.52
  -3  -5 -10    3.73    6.42
   3   6  -9    2.76    6.67
  -3   6   9    0.00    5.89
   3  -6  -9    4.37    5.00
   3   6  -8   -1.91   13.30
  -3   6   8    4.07    7.37
   3  -6  -8    2.51    5.94
  -3  -6   8    8.28    4.99
   3  -6  -8   -0.10    6.99
   3   6  -7   11.39   11.12
  -3   6   7   21.55   10.29
   3  -6  -7   18.71    9.69
  -3  -6   7    7.10    6.23
   3   6  -6   59.68   27.98
  -3   6   6   26.40   13.12
   3  -6  -6   19.62    9.82
  -3  -6   6    8.17   11.24
  -3   6   5   40.36   16.13
   3   6  -5   23.92   22.25
  -3  -6   5   14.33   15.77
   3  -6  -5   32.87   11.08
   3   6  -4   22.16   19.33
  -3   6   4   62.22   17.67
  -3   6   4   41.37   19.95
  -3  -6   4   11.86   17.14
   3  -6  -4   29.90   11.12
   3   6  -3    8.01   12.93
  -3   6   3   19.22   14.34
  -3   6   3    8.47    9.70
  -3  -6   3   13.79   12.31
   3  -6  -3    1.85   13.20
   3   6  -2   -2.44   17.03
  -3   6   2   12.48   16.36
  -3   6   2    8.17   10.32
  -3  -6   2   25.58   12.45
   3  -6  -2    4.64   19.10
  -3   6   1   53.40   17.73
   3   6  -1   44.85   27.67
  -3   6   1   44.71   29.62
  -3  -6   1   37.99   12.73
   3  -6  -1   36.56   22.67
   3   6   0   -0.34   18.40
  -3   6   0    8.09   22.78
  -3   6   0   23.86   12.57
  -3  -6   0   16.77   13.51
   3  -6   0   23.69   10.73
   3   6   1   61.56   20.13
  -3   6  -1   93.01   32.49
   3   6   1   78.98   35.08
  -3   6  -1   80.32   22.08
  -3  -6  -1   88.23   25.11
   3  -6   1  101.59   36.38
   3   6   2    1.00    9.36
  -3   6  -2  -19.31   21.20
   3   6   2    6.64   11.48
  -3   6  -2    4.39    8.01
  -3  -6  -2   19.68    7.19
   3  -6   2  -16.10   13.94
   3   6   3   20.23   16.57
   3   6   3   33.67   16.49
  -3   6  -3    6.58   34.29
  -3   6  -3    5.01   11.55
   3  -6   3   37.88   19.62
   3   6   4   -1.38   11.61
   3   6   4   11.04    7.48
  -3   6  -4    3.34    8.30
  -3   6  -4   10.91   25.13
   3  -6   4   14.47   13.76
   3   6   5    8.13   13.11
   3   6   5    2.16    8.17
  -3   6  -5   12.76    7.27
  -3   6  -5   19.90   24.80
   3  -6   5    5.94   20.62
   3   6   6   16.54   12.00
   3   6   6    3.08    8.33
  -3   6  -6   15.12   11.53
  -3   6  -6    8.21    7.59
  -3  -6  -6    5.52    8.08
   3  -6   6   21.91   17.86
   3   6   7   18.35   10.89
   3   6   7   -6.49    8.41
  -3   6  -7    6.79    6.83
  -3   6  -7   12.45    8.04
  -3  -6  -7   13.52    6.12
   3  -6   7    9.23   12.12
   3   6   8   -5.44   15.57
   3   6   8   39.35   12.92
  -3   6  -8   43.43   10.63
  -3   6  -8   41.64    5.67
  -3  -6  -8   42.85   12.41
   3  -6   8   25.03   11.41
   3   6   9   10.49   11.34
   3   6   9   26.71   18.03
  -3   6  -9   50.87    8.11
  -3   6  -9   36.47    8.88
  -3  -6  -9   34.03    8.61
   3   7  -7   -2.12    6.66
  -3   7   7    7.75    5.57
  -3  -7   7    9.96    6.27
   3   7  -6    3.71   12.86
  -3   7   6    5.09    6.37
  -3  -7   6    8.95    6.70
   3   7  -5    0.01   18.16
  -3   7   5   17.56    8.24
  -3   7   5   20.13    9.36
  -3  -7   5   -1.33    8.78
   3   7  -4    2.94    9.93
  -3   7   4    1.26    6.73
  -3   7   4    7.18    9.76
  -3  -7   4   11.59    8.72
   3   7  -3   24.74   17.17
  -3   7   3   35.80   24.13
  -3   7   3   62.50   14.71
  -3  -7   3   24.58   17.46
   3  -7  -3   41.04   15.49
   3   7  -2   11.65   14.88
  -3   7   2    9.84   19.26
  -3   7   2   13.19   10.16
  -3  -7   2   23.99   11.83
   3  -7  -2   16.74   14.84
   3   7  -1    9.45   11.17
  -3   7   1   40.83   18.88
  -3   7   1    5.52    8.80
  -3  -7   1    8.74   10.55
   3  -7  -1   31.05   17.92
   3   7   0   10.53   11.75
  -3   7   0   12.13    5.77
  -3   7   0    0.22   21.02
  -3  -7   0   17.88   10.42
   3  -7   0   31.24   12.92
   3   7   1   16.99   15.30
   3   7   1   13.66    8.68
  -3   7  -1   12.48   10.35
  -3   7  -1   20.12   15.26
  -3  -7  -1   18.43   10.55
   3  -7   1   56.05   24.84
   3   7   2  113.13   27.74
   3   7   2   60.28   18.46
  -3   7  -2  100.75   20.19
  -3   7  -2   63.47   54.74
  -3  -7  -2   53.95   14.52
   3  -7   2   79.79   49.14
   3   7   3   61.68   26.08
   3   7   3   77.65   21.84
  -3   7  -3   80.04   19.75
  -3   7  -3   86.60   55.76
   3  -7   3   97.72   48.83
   3   7   4   36.40   18.87
   3   7   4   49.22   16.71
  -3   7  -4   50.52    8.12
  -3   7  -4   66.83   43.56
   3  -7   4   90.24   37.63
   3   7   5    2.59   11.90
   3   7   5   38.37   11.45
  -3   7  -5   17.90   14.02
  -3   7  -5   25.68    8.98
   3  -7   5   21.91   20.05
   3   7   6    0.69    6.18
   3   7   6   16.96    6.77
  -3   7  -6    6.18    4.88
  -3   7  -6   -5.26    5.38
   3  -7   6   14.95    9.81
   3   8  -2    3.91    8.67
  -3   8   2   32.26    9.94
  -3   8   2   -0.14    4.66
  -3  -8   2   -0.18    6.04
   3   8  -1   16.00    8.30
  -3   8   1   11.91    7.03
  -3   8   1    0.68   10.44
  -3  -8   1   -0.48    8.32
   3  -8  -1   43.20    8.27
   3   8   0    7.23    7.00
  -3   8   0   10.76    6.44
  -3   8   0   13.81   16.14
  -3  -8   0   10.49    6.39
   3  -8   0    8.10   10.62
   3   8   1   64.05    9.54
  -3   8  -1   30.88   12.11
  -3   8  -1   26.53   29.89
   3  -8   1   53.87   22.29
   4   0 -12   -2.52    4.75
   4   0 -11    5.72    5.92
   4   0 -10   17.45    9.11
   4   0  -9   37.73   10.55
   4   0  -9   30.94   12.03
   4   0  -8    9.64    7.06
   4   0  -7   12.33    8.10
   4   0  -6    9.17    6.33
   4   0  -6   18.22    8.40
   4   0  -5   24.97   10.96
   4   0  -5   29.55    9.77
   4   0  -4   22.75    8.51
   4   0  -4   14.70    9.54
   4   0  -3   12.10    9.40
   4   0  -3   11.76    9.64
   4   0  -2    5.55    7.14
   4   0  -2   -0.59    7.10
   4   0  -1   10.73    9.69
   4   0  -1   14.20    8.34
   4   0   0  147.48   27.07
   4   0   0  158.28   29.75
   4   0   1  112.81   25.23
   4   0   1   74.22   14.92
   4   0   1   81.77   19.05
  -4   0  -1   74.26   13.80
   4   0   2  195.07   28.27
   4   0   2  170.24   30.03
  -4   0  -2  196.98   22.39
   4   0   3   24.21   12.66
   4   0   3   25.68    8.64
   4   0   3   40.24   11.85
  -4   0  -3   86.87   15.32
  -4   0  -3   56.58   10.84
   4   0   4   56.61   13.55
   4   0   4   27.65   17.23
  -4   0  -4   91.01   17.99
  -4   0  -4   71.44   14.13
   4   0   5   55.84   21.79
   4   0   5   81.87   19.93
  -4   0  -5  140.62   25.20
  -4   0  -5  122.03   20.92
   4   0   6   70.47   25.42
  -4   0  -6  107.22   23.50
  -4   0  -6   93.58   24.26
   4   0   7   33.16   19.38
  -4   0  -7   46.72   17.02
  -4   0  -7   58.96   22.74
   4   0   8   -1.65    6.84
  -4   0  -8    0.82    7.85
  -4   0  -8   -0.29    6.30
   4   0   9    5.78    9.48
  -4   0  -9    9.63    7.92
  -4   0  -9    1.07    5.55
   4   0  10    2.46    6.97
  -4   0 -10    1.20    3.84
  -4   0 -10  -11.76    6.10
   4   0  11   -0.84    9.07
  -4   0 -11    8.10   10.45
  -4   0 -11   13.22    6.62
   4   0  12    3.45    5.79
  -4   0 -12   -0.71    5.67
   4  -1 -12    5.80    6.54
   4  -1 -11    8.52    5.62
   4  -1 -11    5.72    7.94
   4  -1 -10    6.96    6.41
   4  -1 -10    2.14    6.68
   4  -1  -9   11.81    8.73
   4  -1  -9    7.57    7.98
   4  -1  -8   34.33   12.92
   4  -1  -8   20.26   10.85
   4   1  -7    7.87    5.80
   4  -1  -7    1.82    7.75
   4  -1  -7    5.61    6.13
   4   1  -6    8.00    6.60
   4   1  -6   14.04    7.16
   4  -1  -6    3.57    8.25
   4  -1  -6    5.54    6.31
   4  -1  -6    4.36    4.86
   4   1  -5   45.75   13.92
   4   1  -5   34.00   12.70
   4  -1  -5   66.43   12.53
   4  -1  -5   45.50   16.86
   4  -1  -5   32.88   11.08
   4   1  -4   93.94   20.38
   4   1  -4   91.98   18.05
   4  -1  -4   93.57   23.26
   4  -1  -4   66.21   16.41
   4   1  -3  137.81   25.27
   4   1  -3  160.61   25.36
   4  -1  -3  141.34   28.75
   4  -1  -3  118.46   25.26
   4   1  -2  314.12   29.85
   4   1  -2  328.65   35.57
   4   1  -2  235.62   37.74
   4  -1  -2  278.95   50.97
   4  -1  -2  247.76   43.63
  -4  -1   2  329.21   36.02
   4   1  -1  241.24   42.04
   4   1  -1  242.29   29.14
   4   1  -1  278.68   39.95
   4  -1  -1  251.18   51.08
   4  -1  -1  218.00   44.75
  -4  -1   1  313.21   34.53
   4   1   0  310.94   39.63
   4   1   0  319.62   36.33
   4   1   0  250.20   40.61
  -4   1   0  205.47   19.62
   4  -1   0  305.77   46.03
   4  -1   0  267.15   48.88
  -4  -1   0  440.36   49.57
   4  -1   0  203.45   28.89
   4   1   1  104.91   20.26
   4   1   1  142.02   23.45
   4   1   1  117.48   18.09
   4   1   1  111.99   20.42
  -4   1  -1   86.48   12.12
   4  -1   1   69.62   16.49
   4  -1   1  101.15   26.48
  -4  -1  -1   77.02   13.14
  -4  -1  -1   90.14   12.54
   4  -1   1  104.92   22.96
   4   1   2   10.65   12.50
   4   1   2   22.01   10.17
   4   1   2   51.45   12.70
   4   1   2   26.53   10.95
  -4   1  -2   35.34    8.45
   4  -1   2   36.51   15.27
  -4  -1  -2   43.60   12.92
  -4  -1  -2   35.81    8.83
   4  -1   2   21.98   17.07
   4   1   3   16.12   12.02
   4   1   3   17.93    8.90
  -4   1  -3   22.46    8.77
  -4   1  -3   12.67    6.29
  -4  -1  -3   24.63    8.62
   4  -1   3   19.07   11.64
  -4  -1  -3   32.09   11.13
   4   1   4   13.30   15.84
   4   1   4   16.19    9.82
  -4   1  -4   42.16    7.26
  -4   1  -4   30.03   11.27
  -4  -1  -4   26.53   11.28
   4  -1   4   25.12   13.40
  -4  -1  -4   41.72   14.76
   4   1   5    9.96   12.28
   4   1   5    4.31    6.02
  -4   1  -5   15.29    8.02
  -4   1  -5   18.10    9.04
  -4  -1  -5   18.87    9.28
   4  -1   5    8.83    7.83
  -4  -1  -5   25.65   11.66
   4   1   6   60.22   22.38
  -4   1  -6   83.27   17.74
  -4   1  -6   54.43   17.87
   4  -1   6   12.74   12.21
  -4  -1  -6   62.32   20.31
  -4  -1  -6   73.44   11.99
   4   1   7   40.50   15.03
  -4   1  -7   60.98   16.97
  -4   1  -7   63.42   18.98
  -4  -1  -7   79.14   23.59
  -4  -1  -7   58.99   20.82
   4   1   8   19.51   27.78
  -4   1  -8   75.36   25.30
  -4   1  -8   85.37   20.35
  -4  -1  -8   92.36   18.17
  -4  -1  -8   92.81   15.57
   4   1   9   13.54   15.70
  -4   1  -9   25.84   17.05
  -4  -1  -9   16.32   16.86
  -4  -1  -9   28.20   14.35
   4  -1   9   26.09   12.79
   4   1  10   -4.09    6.88
  -4   1 -10   -2.76    6.19
  -4  -1 -10   -0.62    7.02
  -4  -1 -10    0.73    6.51
   4  -1  10    2.64    5.62
   4   1  11   14.73   13.27
  -4   1 -11    9.54    9.57
  -4  -1 -11   11.42   10.75
  -4  -1 -11   31.49   10.14
   4  -1  11    8.19    8.46
   4   1  12   15.33   12.67
  -4   1 -12   23.73   10.73
  -4  -1 -12   14.45    8.80
  -4  -1 -12   28.34   14.49
  -4   2  12   -3.31    3.61
   4  -2 -12   11.46    4.28
  -4   2  11  -11.59    3.99
   4  -2 -11   11.14    3.48
   4  -2 -10    8.21    8.34
   4  -2 -10    7.59   10.20
   4  -2  -9   24.46   14.75
   4  -2  -9   39.86   16.83
   4   2  -8   12.41    8.62
   4  -2  -8   14.19   12.33
   4  -2  -8   25.44   12.87
   4   2  -7   24.38   10.66
   4   2  -7   32.52   13.61
   4  -2  -7   25.44   15.62
   4  -2  -7   40.03   15.42
   4   2  -6   34.34   10.69
   4   2  -6   18.78   10.33
  -4   2   6   -0.94    6.55
   4  -2  -6   24.58   12.07
   4   2  -5   18.47    8.82
   4   2  -5   -5.44   10.86
  -4   2   5   16.74    6.44
   4  -2  -5   28.76    7.88
   4  -2  -5   12.56    6.70
   4   2  -4  141.60   25.32
   4   2  -4   77.49   19.40
   4   2  -4   74.47   16.42
  -4   2   4   89.43   17.32
   4  -2  -4  109.46   25.86
   4  -2  -4   77.08   18.76
   4   2  -3    7.37    6.09
   4   2  -3   13.91    9.14
   4   2  -3    7.14    9.34
  -4   2   3    7.60    6.17
   4  -2  -3   16.11   10.19
   4  -2  -3   10.96    8.59
   4   2  -2  287.30   42.28
   4   2  -2  276.03   39.23
  -4   2   2  231.98   27.64
   4  -2  -2  216.55   42.01
   4  -2  -2  236.14   49.13
   4   2  -1   16.23   10.01
   4   2  -1   19.16    5.95
  -4   2   1    7.73    5.93
   4  -2  -1   14.30   11.31
  -4  -2   1   16.60    4.87
   4   2   0  106.54   21.40
  -4   2   0   81.29   13.19
   4   2   0  127.15   25.81
   4  -2   0   99.21   27.23
  -4  -2   0  107.89   17.69
   4  -2   0   98.48   38.31
   4   2   1  105.79   24.41
   4   2   1   82.34   17.84
  -4   2  -1   65.65   13.72
   4  -2   1   76.73   35.88
  -4  -2  -1   97.58   16.98
   4  -2   1   54.45   20.40
   4   2   2  231.49   44.21
   4   2   2  146.04   29.85
  -4   2  -2  205.66   30.39
   4  -2   2  218.87   39.13
  -4  -2  -2  277.17   37.06
  -4  -2  -2  234.93   28.98
   4  -2   2  227.23   61.90
   4   2   3   39.80   18.65
   4   2   3   21.56   12.06
  -4   2  -3   37.13   12.29
   4  -2   3   53.23   15.50
  -4  -2  -3   53.61   14.09
  -4  -2  -3   66.83   16.28
   4   2   4   24.28   24.12
   4   2   4   26.20   13.46
  -4   2  -4   74.44   14.12
  -4   2  -4   42.06   15.80
  -4  -2  -4   80.40   18.47
   4  -2   4   60.37   25.47
  -4  -2  -4   76.64   20.49
   4   2   5   49.01   34.44
  -4   2  -5  112.63   17.89
  -4   2  -5   72.86   13.94
  -4  -2  -5  112.87   28.93
   4  -2   5   83.04   27.48
  -4  -2  -5  140.36   26.22
   4   2   6   32.80   33.94
  -4   2  -6  102.29   18.22
  -4   2  -6   89.92   24.01
  -4  -2  -6  108.65   31.55
   4  -2   6   44.60   19.38
  -4  -2  -6  129.60   27.36
   4   2   7   21.49   20.63
  -4   2  -7   32.65   14.15
  -4  -2  -7   13.10   16.79
  -4  -2  -7   35.20   18.78
   4   2   8   -4.43   13.94
  -4   2  -8    1.54    9.44
  -4  -2  -8   21.50   11.43
  -4  -2  -8   11.39   12.09
   4   2   9   21.05   15.90
  -4   2  -9    3.34   10.94
  -4  -2  -9   20.06   18.08
  -4  -2  -9   19.90   11.94
   4   2  10    8.68    9.81
  -4   2 -10   -0.25    8.32
  -4  -2 -10  -13.32    7.02
  -4  -2 -10    3.59    8.36
   4   2  11   -0.82   14.97
  -4   2 -11   17.78    6.21
  -4  -2 -11   30.59   15.82
  -4  -2 -11   16.46   11.79
   4   2  12   11.39   10.03
  -4   2 -12    5.19    8.03
  -4  -2 -12   10.61    9.08
  -4  -2 -12   14.73    5.20
  -4   3  12    7.58    6.24
   4  -3 -12    9.00    5.75
   4   3 -11   -9.14    4.85
  -4   3  11    6.08    4.69
   4  -3 -11    0.60    5.10
   4   3 -10    9.17    8.38
  -4   3  10   11.26   10.05
   4  -3 -10    5.94    9.22
   4   3  -9   26.74   12.25
  -4   3   9   37.19   16.32
   4  -3  -9   24.98   15.97
   4   3  -8   94.49   33.26
   4   3  -8   47.07   18.29
  -4   3   8   70.85   23.83
   4  -3  -8   80.21   28.24
   4   3  -7   24.25   13.52
   4   3  -7   35.71   23.27
  -4   3   7   14.60   14.78
   4  -3  -7   21.31   18.19
   4   3  -6   16.99   14.48
   4   3  -6   37.38   12.70
  -4   3   6    8.33   12.05
   4  -3  -6   12.73   14.21
   4   3  -5   24.22   16.10
   4   3  -5   35.06   15.65
  -4   3   5   27.49   12.38
   4  -3  -5   34.05   14.72
   4  -3  -5   12.37    8.22
   4   3  -4   53.79   19.15
   4   3  -4   76.79   20.88
  -4   3   4   41.37   16.35
   4  -3  -4   58.77   19.93
   4  -3  -4   35.73   15.38
   4   3  -3  129.49   30.29
  -4   3   3  111.52   23.32
   4   3  -3  115.05   33.62
   4  -3  -3  101.32   29.45
   4  -3  -3  125.76   29.42
   4   3  -2   34.04   17.01
   4   3  -2   43.12   16.11
  -4   3   2   26.22   11.07
   4  -3  -2   28.67   13.82
   4  -3  -2   28.84   12.95
   4   3  -1  161.68   34.20
  -4   3   1  129.61   23.33
   4   3  -1  143.34   32.59
   4  -3  -1  109.44   30.41
  -4  -3   1  143.22   20.06
   4  -3  -1  140.50   53.82
   4   3   0  129.53   33.82
   4   3   0  132.52   29.13
  -4   3   0  108.13   17.14
  -4   3   0   63.27   44.02
  -4  -3   0  123.83   20.02
   4  -3   0  107.06   27.73
   4  -3   0  117.67   31.97
   4   3   1   83.34   26.44
   4   3   1   47.53   20.60
  -4   3  -1   72.81   13.07
  -4   3  -1   73.47   39.00
  -4  -3  -1   84.66   17.82
   4  -3   1   58.74   18.98
   4  -3   1   74.52   41.84
   4   3   2   14.46   13.74
   4   3   2    7.09   10.24
  -4   3  -2   15.11   11.03
  -4   3  -2   13.48    5.63
   4  -3   2   11.37    9.45
  -4  -3  -2    7.87    7.53
   4  -3   2   11.56   20.42
  -4  -3  -2   18.21    9.14
   4   3   3   28.93   15.16
   4   3   3   36.40   23.67
  -4   3  -3   60.34   10.20
  -4   3  -3   30.84   20.03
   4  -3   3   57.13   33.54
  -4  -3  -3   51.11   17.02
  -4  -3  -3   63.97   19.97
   4   3   4   29.21   14.84
   4   3   4   50.52   25.65
  -4   3  -4   41.30   17.82
  -4   3  -4   45.16   15.13
   4  -3   4   64.18   31.99
  -4  -3  -4  119.15   24.53
  -4  -3  -4   67.16   18.92
   4   3   5   21.18   20.97
  -4   3  -5   26.80   14.05
  -4  -3  -5   28.86   19.94
  -4  -3  -5   35.44   17.82
   4  -3   5   45.91   21.77
   4   3   6   17.86   22.01
  -4   3  -6   31.51   14.25
  -4  -3  -6   34.32   22.18
  -4  -3  -6   34.82   19.25
   4  -3   6   34.40   17.85
   4   3   7   48.65   24.72
  -4   3  -7   19.10   17.31
   4  -3   7   29.17   13.31
  -4  -3  -7   51.43   21.86
  -4  -3  -7   86.86   25.78
   4   3   8   27.04   22.60
  -4   3  -8   18.95   15.16
  -4  -3  -8   59.16   24.64
  -4  -3  -8   60.78   26.85
   4   3   9   27.81   14.39
  -4   3  -9    5.90    9.45
  -4  -3  -9   18.70   12.61
  -4  -3  -9    7.14   14.30
   4   3  10   22.17   10.21
  -4   3 -10   12.54   11.23
  -4  -3 -10   20.60   15.45
  -4  -3 -10   35.83   13.76
   4   3  11   14.55   14.81
  -4   3 -11   26.30   10.46
  -4  -3 -11   35.67   13.17
  -4  -3 -11   20.87   14.10
   4   4 -11   31.43    8.56
  -4   4  11    7.10    7.37
   4  -4 -11    2.23    8.55
   4   4 -10    5.57    6.68
  -4   4  10   -0.27    6.40
   4  -4 -10    5.53    7.28
   4   4  -9    2.77    7.85
  -4   4   9   11.13    8.22
   4  -4  -9    4.25    8.74
   4   4  -8   82.82   31.75
  -4   4   8   56.81   19.40
   4  -4  -8   64.49   21.81
  -4  -4   8   41.54   15.37
   4   4  -7   89.83   40.28
   4   4  -7   60.07   24.02
  -4   4   7   66.33   21.15
   4  -4  -7   56.40   23.52
   4   4  -6   55.30   21.27
   4   4  -6   29.09   19.02
  -4   4   6   26.47   16.51
   4  -4  -6   41.71   11.56
   4   4  -5    8.05   11.16
   4   4  -5   16.54   13.33
  -4   4   5    8.42    9.99
   4  -4  -5   14.35   11.20
   4   4  -4   52.70   22.57
   4   4  -4   74.83   14.93
  -4   4   4   34.19   18.48
   4  -4  -4   66.61   20.96
   4  -4  -4   33.01   17.84
   4   4  -3   12.13   15.28
   4   4  -3   12.62   14.60
  -4   4   3   15.07   10.21
   4  -4  -3    9.26   10.51
   4  -4  -3   11.72   14.03
   4   4  -2  288.71   59.55
   4   4  -2  266.90   39.18
  -4   4   2  220.44   40.45
   4  -4  -2  172.00   39.32
   4  -4  -2  220.62   67.47
   4   4  -1   11.86   15.10
   4   4  -1   14.98   14.50
  -4   4   1   14.47    8.67
  -4   4   1   24.87   18.22
   4  -4  -1   15.03   20.16
   4  -4  -1    7.53   10.33
   4   4   0   24.06   15.77
   4   4   0   20.55   14.90
  -4   4   0    6.93   22.91
  -4   4   0   17.76    9.10
   4  -4   0   32.95   24.66
   4  -4   0   10.73   11.17
   4   4   1   62.01   24.45
   4   4   1   14.87   19.37
  -4   4  -1   52.27   11.61
  -4   4  -1   57.65   35.28
  -4  -4  -1   49.24   12.79
   4  -4   1   21.56   11.70
   4  -4   1   56.47   35.34
   4   4   2  187.40   41.30
   4   4   2   61.50   30.92
  -4   4  -2   44.62   58.56
  -4   4  -2  142.52   19.50
  -4  -4  -2   32.16   21.40
   4  -4   2  157.03   58.54
  -4  -4  -2  155.59   24.17
   4   4   3   35.03   23.60
   4   4   3   13.76   13.45
  -4   4  -3   25.60   18.19
  -4   4  -3   34.84   10.28
  -4  -4  -3   38.37    9.15
   4  -4   3   43.87   32.55
  -4  -4  -3   35.89   15.05
   4   4   4   12.85   19.76
  -4   4  -4   17.38    8.06
  -4   4  -4   15.52   12.18
  -4  -4  -4   29.65   12.67
   4  -4   4   22.11   23.01
  -4  -4  -4   20.12   12.16
   4   4   5   52.16   29.99
  -4   4  -5   41.38   10.49
  -4   4  -5   46.63   19.74
  -4  -4  -5   64.47   20.88
   4  -4   5   64.33   31.02
  -4  -4  -5   85.91   20.67
   4   4   6   43.19   25.79
  -4   4  -6   38.00   17.14
  -4   4  -6   37.26    9.60
  -4  -4  -6   68.48   26.73
   4  -4   6   45.36   21.92
  -4  -4  -6   65.78   19.50
   4   4   7    8.68   12.87
  -4   4  -7    7.53    8.02
  -4   4  -7   -3.10    4.46
  -4  -4  -7   16.39   11.13
   4  -4   7   14.62    7.21
  -4  -4  -7   28.68   10.07
   4   4   8    8.06   10.30
  -4   4  -8   -1.67    6.66
  -4  -4  -8   12.38    8.56
  -4  -4  -8   -1.68    9.18
   4   4   9   22.22   14.60
  -4   4  -9    7.23    9.24
  -4  -4  -9    8.35    8.13
  -4  -4  -9   23.06    7.71
   4   4  10    4.06    8.80
  -4   4 -10    8.58    5.59
  -4  -4 -10   -0.42    7.11
  -4  -4 -10   -2.66    7.82
  -4   5  10   20.98    8.33
   4   5  -9    7.37    8.47
  -4   5   9    9.87    7.90
   4  -5  -9   14.64    8.49
   4   5  -8   19.29   22.87
  -4   5   8   22.86   12.23
   4  -5  -8   35.74   13.03
  -4  -5   8   24.28   13.25
   4   5  -7   17.20   10.99
  -4   5   7   11.74   10.60
   4  -5  -7   27.52   10.97
  -4  -5   7    5.90    9.55
   4   5  -6    6.42   14.23
  -4   5   6   15.19    6.17
   4  -5  -6    6.27   10.16
  -4  -5   6   11.39    6.85
   4   5  -5   34.13   15.95
   4   5  -5   14.63   19.05
  -4   5   5   34.36   13.35
   4  -5  -5   14.02   12.95
   4   5  -4   46.99   15.52
   4   5  -4   30.99   22.01
  -4   5   4   49.69   16.55
   4  -5  -4   34.22   14.07
   4  -5  -4   28.15   13.40
   4   5  -3   49.47   21.42
   4   5  -3   35.46   22.77
  -4   5   3   40.47   14.71
   4  -5  -3   40.68   13.65
   4  -5  -3   33.01   20.60
   4   5  -2   12.74   10.45
   4   5  -2   -5.53    8.98
  -4   5   2   -6.05    5.59
   4  -5  -2   12.83    5.29
   4  -5  -2  -21.09   10.01
   4   5  -1   40.69   19.05
   4   5  -1   23.64   15.99
  -4   5   1   14.16   21.41
  -4   5   1    7.54   10.07
   4  -5  -1   30.91   21.26
   4  -5  -1   17.94    9.69
   4   5   0   42.79   21.54
   4   5   0   18.24   17.43
  -4   5   0   32.15   11.88
  -4   5   0   -3.85   28.07
   4  -5   0   22.20   28.47
   4   5   1   32.57   15.08
   4   5   1   21.40   12.03
  -4   5  -1    0.21    8.29
  -4   5  -1   23.51   23.59
   4  -5   1   26.16   23.09
   4   5   2   11.74   12.92
  -4   5  -2   19.92    9.70
   4   5   2   18.19   18.24
  -4   5  -2   24.66   17.57
   4  -5   2   49.47   27.30
   4   5   3   -3.13   15.59
   4   5   3   15.60    9.32
  -4   5  -3    8.25    7.36
  -4   5  -3   14.87   11.78
  -4  -5  -3   12.56    9.03
   4  -5   3  -15.02   20.83
   4   5   4    2.80   11.21
  -4   5  -4    2.56    5.15
  -4   5  -4    5.03    8.95
  -4  -5  -4   -3.30    6.28
   4  -5   4   19.93   13.36
  -4  -5  -4    2.02    7.19
   4   5   5   26.12   17.53
  -4   5  -5   12.13    7.27
  -4   5  -5   16.04   11.59
  -4  -5  -5   11.42   10.86
   4  -5   5   44.91   18.77
  -4  -5  -5   10.96   12.65
   4   5   6   13.09   15.33
  -4   5  -6   10.99    5.88
  -4   5  -6    5.45    9.35
  -4  -5  -6   21.40   10.07
   4  -5   6    6.09   12.89
  -4  -5  -6   14.21   11.28
   4   5   7   27.96   15.77
  -4   5  -7   21.52    5.12
  -4   5  -7    5.07    9.36
  -4  -5  -7   16.32   10.82
   4  -5   7   10.65    9.00
  -4  -5  -7   23.63   12.83
   4   5   8    1.21   14.01
  -4   5  -8   16.18    9.57
  -4   5  -8   18.73    4.63
  -4  -5  -8   26.06   11.10
  -4  -5  -8   11.28   12.17
   4   5   9   -1.72   18.42
  -4   5  -9   51.67   12.19
  -4  -5  -9   85.54   15.89
  -4  -5  -9   50.19   16.28
   4   6  -8   36.01   12.99
  -4   6   8   43.01   10.30
   4  -6  -8   42.67   10.57
   4   6  -7   47.39   24.21
  -4   6   7   36.15    6.59
   4  -6  -7   32.62   10.68
  -4  -6   7   24.67   11.32
   4   6  -6   26.77   13.30
  -4   6   6   30.52   10.54
   4  -6  -6   23.00    9.65
  -4  -6   6   21.79   16.93
   4   6  -5   24.65   13.68
  -4   6   5    6.36    8.15
   4  -6  -5    9.94    6.98
  -4  -6   5   13.18    9.31
   4   6  -4   13.38   12.85
  -4   6   4   13.99    9.31
   4  -6  -4   14.75    7.30
  -4  -6   4   19.15   11.04
   4   6  -3   -4.68   10.37
  -4   6   3   -3.84    5.89
   4  -6  -3    4.25    5.70
  -4  -6   3   13.50    7.66
   4   6  -2   46.77   16.13
  -4   6   2   23.96   18.96
  -4   6   2   19.85    7.02
  -4  -6   2   19.11    8.86
   4  -6  -2   18.95   16.42
   4   6  -1    6.88   10.11
  -4   6   1  -11.33   11.14
  -4   6   1   -2.64    4.85
  -4  -6   1    1.99    4.20
   4  -6  -1  -10.80    9.78
   4   6   0    3.17   13.06
  -4   6   0   17.71   16.33
  -4   6   0    2.02    6.64
  -4  -6   0    9.03    5.40
   4  -6   0    2.72   15.29
   4   6   1   15.67   18.20
  -4   6  -1   16.06    9.60
  -4   6  -1   33.86   24.77
  -4  -6  -1   21.13   11.65
   4  -6   1   17.74   22.42
   4   6   2   43.29   14.72
  -4   6  -2   28.64   12.50
  -4   6  -2   79.30   34.45
  -4  -6  -2   40.87   12.02
   4  -6   2   28.89   30.36
   4   6   3   10.25   16.09
   4   6   3   12.20   10.00
  -4   6  -3   21.94    9.36
  -4   6  -3   33.23   14.08
   4  -6   3   33.56   23.07
   4   6   4    5.43    6.67
   4   6   4   13.50    7.76
  -4   6  -4    5.57    5.22
  -4   6  -4    7.20    7.74
   4  -6   4   15.98   14.73
   4   6   5   14.23   11.09
  -4   6  -5   19.16    8.35
   4   6   5   25.34   11.78
  -4   6  -5    1.21    6.24
   4  -6   5   33.09   13.81
   4   6   6    5.34    8.96
   4   6   6   15.22    9.18
  -4   6  -6    7.27    4.53
  -4   6  -6    3.04    6.23
   4  -6   6   15.07    8.87
   4   6   7   12.44   10.59
   4   6   7    8.19    9.96
  -4   6  -7   23.86    4.01
  -4   6  -7   12.80    8.48
   4   7  -4   18.25    9.00
  -4   7   4   13.61    5.59
  -4  -7   4   -6.02    7.53
   4   7  -3   10.70    5.67
  -4   7   3    5.19    5.30
  -4  -7   3    0.16    7.68
   4   7  -2   12.81    5.18
  -4   7   2    4.85    5.91
  -4   7   2   11.07    4.51
  -4  -7   2    0.13    8.55
   4  -7  -2    8.06    6.35
   4   7  -1   14.67    9.64
  -4   7   1    1.12    5.53
  -4   7   1    3.81    5.10
  -4  -7   1    0.27    7.12
   4  -7  -1   14.91    6.84
   4   7   0   22.04    8.55
  -4   7   0   -0.97    6.11
  -4   7   0   15.37    6.49
  -4  -7   0    0.80    7.11
   4  -7   0    7.92   10.78
   4   7   1   22.96    9.06
  -4   7  -1    7.51    6.35
  -4   7  -1   17.92    7.63
  -4  -7  -1    1.72    6.51
   4  -7   1    3.38   12.83
   4   7   2   37.63   12.20
  -4   7  -2    4.79    6.85
  -4   7  -2   14.17    6.95
   4  -7   2   20.87   14.50
   4   7   3    7.71    7.77
  -4   7  -3    0.08    4.20
  -4   7  -3    5.80    4.88
   4  -7   3    5.06    9.30
   5   0  -8    2.07    5.13
   5   0  -7    5.21    6.98
   5   0  -6   -3.73    5.74
   5   0  -6    3.69    4.64
   5   0  -5    2.94    6.94
   5   0  -5    2.86    5.88
   5   0  -4   20.69   11.85
   5   0  -4   15.65   10.26
   5   0  -3  241.34   41.31
   5   0  -3  229.12   42.58
   5   0  -2   43.34   19.85
   5   0  -2   67.73   19.12
   5   0  -1   25.98   17.87
   5   0  -1   30.87   14.70
   5   0   0   55.10   22.32
   5   0   0   58.30   20.37
   5   0   1   46.45   22.58
  -5   0  -1   92.13   15.19
   5   0   2   40.73   17.45
  -5   0  -2   68.23   19.22
   5   0   3   17.45   11.15
  -5   0  -3   31.70   13.03
  -5   0  -3   18.84   10.49
   5   0   4    2.26    5.78
  -5   0  -4    7.53    7.97
  -5   0  -4    0.82    6.65
   5   0   5   -2.25    4.36
  -5   0  -5    0.80    4.33
  -5   0  -5   -2.74    5.46
  -5   0  -6    6.91    9.19
  -5   0  -6   14.36   10.13
  -5   0  -7   38.84   13.51
  -5   0  -7    4.29   11.55
  -5   0  -8    5.14    7.03
  -5   0  -8    4.56    7.94
  -5   0  -9    1.59    9.74
  -5   0  -9   16.84   10.55
  -5   0 -10    0.01    8.51
  -5   0 -10   13.79    6.31
   5  -1 -10    1.96    4.25
   5  -1  -9   35.17   14.31
   5  -1  -8   64.33   20.25
   5   1  -7   11.28    7.42
   5  -1  -7    3.51    9.51
   5   1  -6    1.54    7.32
   5   1  -6   18.58    8.22
   5  -1  -6    8.28    9.73
   5  -1  -6    4.93    5.74
   5   1  -5   19.94    9.77
   5   1  -5   11.98    9.88
   5  -1  -5   19.36   13.70
   5  -1  -5    8.48    8.41
   5   1  -4   30.24   11.34
   5   1  -4   14.77   10.42
   5  -1  -4    9.02    9.43
   5  -1  -4   18.07   14.64
   5   1  -3   30.04   15.20
   5   1  -3   28.63   13.81
   5  -1  -3   30.24   18.73
   5  -1  -3   30.66   16.06
   5   1  -2    1.16    6.95
   5   1  -2    3.64    6.64
   5  -1  -2    2.86    8.52
   5  -1  -2    2.21    5.03
   5   1  -1   44.28   18.83
   5  -1  -1   52.14   19.71
   5  -1  -1   49.44   17.77
   5   1   0   17.79   12.81
   5  -1   0   20.24    7.86
   5  -1   0   24.08   16.33
  -5  -1   0   24.54   12.23
   5   1   1   21.85   15.42
   5  -1   1   36.05   17.88
   5  -1   1   34.42   15.44
  -5  -1  -1   50.65   15.59
  -5   1  -2   78.80   13.86
   5   1   2   52.00   19.51
  -5  -1  -2   92.56   21.53
   5  -1   2   48.52   20.42
   5   1   3   68.14   21.72
  -5   1  -3   66.01   15.60
  -5   1  -3  127.29   23.78
  -5  -1  -3  140.83   27.92
   5  -1   3   81.55   21.02
   5   1   4   38.78   16.24
  -5   1  -4  116.42   21.02
  -5   1  -4   71.36   15.78
  -5  -1  -4   60.04   19.47
   5  -1   4   59.87   17.80
  -5  -1  -4  137.01   27.37
   5   1   5   37.80   13.62
  -5   1  -5   61.75   18.42
  -5   1  -5  110.64   21.19
  -5  -1  -5   98.06   22.01
   5  -1   5   75.06   19.84
  -5  -1  -5  109.89   25.47
   5   1   6   57.23   24.12
  -5   1  -6  104.94   24.05
  -5   1  -6   90.25   22.76
  -5  -1  -6  122.31   30.46
  -5  -1  -6  103.27   27.87
   5   1   7   23.31   15.01
  -5   1  -7   38.06   13.72
  -5   1  -7   27.75   18.60
  -5  -1  -7   60.76   18.85
  -5  -1  -7   24.75   16.90
   5   1   8   11.50    8.11
  -5   1  -8    7.34    7.08
  -5   1  -8    4.85    8.43
  -5  -1  -8    5.63    9.73
  -5  -1  -8    2.68    9.20
   5   1   9    3.65    5.98
  -5   1  -9    6.07    6.03
  -5   1  -9    2.98    6.00
  -5  -1  -9    7.19    9.59
  -5  -1  -9   -4.64    7.16
   5   1  10    1.95    4.79
  -5   1 -10   -5.38    6.67
  -5  -1 -10   -3.81    5.45
  -5  -1 -10   17.67    5.97
   5  -2 -11   10.87    4.48
   5  -2 -10    6.29    7.23
   5  -2  -9    2.65    6.77
   5  -2  -8    0.40    5.98
   5   2  -7   16.84    9.25
   5  -2  -7    0.13   11.02
   5   2  -6    9.46    8.50
   5  -2  -6    0.94   10.16
   5   2  -5   12.87    8.78
   5  -2  -5    1.43   10.70
   5  -2  -5    4.86    5.95
   5   2  -4   21.66   15.20
   5  -2  -4   30.71   16.75
   5  -2  -4   22.05    8.42
   5   2  -3  180.20   37.17
   5  -2  -3  157.79   40.89
   5  -2  -3   97.43   25.31
  -5  -2   3  121.83   21.57
   5   2  -2   76.15   23.03
   5  -2  -2   65.80   27.89
   5  -2  -2   48.71   21.26
  -5  -2   2   70.21   16.07
   5   2  -1    6.66    9.73
   5  -2  -1    6.52   10.03
   5  -2  -1    8.71    5.86
  -5  -2   1    3.08    7.15
   5   2   0   27.29   15.71
   5   2   0   56.57   20.90
   5  -2   0   49.85   20.25
   5  -2   0   53.72   21.99
  -5  -2   0   80.76   15.65
   5   2   1   25.96   16.92
   5   2   1   57.15   19.77
   5  -2   1   53.00   22.62
   5  -2   1   54.62   23.45
  -5  -2  -1   81.90   18.01
   5   2   2   39.90   13.02
   5   2   2   23.83   12.27
  -5   2  -2   18.57    7.54
  -5   2  -2   -0.43    7.10
  -5  -2  -2   52.81   12.91
   5  -2   2   31.63   15.47
   5   2   3   12.37    9.98
  -5   2  -3   15.98    9.87
   5   2   3   16.67   12.70
  -5   2  -3   13.67    7.66
  -5  -2  -3   27.10   13.11
   5  -2   3   17.41   12.20
   5   2   4   13.96    9.83
   5   2   4    6.04    7.30
  -5   2  -4    4.81    4.46
  -5   2  -4    3.42    6.49
  -5  -2  -4    4.65    6.21
   5  -2   4    9.06    5.01
  -5  -2  -4    5.74    9.41
   5   2   5    4.32    6.06
  -5   2  -5    1.49    4.26
  -5   2  -5   -1.40    4.17
  -5  -2  -5    0.49    4.12
   5  -2   5   -1.09    3.94
  -5  -2  -5   -2.55    6.16
   5   2   6   16.43   12.38
  -5   2  -6   10.52    7.83
  -5   2  -6    6.07    9.02
  -5  -2  -6   20.64   14.26
   5  -2   6   13.95    6.58
  -5  -2  -6   18.22    9.58
   5   2   7    0.51   11.00
  -5   2  -7    9.61    9.38
  -5  -2  -7   14.54    9.06
  -5  -2  -7   23.02   12.90
   5   2   8   17.85   13.20
  -5   2  -8    9.35   14.33
  -5  -2  -8   35.82   16.40
  -5  -2  -8   22.58   19.73
   5   2   9    0.79    7.27
  -5   2  -9   -6.08    6.58
  -5  -2  -9   14.47    8.92
  -5  -2  -9   14.59    9.30
   5   2  10    4.54    6.38
  -5   2 -10   -1.76    5.54
  -5  -2 -10    4.61    6.59
  -5  -2 -10   15.15    7.24
   5  -3 -10   18.25    9.45
   5  -3  -9   22.79   12.49
   5   3  -8   15.88    9.17
   5  -3  -8   16.67   12.37
   5   3  -7   18.05    9.83
  -5   3   7    9.61    6.44
   5  -3  -7    8.01   10.61
   5   3  -6   11.86   11.12
   5  -3  -6   15.23   13.09
   5   3  -5   39.25   12.41
   5   3  -5   37.81   14.63
   5  -3  -5   34.51   19.32
   5  -3  -5   28.38   12.36
   5   3  -4   15.63    8.56
   5   3  -4   15.35   12.94
   5  -3  -4   19.93   13.25
   5  -3  -4    7.56    7.76
   5   3  -3   53.33   20.01
   5   3  -3   34.10   13.90
   5  -3  -3   48.59   21.13
   5  -3  -3   24.43   14.22
   5   3  -2    0.26    6.38
   5   3  -2   -0.65    6.90
   5  -3  -2    2.81    7.21
   5  -3  -2   -2.59    5.73
   5   3  -1  127.25   21.02
   5   3  -1  127.87   30.96
   5  -3  -1   76.40   29.38
   5  -3  -1   79.66   31.83
  -5  -3   1  114.46   19.77
   5   3   0   11.00   11.54
   5   3   0    8.26   11.48
   5  -3   0    9.12    9.59
   5  -3   0   15.05   12.94
  -5  -3   0   11.82    7.96
   5   3   1   12.18   13.79
   5   3   1   22.96   13.87
   5  -3   1   18.86   13.73
   5  -3   1   24.27   17.06
  -5  -3  -1   29.24   10.77
   5   3   2   23.54   14.87
   5   3   2   32.78   12.50
  -5   3  -2    7.25    7.48
  -5   3  -2   17.23    6.60
  -5  -3  -2   42.98   11.60
   5  -3   2   33.86   16.22
   5   3   3   57.51   22.57
  -5   3  -3   94.92   18.18
   5   3   3  110.77   31.53
  -5   3  -3   71.64   15.78
  -5  -3  -3  113.18   24.20
   5  -3   3   98.96   28.93
   5   3   4   33.22   14.96
   5   3   4    7.17    8.89
  -5   3  -4   10.87    7.25
  -5   3  -4    9.29    8.83
  -5  -3  -4   20.32    7.96
   5  -3   4   17.07   12.10
  -5  -3  -4   21.79    8.95
   5   3   5   -4.34   10.85
  -5   3  -5    4.15    6.71
  -5  -3  -5    7.54    7.17
  -5  -3  -5   12.17    9.85
   5  -3   5    4.74    7.26
   5   3   6   36.02   18.81
  -5   3  -6   17.11   12.58
  -5  -3  -6   36.58   14.08
  -5  -3  -6   58.84   18.26
   5  -3   6   29.23   10.84
   5   3   7   21.94   15.84
  -5   3  -7    7.99   10.39
  -5  -3  -7   28.10   12.02
  -5  -3  -7   47.43   19.90
   5   3   8   12.60    6.77
  -5   3  -8   -7.99    3.03
  -5  -3  -8    9.97    5.44
  -5  -3  -8   14.49    6.98
   5   3   9   -1.99    5.53
  -5   3  -9    1.25    5.28
  -5  -3  -9    2.16    5.33
  -5  -3  -9    0.11    5.97
   5  -4  -9   12.79    8.99
   5   4  -8   -0.39    4.75
   5  -4  -8   11.07    4.87
   5   4  -7    9.06    8.75
  -5   4   7    3.10    4.80
   5  -4  -7    8.80    7.86
  -5  -4   7    1.45    3.72
   5   4  -6   -3.96    5.21
   5   4  -6    0.64    7.40
  -5   4   6   -0.53    4.67
   5  -4  -6   -7.09    7.76
   5   4  -5   13.59   13.41
   5   4  -5   17.47   11.75
  -5   4   5   12.11    6.61
   5  -4  -5   18.61   12.30
   5   4  -4   19.19   11.00
   5   4  -4   16.22   14.05
  -5   4   4   16.67    7.20
   5  -4  -4   21.67   14.26
   5  -4  -4   17.44    7.71
   5   4  -3   24.20   15.88
   5   4  -3   22.02   15.76
  -5   4   3   14.02    7.55
   5  -4  -3   36.57   14.77
   5  -4  -3   24.98   11.17
   5   4  -2   72.71   19.14
   5   4  -2   48.66   20.24
   5  -4  -2   28.93   13.90
   5  -4  -2   -2.65   14.67
   5   4  -1   38.38   16.30
   5   4  -1   22.08   16.85
   5  -4  -1   24.03   10.69
   5  -4  -1   -1.21   13.94
   5   4   0   66.18   20.51
   5   4   0   41.41   21.72
   5  -4   0   45.74   15.46
   5  -4   0    1.63   23.30
   5   4   1   17.02   12.74
   5   4   1   18.23   13.38
  -5   4  -1    9.58    6.20
   5  -4   1   24.47    8.49
   5  -4   1    1.43   15.64
   5   4   2   19.39   16.07
   5   4   2   24.63   13.23
   5  -4   2   34.57   19.50
  -5  -4  -2   27.08   11.47
   5   4   3   -4.04    5.86
   5   4   3    9.24    6.19
  -5   4  -3    1.54    5.08
   5  -4   3   17.50   10.35
  -5  -4  -3    6.55    6.90
   5   4   4    2.96   10.97
  -5   4  -4    2.61    5.83
   5  -4   4   13.18    8.79
  -5  -4  -4    5.45    7.92
   5   4   5   -0.75    9.11
  -5   4  -5   -0.91    5.46
  -5  -4  -5    3.41    5.26
  -5  -4  -5   -4.20    9.19
   5  -4   5   10.56    6.29
   5   4   6   12.40   10.25
  -5   4  -6    4.66    6.05
   5  -4   6    0.71    5.15
  -5  -4  -6    4.64    6.18
  -5  -4  -6    8.23    8.31
   5   4   7   11.65   10.21
  -5   4  -7   -1.17    6.19
  -5  -4  -7   10.75    4.20
  -5  -4  -7   17.59    8.62
   5  -4   7    3.68    3.41
   5   4   8   11.87   10.02
  -5   4  -8   -5.61    6.79
  -5  -4  -8    5.17    7.04
  -5  -4  -8   36.34    8.68
   5   5  -7   26.10    9.21
   5  -5  -7   31.29    7.49
   5   5  -6   29.56   10.24
  -5   5   6   22.71    7.72
   5  -5  -6   37.21    7.81
  -5  -5   6   16.74   12.18
   5   5  -5   52.89   20.26
  -5   5   5   20.66    7.24
   5  -5  -5   35.90   11.49
  -5  -5   5    7.68    7.47
   5   5  -4    6.89   10.56
   5   5  -4   12.96   12.46
  -5   5   4   15.42    5.59
   5  -5  -4   12.90    7.35
   5  -5  -4    2.11    4.55
   5   5  -3   10.57   12.71
   5   5  -3   13.14   13.30
  -5   5   3   13.31    6.46
   5  -5  -3   18.62    8.06
   5  -5  -3    9.61    7.52
   5   5  -2    1.68    5.99
   5   5  -2   -6.70    7.38
  -5   5   2    1.57    3.10
   5  -5  -2    0.56    2.39
   5  -5  -2    0.14    5.05
   5   5  -1   25.17   11.16
   5   5  -1    5.27   10.12
  -5   5   1    4.43    4.38
   5  -5  -1    7.34    5.88
   5  -5  -1   -2.03    8.59
   5   5   0  -12.66    7.97
   5   5   0   -0.91    6.85
  -5   5   0    3.34    3.07
   5  -5   0   -1.54    7.39
   5   5   1    4.22    8.20
   5   5   1   18.57   10.45
  -5   5  -1    3.75    3.95
  -5   5  -1    3.96    3.88
   5  -5   1   -1.77   10.19
   5   5   2   22.87    9.84
   5   5   2   27.18   11.82
  -5   5  -2   14.03    7.11
   5  -5   2   36.21   15.93
  -5   5  -3   25.67    8.27
   5   5   3   29.60   16.36
  -5  -5  -3   23.61    5.75
   5  -5   3   35.42   16.81
   5   5   4   -2.20    8.29
  -5   5  -4    4.76    4.69
   5  -5   4    7.38    6.89
  -5  -5  -4    0.98    4.56
   5   5   5    2.33    4.90
   5   5   5   16.97    7.92
  -5   5  -5   -6.51    4.87
   5  -5   5    7.77    5.80
  -5  -5  -5    5.43    4.77
   5   5   6   13.18    6.49
  -5   5  -6   -7.42    4.13
   5  -5   6    0.77    3.58
  -5  -5  -6    8.59    4.42
   5   6  -4   29.94   12.61
  -5   6   4    2.44    3.72
  -5  -6   4   13.25    6.45
   5   6  -3    3.73    7.07
  -5   6   3    2.29    3.15
  -5  -6   3    0.78    5.80
   5   6  -2   21.39    9.21
  -5   6   2    9.33    5.01
   5  -6  -2   17.11    6.23
  -5  -6   2    1.27    8.62
   5   6  -1  100.40   20.64
  -5   6   1   49.24    8.62
   5  -6  -1   42.97   13.73
  -5  -6   1   -0.29   15.70
   5   6   0   37.38    9.56
  -5   6   0    0.24    4.45
   5  -6   0   28.86    8.43
  -5  -6   0    1.50    7.01
   5   6   1   11.98   10.87
  -5   6  -1    7.53    3.13
  -5   6  -1    4.49    3.25
  -5  -6  -1   14.20    5.58
   5  -6   1    8.39    8.37
   5   6   2   24.80   10.42
  -5   6  -2    6.06    3.67
   5  -6   2    5.31    8.39
   5   6   3    9.43    8.27
  -5   6  -3    1.96    3.62
   5  -6   3    7.03    6.18
   6   0  -7   14.73    7.35
   6   0  -6    1.11    5.14
   6   0  -6    4.04    5.66
   6   0  -5   17.03    9.98
   6   0  -5   11.40    9.14
   6   0  -4   17.24   11.08
   6   0  -3   -2.03    6.51
  -6   0   3   -2.00    3.98
   6   0  -2    0.98    7.09
  -6   0   2    3.32    4.34
   6   0  -1   -2.11    6.66
  -6   0   1   -0.46    6.59
   6   0   0   13.44   11.86
  -6   0   0   18.32   11.55
   6   0   1   11.08    8.57
  -6   0  -1    1.10    8.94
   6   0   2    8.20    8.05
  -6   0  -2    5.13    8.82
   6   0   3   32.97   13.59
  -6   0  -3   60.26   18.03
   6   0   4   51.69   15.74
  -6   0  -4  128.40   23.98
   6   0   5   12.54    6.21
  -6   0  -5    7.84    6.18
  -6   0  -5   23.35   10.36
  -6   0  -6    8.98    6.72
  -6   0  -6   19.52   10.61
  -6   0  -7   13.65    7.68
  -6   0  -7   48.45   11.67
  -6   0  -8   12.34    5.80
  -6   0  -8   17.26    6.15
   6  -1  -8    9.74    7.06
   6   1  -7    5.74    5.18
   6  -1  -7    7.81    7.66
   6   1  -6   -3.19    5.76
   6  -1  -6    4.09    5.93
   6  -1  -6    4.95    4.72
   6   1  -5   -3.86    7.43
   6  -1  -5    7.07    5.52
   6  -1  -5    3.33    7.44
  -6  -1   5    6.47    4.76
   6   1  -4   13.85   10.44
   6  -1  -4   14.37   11.35
   6  -1  -4    0.90    7.62
  -6  -1   4   13.48    7.00
   6   1  -3   14.99    9.95
   6  -1  -3   13.91   11.79
   6  -1  -3   -0.30    8.58
  -6  -1   3   10.87    7.35
   6   1  -2  158.47   36.51
   6  -1  -2  166.51   37.59
   6  -1  -2  138.09   21.03
  -6  -1   2  153.27   27.39
  -6   1   1   -1.69    4.36
   6  -1  -1    1.80    6.77
  -6  -1   1    6.93    5.87
   6   1   0   24.23   14.76
  -6   1   0   30.75    9.60
   6  -1   0   32.97   15.44
  -6  -1   0   33.59    8.34
   6   1   1   17.06   10.08
  -6   1  -1    9.99   10.48
   6  -1   1   16.45   10.65
  -6  -1  -1    9.00   11.12
  -6   1  -2   12.74   10.45
   6  -1   2   10.63   10.03
  -6  -1  -2   18.10   11.41
   6   1   3    7.66   10.45
  -6   1  -3   26.54   11.87
   6  -1   3   20.60   10.38
  -6  -1  -3   22.26   13.39
  -6   1  -4   14.16    9.35
   6   1   4    0.38    7.63
  -6  -1  -4    5.16    9.92
   6  -1   4   17.44    7.24
  -6   1  -5    2.55    4.08
  -6   1  -5    5.98    6.70
  -6  -1  -5    5.84    8.02
   6  -1   5    5.91    4.69
  -6   1  -6   15.83    6.07
  -6   1  -6   -3.62    4.89
  -6  -1  -6    0.15    7.87
  -6  -1  -6    1.03    5.52
  -6   1  -7   18.73    7.48
  -6   1  -7    7.69    7.30
  -6  -1  -7   22.11   10.44
  -6  -1  -7    9.94    8.44
   6  -2  -8   19.88    8.54
   6   2  -7    5.30    7.41
   6  -2  -7   25.31    9.00
   6   2  -6    6.58    6.91
   6  -2  -6    4.14    7.85
   6   2  -5   -3.05    7.31
   6  -2  -5   11.06    7.53
   6  -2  -5    4.09    4.74
   6   2  -4   24.73   13.70
   6  -2  -4   23.35   12.75
   6  -2  -4   17.23    9.53
   6   2  -3   15.21    7.65
   6  -2  -3   42.30   13.94
   6  -2  -3   -1.33    9.43
  -6  -2   3   16.22    7.04
   6   2  -2    8.38    9.84
   6  -2  -2   13.21   10.89
   6  -2  -2   -0.79    4.85
  -6  -2   2   13.97    6.21
   6   2  -1   11.20    7.76
   6  -2  -1   -7.81    7.30
   6  -2  -1   -0.22    6.46
  -6  -2   1    2.58    5.17
   6   2   0   18.03   13.10
  -6   2   0   12.60    6.81
   6  -2   0    1.28   14.10
  -6  -2   0   23.43   10.11
   6   2   1   14.14    9.36
  -6   2  -1    5.40    8.08
   6  -2   1    0.15   10.50
  -6  -2  -1    4.36    8.04
   6   2   2    9.80   10.06
  -6   2  -2    3.15    8.63
   6  -2   2   23.67   12.13
  -6  -2  -2   14.50    5.98
   6   2   3   19.35    6.51
  -6   2  -3   20.74   10.68
   6  -2   3   22.42   10.94
  -6  -2  -3   32.01   12.78
   6   2   4   19.65   11.87
  -6   2  -4   68.54    9.36
   6  -2   4   40.18    8.04
  -6  -2  -4   61.40   19.42
  -6   2  -5    3.31    5.65
  -6   2  -5   23.57    6.74
  -6  -2  -5   13.28   10.86
   6  -2   5    8.77    6.17
  -6   2  -6    9.25    5.45
  -6   2  -6   21.04    5.76
  -6  -2  -6   14.68    9.80
   6  -2   6    5.75    3.93
  -6  -2  -6    7.79    4.73
  -6   2  -7   12.18    5.82
  -6  -2  -7   42.59   14.63
   6   3  -7   10.33    5.35
   6  -3  -7    5.90    7.35
   6   3  -6   16.43    8.14
   6  -3  -6    2.39    8.32
   6   3  -5    9.85    5.46
   6  -3  -5    8.46    5.32
   6  -3  -5   -4.01    2.80
   6   3  -4   15.47   12.02
   6  -3  -4   16.64   10.52
   6  -3  -4   14.96    7.21
   6   3  -3   19.51    7.86
   6  -3  -3   20.77   11.23
   6  -3  -3   -1.97    7.65
   6   3  -2   60.26   18.57
   6  -3  -2   37.29   15.71
   6  -3  -2   -0.02   14.73
   6   3  -1   35.94   13.17
   6  -3  -1   13.58   11.39
   6  -3  -1    0.00   13.40
   6   3   0   35.23   12.88
  -6   3   0   14.01    5.97
   6  -3   0    0.93   14.18
  -6  -3   0   19.30    7.71
   6   3   1   11.62   11.31
  -6   3  -1   12.07    8.61
   6  -3   1   17.14   13.42
  -6  -3  -1   19.49    8.93
   6   3   2   25.34   10.97
  -6   3  -2   11.33    7.75
   6  -3   2    7.47   12.78
  -6  -3  -2   15.44    9.60
   6   3   3    7.72    8.69
  -6   3  -3   12.18    6.99
   6   3   3   16.34    8.07
  -6  -3  -3   17.71    9.55
   6  -3   3   18.34   11.18
   6   3   4    4.41    6.39
  -6   3  -4    3.62    4.62
  -6   3  -4    8.51    4.97
  -6  -3  -4   20.20    8.00
   6  -3   4    6.96    7.81
   6   3   5    5.13    5.37
  -6   3  -5    7.37    4.86
   6  -3   5    3.26    4.68
  -6  -3  -5    9.08    7.30
  -6   3  -6    6.39    3.87
  -6  -3  -6   -2.65    8.91
   6   4  -5    5.02    7.48
   6  -4  -5    6.30    7.03
   6   4  -4   30.01   11.37
   6  -4  -4   21.39    9.50
   6  -4  -4    8.81    5.13
   6   4  -3   17.89    8.38
   6   4  -3    9.50   12.50
   6  -4  -3   30.82    9.38
   6  -4  -3    3.97    6.59
   6   4  -2    8.99    5.48
   6   4  -2   -6.22    9.64
   6  -4  -2    4.67    6.34
   6  -4  -2   11.12    7.52
   6   4  -1    7.69    4.13
   6   4  -1   -6.47    6.10
  -6   4   1   -2.70    2.33
   6  -4  -1    9.26    5.73
   6   4   0   19.86    7.28
   6   4   0   19.75   11.53
  -6   4   0    8.40    6.73
   6  -4   0   18.68    9.30
   6   4   1    1.41    5.29
   6   4   1    6.04    7.37
  -6   4  -1    5.98    4.00
   6  -4   1    7.23    6.75
   6   4   2   19.77    8.76
   6   4   2   10.55    8.02
  -6   4  -2   10.46    4.36
   6  -4   2   13.46    7.95
  -6  -4  -2   17.07    7.26
   6   4   3   16.08    8.46
   6  -4   3   19.95    9.91
  -6  -4  -3    9.87    6.84
   6   4   4   45.28    9.29
   6  -4   4   19.43   10.51
  -6  -4  -4   16.27    8.59
   7   0  -4   10.86    6.79
   7   0  -3   20.17   10.19
  -7   0   3   18.17    7.23
   7   0  -2   20.05   11.74
  -7   0   2   23.40    9.18
   7   0  -1   28.64   13.59
  -7   0   1   28.29   10.70
   7   0   0   -2.65    6.43
  -7   0   0   12.38    6.32
   7   0   1   20.82    8.97
  -7   0  -1   15.79    9.75
   7   0   2    8.11    5.86
  -7   0  -2    2.44    3.84
   7   0   3    8.18    5.83
  -7   0  -3   14.59    7.75
   7   1  -4   23.07    9.21
  -7   1   4   13.41    6.75
   7  -1  -4   11.50    6.94
   7   1  -3   17.28   10.61
  -7   1   3   28.08    8.39
   7  -1  -3   14.43    8.73
   7   1  -2   15.47    9.13
  -7   1   2   10.10    7.45
   7  -1  -2    7.18    8.32
  -7  -1   2   16.75    6.49
   7   1  -1    4.00    3.81
  -7   1   1   -4.09    5.35
   7  -1  -1    8.71    5.69
  -7  -1   1    3.54    5.00
   7   1   0   -8.06    4.96
  -7   1   0    3.41    4.95
   7  -1   0   -1.03    4.34
  -7  -1   0    1.92    4.12
   7   1   1   10.05    5.02
  -7   1  -1   20.68    9.03
   7  -1   1   15.52    7.43
  -7  -1  -1   16.26    7.59
   7   1   2   12.09    5.78
  -7   1  -2    2.35    7.06
   7  -1   2    9.52    6.11
  -7  -1  -2    2.95    6.52
   7   2  -2    9.20    5.86
  -7   2   2   10.67    6.76
   7  -2  -2   10.48    6.19
   7   2  -1   16.03   11.24
  -7   2   1   19.28    5.20
   7  -2  -1   21.29    8.44
   7   2   0   14.37    9.37
  -7   2   0    9.44    7.63
   7  -2   0   16.98    7.62
   7   2   1   15.76    9.14
  -7   2  -1   17.32    8.06
   7  -2   1   17.28    7.54
   0   0   0    0.00    0.00

_computing_structure_solution     'SHELXT 2014/5 (Sheldrick, 2014)'
;
_shelx_hkl_checksum              51996
loop_
_space_group_symop_id
_space_group_symop_operation_xyz
1 +X,+Y,+Z
2 -X,1/2+Y,-Z
loop_
_atom_site_label
_atom_site_type_symbol
_atom_site_fract_x
_atom_site_fract_y
_atom_site_fract_z
_atom_site_U_iso_or_equiv
_atom_site_adp_type
_atom_site_occupancy
_atom_site_site_symmetry_order
_atom_site_calc_flag
_atom_site_refinement_flags_posn
_atom_site_refinement_flags_adp
_atom_site_refinement_flags_occupancy
_atom_site_disorder_assembly
_atom_site_disorder_group
Ni1 Ni 0.2897(3) 0.5182(7) 0.45792(14) 0.0439(6) Uani 1 1 d . . . . .
N1 N 0.3575(14) 0.4305(10) 0.5861(6) 0.040(2) Uani 1 1 d . . . . .
H1 H 0.479051 0.372266 0.599830 0.049 Uiso 1 1 calc R U . . .
N2 N 0.0403(14) 0.5972(12) 0.5168(6) 0.045(3) Uani 1 1 d . . . . .
H2 H -0.058995 0.658739 0.482239 0.054 Uiso 1 1 calc R U . . .
N3 N 0.5431(13) 0.4410(10) 0.3984(7) 0.042(3) Uani 1 1 d . . . . .
H3 H 0.651162 0.392154 0.434119 0.051 Uiso 1 1 calc R U . . .
N4 N 0.2156(14) 0.5952(10) 0.3277(7) 0.045(3) Uani 1 1 d . . . . .
H4 H 0.094794 0.654730 0.314615 0.054 Uiso 1 1 calc R U . . .
C1 C 0.0560(19) 0.4614(16) 0.8247(10) 0.049(4) Uani 1 1 d . . . . .
H1A H 0.067076 0.434985 0.894933 0.059 Uiso 0.476(12) 1 calc R U P A 2
F1B F -0.292(2) 0.5911(19) 0.8473(11) 0.074(6) Uani 0.476(12) 1 d . . P A 2
C2 C -0.134(2) 0.551(2) 0.7828(10) 0.051(4) Uani 1 1 d . . . . .
H1B H -0.248112 0.579885 0.826019 0.061 Uiso 0.524(12) 1 calc R U P A 1
F1A F 0.057(2) 0.4182(17) 0.9258(10) 0.070(5) Uani 0.524(12) 1 d . . P A 1
C3 C 0.2227(18) 0.4131(14) 0.7635(9) 0.042(3) Uani 1 1 d . . . . .
H3A H 0.344798 0.349111 0.790912 0.051 Uiso 1 1 calc R U . . .
C4 C -0.1555(18) 0.5970(13) 0.6819(10) 0.044(3) Uani 1 1 d . . . . .
H4A H -0.283337 0.655327 0.656160 0.053 Uiso 1 1 calc R U . . .
C5 C 0.2098(18) 0.4603(14) 0.6585(9) 0.041(3) Uani 1 1 d . . . . .
C6 C 0.0163(17) 0.5558(17) 0.6165(8) 0.036(3) Uani 1 1 d . . . . .
C7 C 0.5509(18) 0.4648(14) 0.2963(9) 0.039(3) Uani 1 1 d . . . . .
C8 C 0.3525(18) 0.5572(17) 0.2536(9) 0.037(4) Uani 1 1 d . . . . .
C9 C 0.7167(18) 0.4099(14) 0.2316(9) 0.044(3) Uani 1 1 d . . . . .
H9 H 0.843751 0.352282 0.258815 0.053 Uiso 1 1 calc R U . . .
C10 C 0.3322(18) 0.5854(14) 0.1463(8) 0.045(3) Uani 1 1 d . . . . .
H10 H 0.207559 0.643360 0.116805 0.054 Uiso 1 1 calc R U . . .
C11 C 0.691(2) 0.4413(16) 0.1282(11) 0.054(4) Uani 1 1 d . . . . .
H2B H 0.801983 0.406306 0.084685 0.065 Uiso 0.486(12) 1 calc R U P B 2
F2A F 0.491(2) 0.548(4) -0.0143(10) 0.085(7) Uani 0.486(12) 1 d . . P B 2
C12 C 0.4962(19) 0.527(3) 0.0865(9) 0.054(3) Uani 1 1 d . . . . .
H2A H 0.480534 0.543834 0.015348 0.064 Uiso 0.514(12) 1 calc R U P B 1
F2B F 0.837(2) 0.389(2) 0.0601(10) 0.073(5) Uani 0.514(12) 1 d . . P B 1
loop_
_atom_site_aniso_label
_atom_site_aniso_U_11
_atom_site_aniso_U_22
_atom_site_aniso_U_33
_atom_site_aniso_U_23
_atom_site_aniso_U_13
_atom_site_aniso_U_12
Ni1 0.0400(9) 0.0380(9) 0.0530(11) -0.0016(14) -0.0053(8) 0.0009(14)
N1 0.035(5) 0.037(6) 0.049(6) 0.002(5) -0.001(5) -0.001(5)
N2 0.045(6) 0.052(7) 0.038(6) -0.001(5) -0.001(5) 0.013(5)
N3 0.039(6) 0.038(6) 0.049(6) 0.003(5) -0.006(5) 0.001(5)
N4 0.034(6) 0.049(7) 0.053(7) 0.000(6) 0.000(5) 0.001(5)
C1 0.046(8) 0.052(10) 0.050(9) -0.004(7) -0.004(7) -0.011(7)
F1B 0.057(11) 0.080(14) 0.088(12) 0.007(10) 0.018(8) 0.010(9)
C2 0.039(7) 0.048(11) 0.066(9) -0.007(9) 0.011(7) 0.000(9)
F1A 0.082(10) 0.081(11) 0.046(9) 0.013(8) -0.012(8) -0.003(9)
C3 0.033(7) 0.043(7) 0.052(8) -0.002(7) 0.005(6) 0.000(6)
C4 0.026(6) 0.043(8) 0.063(9) -0.001(7) -0.001(6) -0.003(6)
C5 0.043(7) 0.044(9) 0.036(7) -0.002(6) 0.014(6) -0.012(6)
C6 0.036(6) 0.034(10) 0.040(7) -0.005(6) 0.004(6) -0.011(6)
C7 0.040(6) 0.034(9) 0.045(8) -0.008(6) 0.009(6) -0.005(6)
C8 0.041(6) 0.028(10) 0.041(7) 0.000(6) -0.005(6) -0.003(6)
C9 0.042(7) 0.040(7) 0.051(8) 0.002(7) 0.000(6) -0.008(6)
C10 0.042(7) 0.050(8) 0.042(7) -0.006(6) -0.004(6) 0.000(6)
C11 0.049(8) 0.056(9) 0.058(10) -0.003(7) 0.012(7) -0.002(7)
F2A 0.071(9) 0.139(18) 0.046(9) 0.001(15) 0.004(7) 0.028(16)
C12 0.061(7) 0.063(8) 0.037(7) -0.008(11) 0.005(6) 0.008(12)
F2B 0.073(10) 0.101(12) 0.047(10) 0.000(9) 0.016(8) 0.023(9)
loop_
_atom_type_symbol
_atom_type_description
_atom_type_scat_dispersion_real
_atom_type_scat_dispersion_imag
_atom_type_scat_source
C C 0.0181 0.0091
;
International Tables for Crystallography
(Vol. C, Tables 4.2.6.8 and 6.1.1.4)
;
H H 0.0000 0.0000
;
International Tables for Crystallography
(Vol. C, Table 6.1.1.4)
;
F F 0.0727 0.0534
;
International Tables for Crystallography
(Vol. C, Tables 4.2.6.8 and 6.1.1.4)
;
N N 0.0311 0.0180
;
International Tables for Crystallography
(Vol. C, Tables 4.2.6.8 and 6.1.1.4)
;
Ni Ni -3.0029 0.5091
;
International Tables for Crystallography
(Vol. C, Tables 4.2.6.8 and 6.1.1.4)
;
loop_
_geom_angle_atom_site_label_1
_geom_angle_atom_site_label_2
_geom_angle_atom_site_label_3
_geom_angle
N1 Ni1 N2 83.4(4)
N1 Ni1 N4 177.1(5)
N2 Ni1 N4 96.8(4)
N1 Ni1 N3 96.8(4)
N2 Ni1 N3 179.4(6)
N4 Ni1 N3 83.1(4)
C5 N1 Ni1 117.0(8)
C5 N1 H1 121.5
Ni1 N1 H1 121.5
C6 N2 Ni1 117.4(7)
C6 N2 H2 121.3
Ni1 N2 H2 121.3
C7 N3 Ni1 116.4(7)
C7 N3 H3 121.8
Ni1 N3 H3 121.8
C8 N4 Ni1 118.3(8)
C8 N4 H4 120.9
Ni1 N4 H4 120.9
F1A C1 C3 122.4(13)
F1A C1 C2 117.0(13)
C3 C1 C2 120.6(13)
C3 C1 H1A 119.7
C2 C1 H1A 119.7
F1B C2 C4 120.9(14)
F1B C2 C1 117.0(14)
C4 C2 C1 122.1(13)
C4 C2 H1B 119.0
C1 C2 H1B 119.0
C1 C3 C5 119.5(12)
C1 C3 H3A 120.2
C5 C3 H3A 120.2
C2 C4 C6 119.4(12)
C2 C4 H4A 120.3
C6 C4 H4A 120.3
N1 C5 C3 129.0(11)
N1 C5 C6 111.5(10)
C3 C5 C6 119.5(10)
N2 C6 C4 130.4(11)
N2 C6 C5 110.6(10)
C4 C6 C5 118.9(10)
N3 C7 C9 128.0(11)
N3 C7 C8 111.7(10)
C9 C7 C8 120.2(11)
N4 C8 C10 131.1(11)
N4 C8 C7 110.4(10)
C10 C8 C7 118.4(11)
C11 C9 C7 119.4(12)
C11 C9 H9 120.3
C7 C9 H9 120.3
C12 C10 C8 119.1(11)
C12 C10 H10 120.4
C8 C10 H10 120.4
F2B C11 C9 123.7(13)
F2B C11 C12 115.8(13)
C9 C11 C12 120.4(13)
C9 C11 H2B 119.8
C12 C11 H2B 119.8
F2A C12 C10 123.2(15)
F2A C12 C11 114.4(13)
C10 C12 C11 122.4(12)
C10 C12 H2A 118.8
C11 C12 H2A 118.8
loop_
_geom_bond_atom_site_label_1
_geom_bond_atom_site_label_2
_geom_bond_distance
Ni1 N1 1.811(8)
Ni1 N2 1.811(9)
Ni1 N4 1.815(8)
Ni1 N3 1.831(8)
N1 C5 1.339(12)
N1 H1 0.8600
N2 C6 1.341(11)
N2 H2 0.8600
N3 C7 1.337(12)
N3 H3 0.8600
N4 C8 1.324(11)
N4 H4 0.8600
C1 F1A 1.348(14)
C1 C3 1.354(14)
C1 C2 1.408(15)
C1 H1A 0.9300
F1B C2 1.326(15)
C2 C4 1.350(13)
C2 H1B 0.9300
C3 C5 1.403(14)
C3 H3A 0.9300
C4 C6 1.400(13)
C4 H4A 0.9300
C5 C6 1.445(13)
C7 C9 1.392(14)
C7 C8 1.462(13)
C8 C10 1.404(12)
C9 C11 1.361(15)
C9 H9 0.9300
C10 C12 1.353(13)
C10 H10 0.9300
C11 F2B 1.329(15)
C11 C12 1.417(16)
C11 H2B 0.9300
F2A C12 1.313(13)
C12 H2A 0.9300
loop_
_geom_torsion_atom_site_label_1
_geom_torsion_atom_site_label_2
_geom_torsion_atom_site_label_3
_geom_torsion_atom_site_label_4
_geom_torsion
N2 Ni1 N1 C5 -0.1(9)
N3 Ni1 N1 C5 179.3(7)
N1 Ni1 N2 C6 -1.7(10)
N4 Ni1 N2 C6 175.4(8)
N1 Ni1 N3 C7 173.7(7)
N4 Ni1 N3 C7 -3.4(8)
N2 Ni1 N4 C8 -176.9(8)
N3 Ni1 N4 C8 3.8(9)
C3 C1 C2 F1B 178.8(15)
F1A C1 C2 C4 -178.4(15)
C3 C1 C2 C4 -2(2)
F1A C1 C3 C5 179.2(10)
C2 C1 C3 C5 2.8(18)
F1B C2 C4 C6 178.8(13)
C1 C2 C4 C6 -1(2)
Ni1 N1 C5 C3 -177.8(9)
Ni1 N1 C5 C6 1.7(12)
C1 C3 C5 N1 178.0(10)
C1 C3 C5 C6 -1.5(17)
Ni1 N2 C6 C4 -179.9(10)
Ni1 N2 C6 C5 3.0(13)
C2 C4 C6 N2 -175.1(13)
C2 C4 C6 C5 1.8(18)
N1 C5 C6 N2 -2.9(13)
C3 C5 C6 N2 176.7(11)
N1 C5 C6 C4 179.6(11)
C3 C5 C6 C4 -0.8(16)
Ni1 N3 C7 C9 -176.1(9)
Ni1 N3 C7 C8 2.4(12)
Ni1 N4 C8 C10 174.3(11)
Ni1 N4 C8 C7 -3.3(12)
N3 C7 C8 N4 0.5(13)
C9 C7 C8 N4 179.2(11)
N3 C7 C8 C10 -177.4(11)
C9 C7 C8 C10 1.2(15)
N3 C7 C9 C11 177.7(10)
C8 C7 C9 C11 -0.7(16)
N4 C8 C10 C12 -177.7(15)
C7 C8 C10 C12 -0.2(18)
C7 C9 C11 F2B -178.1(12)
C7 C9 C11 C12 -0.8(19)
C8 C10 C12 F2A -180(2)
C8 C10 C12 C11 -1(2)
C9 C11 C12 F2A -179.5(18)
F2B C11 C12 C10 179.3(15)
C9 C11 C12 C10 2(2)
