#------------------------------------------------------------------------------
#$Date: 2019-11-10 20:19:24 +0200 (Sun, 10 Nov 2019) $
#$Revision: 226163 $
#$URL: file:///home/coder/svn-repositories/cod/cif/4/51/61/4516172.cif $
#------------------------------------------------------------------------------
#
# This file is available in the Crystallography Open Database (COD),
# http://www.crystallography.net/
#
# All data on this site have been placed in the public domain by the
# contributors.
#
data_4516172
loop_
_publ_author_name
'Grolleau, J\'er\'emie'
'Petrov, Ravil'
'Allain, Magali'
'Skene, William G.'
'Fr\`ere, Pierre'
_publ_section_title
;
 Solid-State Emission Enhancement via Molecular Engineering of Benzofuran
 Derivatives.
;
_journal_issue                   12
_journal_name_full               'ACS omega'
_journal_page_first              18542
_journal_page_last               18552
_journal_paper_doi               10.1021/acsomega.8b02384
_journal_volume                  3
_journal_year                    2018
_chemical_formula_moiety         'C16 H12 O'
_chemical_formula_sum            'C16 H12 O'
_chemical_formula_weight         220.26
_space_group_IT_number           14
_space_group_name_Hall           '-P 2ybc'
_space_group_name_H-M_alt        'P 1 21/c 1'
_symmetry_cell_setting           monoclinic
_symmetry_Int_Tables_number      14
_symmetry_space_group_name_Hall  '-P 2ybc'
_symmetry_space_group_name_H-M   'P 1 21/c 1'
_atom_sites_solution_hydrogens   mixed
_atom_sites_solution_primary     direct
_atom_sites_solution_secondary   difmap
_audit_creation_date             2018-12-03T09:03:04-00:00
_audit_creation_method           'WinGX routine CIF_UPDATE'
_cell_angle_alpha                90
_cell_angle_beta                 90.883(3)
_cell_angle_gamma                90
_cell_formula_units_Z            2
_cell_length_a                   13.4246(5)
_cell_length_b                   5.6336(2)
_cell_length_c                   7.7042(3)
_cell_measurement_reflns_used    3319
_cell_measurement_temperature    150.00(10)
_cell_measurement_theta_max      76.375
_cell_measurement_theta_min      5.727
_cell_volume                     582.59(4)
_computing_cell_refinement       'CrysAlisPro 1.171.38.41r (Rigaku OD, 2015)'
_computing_data_collection       'CrysAlisPro 1.171.38.41r (Rigaku OD, 2015)'
_computing_data_reduction        'CrysAlisPro 1.171.38.41r (Rigaku OD, 2015)'
_computing_molecular_graphics    'DIAMOND 3.2k (Crystal Impact GbR, 2014)'
_computing_publication_material  'WinGX publication routines (Farrugia, 2012)'
_computing_structure_refinement  'SHELXL-2016/4 (Sheldrick, 2016)'
_computing_structure_solution    'SHELXS-2013/1 (Sheldrick, 2013)'
_diffrn_ambient_temperature      150.00(10)
_diffrn_detector_area_resol_mean 5.199
_diffrn_measured_fraction_theta_full 0.982
_diffrn_measured_fraction_theta_max 0.967
_diffrn_measurement_device_type  'SuperNova, Single source at offset, AtlasS2'
_diffrn_measurement_method       '\w scans'
_diffrn_radiation_monochromator  mirror
_diffrn_radiation_type           CuK\a
_diffrn_radiation_wavelength     1.54184
_diffrn_reflns_av_R_equivalents  0.0164
_diffrn_reflns_av_unetI/netI     0.012
_diffrn_reflns_Laue_measured_fraction_full 0.982
_diffrn_reflns_Laue_measured_fraction_max 0.967
_diffrn_reflns_limit_h_max       16
_diffrn_reflns_limit_h_min       -15
_diffrn_reflns_limit_k_max       6
_diffrn_reflns_limit_k_min       -6
_diffrn_reflns_limit_l_max       9
_diffrn_reflns_limit_l_min       -8
_diffrn_reflns_number            4156
_diffrn_reflns_point_group_measured_fraction_full 0.982
_diffrn_reflns_point_group_measured_fraction_max 0.967
_diffrn_reflns_theta_full        74
_diffrn_reflns_theta_max         76.493
_diffrn_reflns_theta_min         3.292
_exptl_absorpt_coefficient_mu    0.601
_exptl_absorpt_correction_T_max  1
_exptl_absorpt_correction_T_min  0.77106
_exptl_absorpt_correction_type   multi-scan
_exptl_absorpt_process_details
;
        CrysAlisPro 1.171.38.41r (Rigaku Oxford Diffraction, 2015)
        Empirical absorption correction using spherical harmonics,
 implemented in SCALE3 ABSPACK scaling algorithm.
;
_exptl_crystal_colour            colourless
_exptl_crystal_density_diffrn    1.256
_exptl_crystal_description       prism
_exptl_crystal_F_000             232
_exptl_crystal_size_max          0.49
_exptl_crystal_size_mid          0.41
_exptl_crystal_size_min          0.163
_refine_diff_density_max         0.398
_refine_diff_density_min         -0.18
_refine_diff_density_rms         0.043
_refine_ls_extinction_coef       0.023(3)
_refine_ls_extinction_expression Fc^*^=kFc[1+0.001xFc^2^\l^3^/sin(2\q)]^-1/4^
_refine_ls_extinction_method     'SHELXL-2016/4 (Sheldrick 2016)'
_refine_ls_goodness_of_fit_ref   1.118
_refine_ls_hydrogen_treatment    constr
_refine_ls_matrix_type           full
_refine_ls_number_parameters     102
_refine_ls_number_reflns         1178
_refine_ls_number_restraints     0
_refine_ls_restrained_S_all      1.118
_refine_ls_R_factor_all          0.0681
_refine_ls_R_factor_gt           0.0662
_refine_ls_shift/su_max          0
_refine_ls_shift/su_mean         0
_refine_ls_structure_factor_coef Fsqd
_refine_ls_weighting_details
'w=1/[\s^2^(Fo^2^)+(0.0576P)^2^+0.4532P] where P=(Fo^2^+2Fc^2^)/3'
_refine_ls_weighting_scheme      calc
_refine_ls_wR_factor_gt          0.1626
_refine_ls_wR_factor_ref         0.1637
_reflns_Friedel_coverage         0
_reflns_number_gt                1158
_reflns_number_total             1178
_reflns_threshold_expression     'I > 2\s(I)'
_cod_data_source_file            ao8b02384_si_004.cif
_cod_data_source_block           newp21c
_cod_original_sg_symbol_H-M      'P 21/c'
_cod_database_code               4516172
_shelx_res_file
;
TITL SIR92 run in space group P 21/c
 shelx.res created by SHELXL-2016/4 at 08:57:49 on 03-Dec-2018
CELL  1.54184  13.4246   5.6336   7.7042   90.000   90.883   90.000
ZERR     2.00   0.0005   0.0002   0.0003    0.000    0.003    0.000
LATT   1
SYMM  - X, 1/2 + Y, 1/2 - Z
SFAC  C    H    O
UNIT  32 24 2
MERG   2
OMIT    14   3   1
OMIT    -8   3   2
OMIT     2   1   0
OMIT    -3   2   1
OMIT     3   0   2
OMIT     5   1   0
OMIT     3   1   0
OMIT     5   6   3
FREE  C7 C10
FREE  C6 C7
FREE  C7 H6
FREE C9 O1
FREE  C10 C8
FREE  C10 O1
FMAP   2
PLAN   25
ACTA   148.00
BOND   $H
L.S.  20
WGHT    0.057600    0.453200
EXTI    0.023056
FVAR      15.75973
C1    1    0.203583    0.026129    0.920024    11.00000    0.03764    0.07251 =
         0.04906    0.03629    0.01779    0.02357
C2    1    0.271470    0.199406    0.966335    11.00000    0.07155    0.04683 =
         0.03342    0.00865    0.01522    0.02566
AFIX  43
H2    2    0.251503    0.332711    1.027925    11.00000   -1.20000
AFIX   0
C3    1    0.368650    0.171666    0.920064    11.00000    0.05233    0.03471 =
         0.03215    0.00368   -0.00121   -0.01011
AFIX  43
H3    2    0.415272    0.286607    0.951470    11.00000   -1.20000
AFIX   0
C4    1    0.398325   -0.023963    0.827710    11.00000    0.02974    0.04970 =
         0.03397    0.00471    0.00402    0.00383
AFIX  43
H4    2    0.464686   -0.038992    0.796581    11.00000   -1.20000
AFIX   0
C5    1    0.331434   -0.197381    0.780794    11.00000    0.05411    0.03218 =
         0.03915   -0.00479   -0.00740    0.01066
AFIX  43
H5    2    0.351985   -0.329338    0.718268    11.00000   -1.20000
AFIX   0
PART   -1
C6    1    0.232886   -0.173001    0.827921    11.00000    0.04226    0.04680 =
         0.06262    0.02597   -0.02147   -0.01487
AFIX  43
H6    2    0.186586   -0.289393    0.798034    10.50000   -1.20000
AFIX   0
C7    1    0.129745   -0.271397    0.847495    10.50000    0.03430    0.03885 =
         0.04154   -0.00436    0.00066    0.00089
AFIX   7
H7    2    0.111301   -0.416488    0.799148    10.50000   -1.20000
AFIX   0
PART    0
C8    1    0.063986   -0.131825    0.928352    10.50000    0.05391    0.02089 =
         0.03461   -0.01126   -0.00595   -0.00162
C9    1    0.040504    0.149916    1.030984    10.50000    0.04033    0.03624 =
         0.04089   -0.00402   -0.00345   -0.00526
AFIX  43
H9    2    0.075776    0.283452    1.067432    10.50000   -1.20000
AFIX   0
C10   1    0.089206   -0.022372    0.940875    10.50000    0.03083    0.04118 =
         0.03029   -0.00446   -0.00095    0.00390
AFIX  43
H10   2    0.057512   -0.156228    0.895957    10.50000   -1.20000
AFIX   0
O1    3    0.109953    0.073272    0.985402    10.50000    0.03300    0.03358 =
         0.03430   -0.00023    0.00740    0.00277
HKLF    4




REM  SIR92 run in space group P 21/c
REM R1 =  0.0662 for    1158 Fo > 4sig(Fo)  and  0.0681 for all    1178 data
REM    102 parameters refined using      0 restraints

END

WGHT      0.0578      0.4547

REM Highest difference peak  0.398,  deepest hole -0.180,  1-sigma level  0.043
Q1    1   0.1472  0.2645  1.0256  11.00000  0.05    0.40
Q2    1   0.2032 -0.3266  0.7519  11.00000  0.05    0.23
Q3    1   0.3147  0.1877  0.9218  11.00000  0.05    0.22
Q4    1   0.2420  0.0637  0.9760  11.00000  0.05    0.19
Q5    1   0.2226  0.1492  0.9212  11.00000  0.05    0.19
Q6    1   0.3754  0.1023  0.8400  11.00000  0.05    0.16
Q7    1   0.2745 -0.1546  0.7969  11.00000  0.05    0.16
Q8    1   0.4158 -0.3614  0.7475  11.00000  0.05    0.14
Q9    1   0.2182 -0.0810  0.8826  11.00000  0.05    0.13
Q10   1   0.0553  0.2346  1.0888  11.00000  0.05    0.12
Q11   1   0.1383 -0.0537  0.9141  11.00000  0.05    0.12
Q12   1   0.3557 -0.0794  0.7837  11.00000  0.05    0.12
Q13   1   0.4948  0.0809  0.7707  11.00000  0.05    0.12
Q14   1   0.4853  0.0467  0.8394  11.00000  0.05    0.11
Q15   1   0.4426 -0.1996  0.7325  11.00000  0.05    0.11
Q16   1   0.0404 -0.2278  0.8994  11.00000  0.05    0.10
Q17   1   0.0859 -0.1037  0.8374  11.00000  0.05    0.10
Q18   1   0.2860  0.4278  1.0430  11.00000  0.05    0.10
Q19   1   0.4224 -0.4766  0.6687  11.00000  0.05    0.10
Q20   1   0.3656  0.3615  0.9709  11.00000  0.05    0.09
Q21   1   0.3857 -0.3220  0.6544  11.00000  0.05    0.09
Q22   1   0.4613  0.1783  0.8874  11.00000  0.05    0.09
Q23   1  -0.0048  0.1657  1.0165  11.00000  0.05    0.09
Q24   1   0.2636 -0.5623  0.7156  11.00000  0.05    0.08
Q25   1   0.4018  0.4186  1.0960  11.00000  0.05    0.08
;
_shelx_res_checksum              45431
_shelx_hkl_file
;
  -1   0   0 16088.2 105.654  23
  -1   0   0 15779.0 109.614  28
  -1   0   0 15804.2 99.5335  22
  -2   0   0 317730. 644.195  22
  -2   0   0 311296. 689.557  28
  -3   0   0 87344.0 444.076  28
  -3   0   0 88655.4 425.918  22
  -3   0   0 88063.3 433.550  23
  -4   0   0 121977. 610.335  23
  -4   0   0 122451. 630.031  28
  -5   0   0 8268.86 188.384  28
  -5   0   0 8025.92 179.870  23
  -6   0   0 158513. 907.089  23
  -6   0   0 161163. 952.236  28
  -7   0   0 138117. 972.519  28
  -7   0   0 136244. 924.180  23
  -8   0   0 26864.2 441.938  23
  -8   0   0 30059.4 502.133  28
 -10   0   0 6474.32 151.473   6
 -10   0   0 6323.35 149.974  11
 -10   0   0 6194.72 134.133   3
 -11   0   0 5368.33 145.383   6
 -11   0   0 5033.15 286.076  24
 -11   0   0 5153.73 129.720   3
 -12   0   0 6819.67 168.698   6
 -12   0   0 6787.40 152.126   3
 -13   0   0 1356.59 75.0376   6
 -13   0   0 1434.23 72.1960   3
 -14   0   0 2139.09 87.2889   6
  15   0   0 3836.17 109.684   2
  16   0   0 980.249 47.7357   2
   0   1   0 834.512 31.8814  28
   0  -1   0 759.750 44.0221  24
  -1  -1   0 5270.01 116.098  24
  -1  -1   0 5421.55 92.1046  23
   1  -1   0 4879.87 109.069  24
  -1   1   0 4933.96 92.5717  28
   2   1   0 21771.5 178.032  25
  -2  -1   0 21324.5 250.623  24
  -2   1   0 21636.2 114.339  23
  -3  -1   0 2849.00 95.1445  23
   3   1   0 2798.32 62.7408  26
  -3  -1   0 2973.04 106.135  24
  -3   1   0 2699.40 91.1903  28
  -3   1   0 2826.03 62.6003  23
  -4   1   0 418.446 43.6178  22
  -4  -1   0 482.547 45.1490  23
  -4   1   0 455.294 43.0411  28
  -4  -1   0 508.384 50.9004  24
  -5   1   0 9658.89 221.671  28
  -5   1   0 9728.12 222.420  22
  -5   1   0 9736.06 175.856  23
  -5  -1   0 10225.4 233.661  23
  -6   1   0 173.088 32.6764  22
  -6  -1   0 189.586 37.9091  23
  -6  -1   0 193.969 39.8775  24
  -6   1   0 194.198 37.7329  28
  -6   1   0 173.577 26.8923  23
  -7   1   0 14822.4 341.987  28
  -7  -1   0 14702.6 336.636  23
  -7   1   0 15211.0 337.250  22
  -7  -1   0 14606.0 364.244  24
  -8  -1   0 38707.5 573.843  23
  -8  -1   0 39697.3 646.224  24
  -9  -1   0 3073.39 195.643  24
  -9   1   0 3442.00 194.944  28
 -10   1   0 37563.4 401.488  15
 -10  -1   0 36348.1 334.439   3
 -10   1   0 38419.4 705.450  28
 -10   1   0 36280.4 355.794  11
 -10   1   0 36358.1 357.862  18
 -10  -1   0 34179.1 696.309  24
 -10   1   0 35908.1 365.306   5
 -10  -1   0 35184.7 367.759   6
 -11  -1   0 13058.3 238.517   6
 -11   1   0 13234.7 216.664  18
 -11  -1   0 13274.4 213.828   3
 -11   1   0 13638.5 231.588  11
 -11  -1   0 12427.7 444.023  24
 -11   1   0 12828.2 204.759   3
 -12   1   0 23205.2 292.889   6
 -12   1   0 23310.8 307.865  11
 -12   1   0 23104.1 290.263  18
 -12  -1   0 23726.6 289.009   3
 -13  -1   0 4435.56 124.446   3
 -13   1   0 4422.80 126.280   6
 -14   1   0 82.4897 17.1896   6
 -14  -1   0 97.7650 20.0681   3
  15  -1   0 71.8215 16.3695   2
 -15   1   0 88.0230 15.0858   6
  15   1   0 48.8728 13.8321   2
  16  -1   0 607.876 34.6200   2
  16   1   0 619.839 34.2295   2
   0   2   0 35955.5 290.612  28
   0  -2   0 38282.2 429.715  24
   1   2   0 12920.5 152.852  28
   1  -2   0 14167.4 266.015  24
   1   2   0 13291.3 221.003  25
  -1   2   0 12883.5 196.299  28
  -1  -2   0 14335.4 274.733  24
   2   2   0 103934. 608.599  25
  -2  -2   0 106627. 766.151  24
  -2  -2   0 108233. 604.382  23
   2   2   0 103233. 419.894  28
  -2   2   0 104512. 611.964  28
   3   2   0 136102. 676.461  25
  -3  -2   0 139075. 777.800  23
  -3  -2   0 138339. 917.495  24
  -3   2   0 138490. 792.434  28
   4   2   0 29672.5 298.030  26
  -4  -2   0 29879.6 400.526  23
  -4  -2   0 29875.0 450.076  24
  -4   2   0 29290.3 399.865  28
  -5  -2   0 43412.5 531.257  23
  -5  -2   0 43154.8 600.022  24
  -5   2   0 43743.2 534.706  28
  -5   2   0 43200.2 573.911  22
  -6  -2   0 27288.4 511.846  24
  -6   2   0 27529.4 462.230  28
  -6   2   0 25807.7 456.189  22
  -6  -2   0 25630.6 443.368  23
  -7   2   0 6170.75 239.503  22
  -7   2   0 6753.65 251.208  28
  -7  -2   0 6456.58 267.811  24
  -8   2   0 8336.83 307.223  28
  -8  -2   0 7373.92 305.900  24
  -8   2   0 7456.03 282.603  22
   9  -2   0 866.408 52.8385   1
  -9  -2   0 508.673 84.0855  24
  -9   2   0 858.419 53.5083   5
  -9   2   0 773.775 50.2174  10
   9  -2   0 788.793 47.5833  27
  -9   2   0 588.397 83.0176  15
  -9  -2   0 678.056 44.6524   3
  -9   2   0 741.948 95.7690  22
  -9   2   0 710.107 96.0746  28
 -10   2   0 78229.2 548.426  11
 -10   2   0 78768.2 537.845  10
 -10   2   0 80284.5 787.972  15
 -10  -2   0 78956.4 515.211   3
 -10   2   0 78239.8 551.236   5
 -11   2   0 1378.39 77.9600  18
 -11   2   0 1364.88 75.5527  11
 -11  -2   0 1509.61 72.3272   3
 -11   2   0 1425.07 92.9109  15
  11  -2   0 1370.46 63.5246  27
 -11   2   0 1400.31 77.0490   5
 -12   2   0 166.835 24.6688   6
 -12  -2   0 171.484 26.8911   3
 -12   2   0 176.134 41.6843   9
 -12   2   0 177.658 29.4378  18
 -12   2   0 159.870 32.9351  15
 -12   2   0 150.413 28.7738  11
  13   2   0 28.9350 11.0906   2
 -13   2   0 28.3227 15.6381  11
  13  -2   0 24.2684 11.7332   2
 -13  -2   0 44.0648 19.8232   3
 -13   2   0 35.8346 13.6605  18
 -13   2   0 14.9137 10.8935   6
  14  -2   0 1707.29 68.7363   2
 -14  -2   0 1977.70 77.6428   3
 -14   2   0 1839.42 67.3882   6
  14   2   0 1602.45 66.7118   2
 -15  -2   0 1578.18 58.4764   3
  15   2   0 1326.71 49.7069   2
   0  -3   0 114.354 32.8468  24
   0   3   0 78.2615 23.9322  25
   1  -3   0 8263.14 254.674  24
  -1  -3   0 8281.88 257.737  24
   1   3   0 8220.86 227.389  25
  -1   3   0 7750.59 177.238  28
   2   3   0 27244.9 406.059  25
  -2   3   0 26738.3 368.196  28
  -2  -3   0 28091.1 491.492  24
   3   3   0 1080.16 79.8861  25
  -3   3   0 889.462 76.0309  28
  -3  -3   0 1007.21 100.120  24
  -4   3   0 858.853 95.4399  22
  -4   3   0 1110.87 90.3113  28
  -4  -3   0 884.579 96.5448  24
  -5   3   0 16183.0 371.979  28
  -5  -3   0 15500.9 416.406  24
  -5   3   0 16506.0 431.851  22
  -6   3   0 3348.36 200.189  22
  -6  -3   0 3328.01 201.805  24
  -6   3   0 3675.82 191.696  28
   7  -3   0 3.11745 5.89685  27
  -7   3   0 32.5803 23.8085  28
  -7   3   0-0.52093 16.9433  22
  -7  -3   0 12.3437 11.9406  24
  -7   3   0 9.02706 7.20618  10
  -7  -3   0 10.5530 7.21636   3
  -8  -3   0 15548.6 208.719   3
  -8   3   0 15036.9 228.337   5
  -8   3   0 14677.8 462.092  22
   8  -3   0 14350.7 220.548  27
  -8   3   0 15151.1 216.507  16
  -8   3   0 14519.5 215.923  10
  -9   3   0 3650.02 114.415  10
  -9   3   0 3707.51 231.686  25
  -9  -3   0 3294.91 100.869   3
  -9   3   0 3665.68 108.092  16
  -9   3   0 3393.31 230.129  22
   9  -3   0 3717.91 113.808  27
  -9   3   0 3692.92 120.019   5
  -9   3   0 3642.83 233.437  28
  -9   3   0 3304.62 204.108  15
 -10   3   0 27135.3 330.150   5
  10  -3   0 26743.5 300.401  27
 -10   3   0 26979.7 318.450  10
 -11  -3   0 1505.76 69.5304   3
 -11   3   0 1802.72 129.206  15
 -11   3   0 1563.59 86.8820  18
 -11   3   0 1551.81 77.4050  10
 -11   3   0 1651.39 82.5767   5
  11  -3   0 1602.06 71.4245  27
 -11   3   0 1660.69 82.9862  11
 -12   3   0 184.472 32.4967  18
 -12   3   0 229.361 42.6618  15
 -12  -3   0 216.175 26.8430   3
 -12   3   0 193.410 28.6434  11
  12  -3   0 241.267 25.5111  27
 -13   3   0 69.4888 16.8737  18
 -13  -3   0 66.0052 15.2660   3
 -13   3   0 96.7428 20.4501  11
 -14   3   0 562.318 34.0808  18
 -14  -3   0 607.973 35.9691   3
   0   4   0 4531.27 221.922  25
   0  -4   0 4510.22 227.749  24
   1   4   0 6901.34 262.905  25
  -1   4   0 6905.01 280.208  25
  -1  -4   0 7118.50 290.374  24
  -2  -4   0 5738.69 263.848  24
   2   4   0 5688.58 228.945  25
  -2   4   0 5662.71 262.681  25
   2  -4   0 5969.57 136.291  27
  -3   4   0 4875.15 248.781  25
  -3   4   0 5164.85 263.313  22
   3  -4   0 5258.63 128.641  27
  -3  -4   0 5231.76 256.912  24
   4  -4   0 5904.72 137.316  27
  -4   4   0 6306.22 304.588  22
  -4   4   0 5823.90 275.808  25
  -4  -4   0 5905.93 278.453  24
  -5   4   0 53.3701 32.0826  22
  -5   4   0 32.1464 26.0879  25
   5  -4   0 36.8065 13.1712  27
  -6   4   0 501.608 38.3967  10
  -6   4   0 571.238 93.9561  22
   6  -4   0 487.138 42.1835  27
  -6   4   0 510.169 88.0132  25
  -7   4   0 9699.79 403.726  22
  -7   4   0 10188.7 181.389  16
  -7   4   0 9966.31 395.025  25
   7  -4   0 9539.23 185.510  27
  -7   4   0 9566.18 171.570  10
  -8  -4   0 923.504 50.0814   3
   8  -4   0 810.746 54.8128  27
  -8   4   0 753.753 53.1260   5
  -8   4   0 764.253 49.2915  16
  -8   4   0 802.118 50.4738  10
  -9   4   0 230.573 28.5073  10
  -9  -4   0 210.064 24.3320   3
   9  -4   0 258.370 33.7035  27
  -9   4   0 228.446 26.6989  16
  -9   4   0 238.595 83.6185  15
  -9   4   0 226.574 31.8688   5
 -10   4   0 13981.8 229.141   5
 -10  -4   0 14247.6 192.537   3
 -10   4   0 14543.1 211.441  10
  10  -4   0 14540.5 214.169  27
 -11   4   0 122.011 23.0187  11
  11  -4   0 129.920 19.7959  27
 -11   4   0 130.459 61.3103  15
 -11   4   0 177.058 38.6213  18
 -11  -4   0 135.009 18.7828   3
 -11   4   0 134.521 22.6306   5
  12  -4   0 542.766 32.2143  27
 -12   4   0 555.731 47.9311  15
 -12   4   0 537.441 39.8852  11
 -12   4   0 549.432 41.0445  18
 -12  -4   0 542.794 34.7177   3
 -13   4   0 504.294 30.1595  18
 -13   4   0 528.191 33.8185  11
   0   5   0 266.717 67.5903  22
   0  -5   0 248.399 30.5291  27
  -1   5   0 731.126 102.506  25
  -1  -5   0 1001.91 59.5343  27
   1  -5   0 829.054 54.5729  27
   2  -5   0 10875.4 195.223  27
  -2  -5   0 10957.3 191.478  27
   3  -5   0 10405.5 193.302  27
   4  -5   0 453.822 41.8559  27
   5  -5   0 3183.61 105.703  27
   6  -5   0 468.959 41.9778  27
  -7   5   0 566.830 42.0302   5
   7  -5   0 630.647 47.0269  27
  -8   5   0 8134.27 153.878   5
   8  -5   0 8340.80 159.406  27
  -9   5   0 2449.45 80.2447   5
  -9   5   0 2589.58 85.5046  11
  -9   5   0 2446.62 172.148  15
 -10   5   0 1509.01 59.1625  11
  10  -5   0 1498.42 55.7521  27
 -10   5   0 1509.76 91.4711  15
 -10   5   0 1506.35 66.2578  18
 -10   5   0 1395.79 54.8043   5
 -11   5   0 227.778 25.7414  15
 -11   5   0 210.813 22.8505  18
  11  -5   0 180.933 16.4906  27
 -11   5   0 189.053 18.8758  11
   0  -6   0 19537.3 225.495  27
   1  -6   0 2826.77 89.6015  27
  -1  -6   0 3116.83 86.0882  27
   2  -6   0 1552.78 65.8994  27
   3  -6   0 5987.19 128.956  27
   4  -6   0 406.881 33.7690  27
  -5   6   0 8551.79 126.717   5
   5  -6   0 9177.97 152.435  27
  -6   6   0 695.251 33.8920   5
   6  -6   0 897.575 45.9217  27
  -7   6   0 7866.78 107.949  11
  -7   6   0 7964.29 102.431   5
   8  -6   0 199.868 19.6547  27
  -8   6   0 271.356 47.3252  15
   9  -6   0 467.676 21.6959  27
  -9   6   0 483.470 24.2391  18
  16   0  -1 26.6353 10.2863   2
 -15   0   1 1.90448 8.42136   6
 -14   0   1-8.47290 11.9891   6
 -14   0   1-6.76837 9.19407   3
 -13   0   1 40.4290 12.9110   3
 -13   0   1 37.6706 14.9932   6
 -12   0   1 500.750 47.8681   6
 -12   0   1 468.077 38.3805   3
 -11   0   1 18.3003 9.36680   3
 -11   0   1 11.0320 11.5381   6
 -11   0   1 16.6360 9.20812  19
 -10   0   1 179.308 22.2861   3
 -10   0   1 158.600 24.9658   6
 -10   0   1 185.450 25.1746  19
 -10   0   1 133.582 36.9194  23
  -9   0   1 85.6672 30.8857  23
  -8   0   1 82.8968 27.3040  23
  -7   0   1 78.7560 23.4619  23
  -6   0   1 1063.50 74.7660  23
  -5   0   1 1123.64 68.7887  23
  -5   0   1 1110.97 53.0219  22
  -5   0   1 1086.90 44.3512  25
  -4   0   1 311.917 23.6655  22
  -4   0   1 275.156 20.6158  25
  -4   0   1 289.613 31.8699  23
  -3   0   1 143.604 13.9216  25
  -3   0   1 133.352 12.7006  22
  -2   0   1 967.512 45.7546  23
  -2   0   1 1186.20 39.9450  25
  -1   0   1 1327.22 50.8972  23
   1   0  -1 1267.63 31.9950  24
   0   0   1 98.0899 12.9658  26
   0   0  -1 98.0494 10.3281  24
   1   0   1 542.528 32.9427  26
  -2   0  -1 219.897 20.7171  28
  -3   0  -1 317.305 28.7715  28
  -4   0  -1 129.958 20.9860  28
  -5   0  -1 87.1441 20.7194  28
  -6   0  -1 1279.08 82.7691  28
  -7   0  -1 1185.71 87.1717  28
  -8   0  -1 79.0183 27.7287  28
  -9   0  -1 55.7908 21.2228  28
 -10   0  -1 7.10944 7.89830   6
 -10   0  -1 8.54312 9.79512   3
 -10   0  -1 4.01573 7.99119  18
 -10   0  -1 21.4834 11.2600   9
 -11   0  -1 658.318 109.688  24
 -11   0  -1 661.915 50.0210   3
 -11   0  -1 716.284 49.3252   9
 -11   0  -1 650.893 48.6713   6
 -12   0  -1 56.0834 16.6773   6
 -12   0  -1 58.3504 18.6778   3
 -13   0  -1 522.314 42.7357   6
  14   0   1 8.07190 12.7279   2
  15   0   1 11.0937 12.4626   2
  16   0   1 23.7233 9.58977   2
  16   1  -1 3680.60 81.2981   2
  16  -1  -1 3588.06 81.5762   2
 -15  -1   1 97.4450 16.4959   3
 -15   1   1 96.1907 16.9005   6
 -14  -1   1 107.504 19.0722   3
 -14   1   1 102.440 20.6017   6
 -13  -1   1 4836.01 125.621   3
 -13   1   1 4717.44 137.558   6
 -13  -1   1 4826.68 147.500   6
 -12   1   1 312.138 35.6148  11
 -12  -1   1 210.022 34.0191   6
 -12  -1   1 235.429 29.1810   3
 -12   1   1 311.335 37.8506   6
 -11  -1   1 1483.56 83.6491   6
 -11   1   1 1500.07 72.5266  11
  11  -1  -1 1242.51 61.1173   1
 -11  -1   1 1236.01 64.1918   3
 -11   1   1 1197.67 71.2395  15
 -10   1   1 21176.0 278.521   5
  10  -1  -1 20528.0 241.999   1
 -10   1   1 20893.5 267.873  19
 -10   1   1 20284.2 269.390  10
 -10  -1   1 20594.2 291.097   6
 -10  -1   1 21190.3 252.714   3
 -10   1   1 21799.1 308.551  15
 -10   1   1 20653.2 261.806  11
  -9   1   1 11224.3 298.116  23
  -9  -1   1 11051.8 339.162  23
  -9  -1   1 10942.9 340.799  24
  -8   1   1 5571.38 201.010  22
  -8  -1   1 5510.53 225.194  24
  -8   1   1 5771.30 239.244  28
  -8  -1   1 5706.25 223.741  23
  -8   1   1 5548.13 194.554  23
  -7   1   1 14252.5 295.361  22
  -7  -1   1 13606.2 324.914  24
  -7  -1   1 13925.4 322.743  23
  -7   1   1 13849.0 340.174  28
  -7   1   1 13585.7 275.872  23
  -6   1   1 193093. 998.861  22
  -6  -1   1 192984. 1101.27  24
  -6  -1   1 190478. 1073.58  23
  -6   1   1 192465. 1142.39  28
  -5  -1   1 135.538 27.8643  23
  -5   1   1 151.588 27.6398  22
  -5   1   1 128.812 27.4791  28
  -5   1   1 136.921 22.7403  23
  -5  -1   1 157.803 28.5309  24
  -4   1   1 1386.83 78.6740  28
  -4   1   1 1356.53 63.0005  23
  -4  -1   1 1474.51 74.3599  24
  -4  -1   1 1328.58 75.5203  23
  -3   1   1 32750.7 273.730  23
  -3  -1   1 32776.0 332.271  23
  -3  -1   1 32672.1 291.844  24
   2  -1  -1 17754.2 246.304  24
  -2  -1   1 17317.6 180.883  24
  -2   1   1 17813.8 197.740  23
  -2   1   1 17264.2 216.134  28
  -2  -1   1 18368.6 221.880  23
  -2   1   1 17975.7 232.485  25
   1  -1  -1 73483.9 492.012  24
  -1  -1   1 73940.8 385.299  23
  -1   1   1 73487.1 456.101  25
  -1   1   1 72538.8 364.866  28
  -1  -1   1 72782.6 327.109  24
   0   1  -1 917587. 1445.10  22
   0   1   1 926129. 1600.33  25
  -1   1  -1 573892. 1286.02  22
  -1  -1  -1 576547. 1430.98  24
  -2  -1  -1 66218.0 183.255  28
  -2   1  -1 66610.4 460.633  28
  -2  -1  -1 67641.3 531.180  24
  -2   1  -1 67958.5 486.982  22
  -3  -1  -1 9864.66 224.167  24
  -3  -1  -1 9786.38 114.190  28
   3   1   1 9579.53 172.593  26
  -3   1  -1 9320.82 184.665  28
  -3   1  -1 9722.20 208.240  22
  -4   1  -1 86758.7 664.841  22
  -4  -1  -1 87101.2 736.759  24
  -4  -1  -1 84491.7 437.484  28
  -4   1  -1 83894.9 610.735  28
   4   1   1 83982.1 538.670  26
  -5   1  -1 15171.1 283.237  28
  -5  -1  -1 15735.1 344.234  24
  -5  -1  -1 14825.5 216.211  28
  -5   1  -1 15518.1 310.928  22
  -6   1  -1 570.755 61.5984  28
  -6  -1  -1 541.692 70.6221  24
  -6  -1  -1 622.290 50.6136  28
  -7  -1  -1 114333. 1085.61  24
  -7   1  -1 117513. 949.562  28
  -8  -1  -1 802.300 96.8138  24
  -8   1  -1 840.240 87.3808  28
  -9   1  -1 856.930 96.2206  28
  -9  -1  -1 817.467 106.730  24
 -10  -1  -1 13774.8 225.032   6
 -10   1  -1 14797.7 236.748  11
 -10   1  -1 15074.7 252.609  15
 -10   1  -1 15403.1 240.178  18
 -10  -1  -1 14343.1 217.032   3
 -10   1  -1 15851.7 451.200  28
 -10   1  -1 14544.2 219.400   3
 -10  -1  -1 13618.6 462.347  24
  10  -1   1 13806.9 201.545  27
 -11  -1  -1 5053.76 299.125  24
 -11   1  -1 5352.80 151.008  11
 -11   1  -1 5979.42 156.972   9
 -11   1  -1 5403.25 132.179   6
  11  -1   1 5277.32 124.413  27
 -11  -1  -1 5557.67 149.646   6
 -11   1  -1 6007.60 291.345  28
 -11   1  -1 5150.75 142.867  18
 -11  -1  -1 5394.30 141.492   3
 -12   1  -1 14934.0 227.951   9
 -12  -1  -1 14792.3 235.049   3
 -12   1  -1 14640.1 219.971   6
 -12   1  -1 14549.5 243.905  18
  13   1   1 333.567 38.4903   2
 -13   1  -1 249.261 29.5553   9
 -13   1  -1 199.983 24.9827   6
  13  -1   1 262.561 34.6385   2
 -13  -1  -1 324.898 37.3200   3
  14   1   1 1669.61 76.3168   2
  14  -1   1 1661.07 77.6065   2
  15  -1   1 360.251 32.6003   2
  15   1   1 347.799 31.1476   2
  16  -1   1 222.053 20.2971   2
  16   1   1 224.811 20.3343   2
 -15  -2   1 1945.09 64.9317   3
 -15   2   1 1773.46 59.4059   6
 -14   2   1 34.6527 12.0841   6
 -14  -2   1 28.3779 13.0564   3
  14  -2  -1 35.8606 10.5158   2
 -13   2   1 4147.96 120.134   6
 -13  -2   1 4111.52 116.292   3
 -13   2   1 4054.90 122.311  11
 -12  -2   1 1839.43 81.0217   3
 -12   2   1 1683.81 74.6172  18
 -12   2   1 1633.48 86.6295  15
 -12   2   1 1686.13 80.1393  11
 -11   2   1 34352.6 428.049  15
 -11   2   1 33667.8 362.872  11
  11  -2  -1 33379.7 343.057   1
 -11   2   1 34171.4 374.665  10
 -11   2   1 33643.6 354.641  18
 -11   2   1 33328.7 374.467   5
 -10  -2   1 1290.62 66.4739   3
 -10  -2   1 1244.28 76.2385   6
 -10   2   1 1271.27 71.8985   5
 -10   2   1 1292.18 71.1134  10
  10  -2  -1 1252.28 65.5259   1
 -10   2   1 1113.95 102.350  15
  -9  -2   1 3011.94 111.469   6
   9  -2  -1 3134.98 98.5397   1
  -9   2   1 2690.41 170.690  15
  -9   2   1 3184.02 105.334   5
  -9   2   1 3100.45 101.108  10
  -9   2   1 3198.44 103.611  19
  -9  -2   1 3287.67 98.1160   3
  -9   2   1 3052.89 99.2084  16
  -9   2   1 3159.91 201.716  28
  -9  -2   1 2723.50 179.149  23
  -9   2   1 3128.69 96.9254   8
  -8   2   1 5939.65 243.977  22
  -8   2   1 5896.34 235.218  25
  -8   2   1 5972.80 259.838  28
  -8  -2   1 5876.85 249.092  23
  -7  -2   1 250.265 46.1612  24
  -7   2   1 251.107 47.5164  22
  -7  -2   1 317.683 56.2524  23
  -7   2   1 246.693 47.3600  25
  -7   2   1 321.153 56.2887  28
  -6  -2   1 365.678 53.2449  24
  -6   2   1 417.862 59.4323  28
  -6  -2   1 390.859 56.4453  23
  -6   2   1 380.802 58.5300  22
  -5  -2   1 11614.6 278.089  23
  -5  -2   1 11461.1 274.920  24
  -5   2   1 11678.5 279.670  28
  -4  -2   1 4066.99 149.417  23
  -4  -2   1 4037.64 150.037  24
  -4   2   1 3756.11 143.639  28
   3   2  -1 822.145 44.4677  25
  -3  -2   1 1358.69 80.5032  24
  -3   2   1 1078.61 39.0980  23
  -3  -2   1 1212.99 72.5647  23
  -3   2   1 1054.68 66.9575  28
   2  -2  -1 1423.96 94.7731  24
  -2   2   1 1330.82 86.0190  25
  -2  -2   1 1351.57 75.3074  24
  -2   2   1 1197.39 63.1892  28
  -2   2   1 1369.93 49.6531  23
  -1  -2   1 35064.4 300.261  23
   1  -2  -1 34323.7 451.774  24
  -1   2   1 33227.4 414.009  25
  -1  -2   1 34375.3 365.888  24
  -1   2   1 33381.3 290.329  28
   0   2  -1 42471.0 426.150  28
   0   2   1 42609.8 458.382  25
   0  -2   1 43478.8 268.453  23
   0  -2   1 43050.5 411.643  24
   0  -2  -1 42699.0 512.916  24
  -1  -2  -1 37102.3 489.839  24
   1   2   1 37020.5 419.834  25
  -1   2  -1 36295.8 393.906  28
  -2   2  -1 3633.57 144.411  22
   2   2   1 3521.46 131.368  25
  -2   2  -1 3442.87 128.384  28
  -2  -2  -1 3421.56 152.846  24
  -3   2  -1 14769.6 285.622  28
  -3   2  -1 14670.2 309.343  22
  -3  -2  -1 13259.3 314.839  24
   3   2   1 13759.3 257.460  25
  -4  -2  -1 23633.2 446.106  24
  -4   2  -1 23818.3 382.982  28
  -4   2  -1 23214.0 410.208  22
   4   2   1 22808.7 330.871  26
  -5  -2  -1 8417.79 288.337  24
  -5   2  -1 8214.88 260.253  22
   5   2   1 7990.45 190.380  26
  -5   2  -1 8382.25 244.105  28
  -6   2  -1 4562.55 203.676  22
  -6  -2  -1 5066.61 242.428  24
  -6   2  -1 4788.90 197.989  28
  -7   2  -1 20418.2 440.222  28
  -7   2  -1 19691.8 452.893  22
  -8   2  -1 1511.71 128.429  28
  -8   2  -1 1557.68 137.355  22
  -8  -2  -1 1583.66 154.145  24
  -9   2  -1 24791.2 553.281  28
  -9   2  -1 22972.6 279.161   5
   9  -2   1 22250.7 264.160  27
  -9   2  -1 23319.3 285.027  11
  -9   2  -1 23368.2 276.380  10
  -9  -2  -1 24243.2 271.201   3
  -9   2  -1 21163.1 420.528  15
  -9  -2  -1 21990.3 598.003  24
 -10  -2  -1 1807.17 78.2366   3
 -10   2  -1 2120.83 91.3355  11
  10  -2   1 1964.85 80.8553  27
 -10   2  -1 2364.92 118.726  15
 -10   2  -1 2109.44 97.1752  18
 -10   2  -1 2098.91 175.902  28
 -10   2  -1 2161.32 90.0181   5
 -11  -2  -1 460.259 41.6154   3
  11  -2   1 441.596 38.5439  27
 -11   2  -1 395.751 42.7664  11
  11   2   1 426.530 39.5213   2
 -11   2  -1 498.914 52.9928  15
 -11   2  -1 444.115 46.7501  18
  11  -2   1 432.825 40.2856   2
 -12   2  -1 26469.7 333.871  11
 -12   2  -1 25063.1 311.039  18
  12   2   1 24028.4 296.573   2
 -12  -2  -1 26249.4 305.355   3
  12  -2   1 25185.7 271.957  27
  12  -2   1 25628.3 311.049   2
 -12   2  -1 27786.6 354.687   9
 -13   2  -1 17.1162 14.2705   9
 -13   2  -1 6.08285 11.4694  18
  13   2   1 4.40317 7.58280   2
  13  -2   1 20.3170 10.9621   2
 -13  -2  -1 25.0546 15.2336   3
  13  -2   1 23.5530 9.56837  27
 -14  -2  -1 2043.06 76.5189   3
  14   2   1 1858.34 70.1700   2
  14  -2   1 1932.63 72.5130   2
  15  -2   1-2.61043 3.54232   2
  15   2   1 578.356 31.8362   2
 -15  -3   1 2075.48 51.2753   3
 -14   3   1 1547.28 51.5922   6
 -14   3   1 1565.51 60.4894  11
 -14  -3   1 1557.39 55.5608   3
 -13  -3   1 418.665 33.2650   3
 -13   3   1 463.843 35.2506   6
 -13   3   1 437.758 37.5794  11
 -13   3   1 422.406 32.2233  18
 -12  -3   1 581.719 42.2696   3
 -12   3   1 613.590 48.2215  11
 -12   3   1 617.672 48.3534  18
 -12   3   1 575.817 48.0620   5
 -12   3   1 543.639 59.0901  15
 -11   3   1 11316.9 291.080  15
 -11   3   1 11750.6 222.021   5
 -11   3   1 11242.7 215.309  11
 -11   3   1 11325.1 213.664  10
 -11  -3   1 11083.4 187.658   3
 -10   3   1 45007.3 420.504  10
  10  -3  -1 44225.7 370.585  27
 -10  -3   1 44311.9 372.858   3
   9  -3  -1 33074.6 329.706  27
  -9   3   1 31225.8 672.565  22
  -9  -3   1 34412.4 325.946   3
  -9   3   1 32864.0 351.582  10
   9  -3  -1 33101.4 357.309   1
  -9   3   1 33652.9 352.073  16
  -9   3   1 34874.1 701.567  25
  -9   3   1 33045.1 360.592   5
  -8   3   1 38975.2 364.659  10
  -8   3   1 40624.2 382.568  16
   8  -3  -1 38361.9 350.605  27
  -8  -3   1 39280.1 331.639   3
  -8   3   1 39096.9 749.205  22
  -8   3   1 39893.5 741.843  25
  -8   3   1 38509.4 328.031   8
  -8   3   1 40879.9 748.498  28
  -8   3   1 38608.2 345.014  12
   8  -3  -1 41130.0 375.395   1
  -7   3   1 5189.71 130.023  16
  -7  -3   1 4977.52 111.478   3
  -7   3   1 5023.76 259.051  22
   7  -3  -1 5095.52 123.559  27
  -7   3   1 5357.66 250.449  28
  -7   3   1 5099.88 122.062  12
  -7   3   1 5210.37 127.176  10
   7  -3  -1 5271.13 129.729   1
  -7   3   1 5105.89 255.423  25
  -6   3   1 289.967 53.6934  28
  -6   3   1 255.538 56.6129  25
  -6   3   1 273.005 59.7999  22
  -5   3   1 1022.05 92.5177  28
  -5   3   1 931.170 99.8947  25
  -4   3   1 3204.49 151.777  28
  -4   3   1 3280.30 182.000  25
  -3  -3   1 180493. 1139.17  24
  -3   3   1 182806. 1312.89  25
  -3  -3   1 181148. 985.500  23
  -3   3   1 179757. 1025.80  28
  -2  -3   1 959.356 81.6957  24
  -2   3   1 676.077 55.2558  28
  -2   3   1 990.902 94.3971  25
   2   3  -1 930.587 70.7027  25
   2  -3  -1 1036.45 99.2300  24
  -1   3   1 29079.3 490.879  25
  -1  -3   1 29323.3 445.524  24
   1  -3  -1 29152.4 517.558  24
   1   3  -1 29573.4 376.639  28
   0  -3  -1 28366.1 512.141  24
   0   3   1 28983.1 474.227  25
   0   3  -1 28585.5 386.166  28
   1   3   1 11986.7 294.965  25
  -1  -3  -1 12003.5 340.345  24
  -1   3  -1 12047.5 267.180  28
  -2   3  -1 19061.0 356.209  28
  -2   3  -1 18995.2 409.163  22
  -2  -3  -1 18839.4 442.103  24
   2   3   1 18880.8 374.271  25
   3   3   1 8630.00 250.434  25
  -3   3  -1 8910.22 294.870  22
  -3  -3  -1 8332.84 302.963  24
  -3   3  -1 9019.37 257.572  28
  -4   3  -1 77039.0 903.817  22
  -4   3  -1 78653.9 808.940  28
   4   3   1 78235.4 757.707  26
  -5   3  -1 742.695 84.4859  28
  -5  -3  -1 895.779 109.367  24
  -5   3  -1 732.810 92.3024  22
  -6   3  -1 460.904 71.2190  28
  -6  -3  -1 419.722 80.5703  24
  -6   3  -1 434.507 74.7383  22
  -7  -3  -1 226.138 60.1218  24
   7  -3   1 280.731 30.4409  27
  -7   3  -1 277.285 61.5698  22
  -7   3  -1 311.376 63.0116  28
  -7   3  -1 263.058 28.3193   5
  -8   3  -1 2649.16 91.7727  10
  -8   3  -1 2841.91 209.084  22
  -8  -3  -1 2508.13 211.298  24
  -8  -3  -1 2613.14 87.4444   3
   8  -3   1 2514.55 93.7110  27
  -8   3  -1 2468.08 92.1747   5
  -8   3  -1 2723.91 191.283  28
  -9  -3  -1 1404.12 159.731  24
  -9  -3  -1 1542.21 69.2590   3
  -9   3  -1 1755.85 170.635  22
  -9   3  -1 1622.87 77.6278   5
  -9   3  -1 1602.98 155.068  28
  -9   3  -1 1735.48 77.2233  10
   9  -3   1 1592.66 76.3047  27
  -9   3  -1 1479.76 136.710  15
 -10   3  -1 16984.0 370.464  15
  10  -3   1 17044.4 247.342  27
 -10   3  -1 17476.9 259.370   5
 -10  -3  -1 17154.1 233.281   3
 -11   3  -1 12280.1 221.830  11
  11  -3   1 12124.9 199.171  27
 -11  -3  -1 11544.3 190.987   3
 -11   3  -1 12210.8 231.881  18
 -12  -3  -1 1343.57 64.9333   3
 -12   3  -1 1507.65 75.5397  18
 -12   3  -1 1459.17 78.9874  15
 -12   3  -1 1488.27 78.6933  11
  12  -3   1 1324.60 61.1873  27
  13  -3   1 122.629 16.3156  27
 -13   3  -1 99.9611 20.7611  11
 -13   3  -1 116.140 23.8849   9
 -13  -3  -1 134.370 19.7768   3
 -13   3  -1 104.836 19.5490  18
 -14  -3  -1-2.09629 2.75697  21
 -14   3  -1 0.99890 1.98928   9
 -13  -4   1 149.205 15.4030   3
 -13   4   1 171.254 19.6002  11
 -12   4   1 288.197 29.0541  11
 -12   4   1 318.022 38.3778  15
 -12   4   1 307.305 30.0429  18
 -12   4   1 291.239 27.9525   5
 -12  -4   1 284.159 23.9478   3
 -11   4   1 1834.99 78.2677   5
 -11  -4   1 1575.99 61.9380   3
  11  -4  -1 1654.28 61.8672  27
 -11   4   1 1641.23 70.0522  10
 -11   4   1 1767.77 120.697  15
 -11   4   1 1748.01 77.3575  11
 -10   4   1 4892.48 133.008   5
 -10   4   1 4497.30 263.424  15
 -10   4   1 4686.34 124.315  10
  10  -4  -1 4605.64 115.591  27
 -10  -4   1 4648.09 112.168   3
  -9  -4   1 3301.84 96.1575   3
  -9   4   1 3520.06 118.026   5
   9  -4  -1 3381.21 105.896  27
  -9   4   1 3323.05 106.758  10
  -9   4   1 3363.63 106.312  16
   8  -4  -1 26036.5 301.289  27
  -8   4   1 25854.6 297.056  10
  -8   4   1 26701.8 312.118  16
  -7   4   1 2806.09 101.217  16
  -7   4   1 2692.65 95.5010  10
  -7   4   1 3167.12 228.784  25
  -7  -4   1 3149.23 92.9279   3
  -7   4   1 2899.46 92.7865  12
   7  -4  -1 2918.39 100.150  27
  -6   4   1 145.150 21.0357  12
  -6   4   1 182.515 55.9403  25
  -6   4   1 155.569 48.8091  22
   6  -4  -1 147.636 23.7580  27
  -5   4   1 1143.90 131.316  25
   5  -4  -1 1088.20 61.3286  27
  -5   4   1 1119.52 131.602  22
  -5   4   1 1088.17 57.3530  12
   4  -4  -1 946.740 56.5947  27
  -4   4   1 839.351 111.293  25
  -3   4   1 16.3616 17.0620  25
   3  -4  -1 48.8631 13.7169  27
   2  -4  -1 2521.13 89.1604  27
  -2   4   1 2505.38 183.173  25
   1  -4  -1 237.483 55.8405  24
   1  -4  -1 251.053 28.5371  27
   1   4  -1 248.359 51.4356  22
  -1   4   1 285.007 60.7380  25
   1   4  -1 269.983 52.3632  25
   0   4  -1 2676.29 165.813  25
   0  -4  -1 2776.97 190.470  24
   0   4  -1 2644.33 171.788  22
   0   4   1 2603.96 172.481  25
   1   4   1 2505.68 165.714  25
  -1  -4  -1 2685.61 190.337  24
  -1   4  -1 2725.35 182.422  22
  -2   4  -1 63739.5 895.041  22
   2  -4   1 65082.8 432.940  27
   2   4   1 63750.3 820.866  25
   3  -4   1 2125.92 80.7165  27
  -3   4  -1 2263.28 173.864  22
  -3  -4  -1 1920.60 166.103  24
  -4   4  -1 24490.7 589.865  22
  -4  -4  -1 24216.0 295.115  21
   4  -4   1 25200.2 286.668  27
  -4  -4  -1 24178.2 612.107  24
  -5  -4  -1 1800.05 173.162  24
  -5   4  -1 2092.34 179.873  22
   5  -4   1 1897.11 81.1085  27
  -5  -4  -1 2024.80 88.2524  21
  -5   4  -1 1964.71 151.212  28
  -6  -4  -1 3535.55 249.679  24
  -6  -4  -1 3686.83 123.093  21
   6  -4   1 3558.14 114.046  27
  -6   4  -1 3704.18 242.342  22
  -6   4  -1 3746.61 218.248  28
  -7   4  -1 4198.09 116.828   5
  -7   4  -1 4446.19 248.389  28
   7  -4   1 4508.40 128.588  27
  -7  -4  -1 4539.68 137.026  21
  -8   4  -1 4060.50 116.440   5
  -8  -4  -1 4422.02 134.244  21
   8  -4   1 4323.15 125.898  27
  -9   4  -1 33279.7 335.353   5
  -9  -4  -1 33540.7 354.418  21
  -9   4  -1 32932.0 351.842  11
   9  -4   1 33514.7 343.476  27
  10  -4   1 22895.3 272.962  27
 -10   4  -1 22421.4 279.990  11
 -10   4  -1 21801.6 398.588  15
 -10   4  -1 21816.2 261.562   5
 -10  -4  -1 22526.8 267.578  21
 -11  -4  -1 5273.84 115.897  21
 -11   4  -1 5402.55 131.554  11
 -11   4  -1 5533.73 140.632  18
 -11  -4  -1 5364.33 109.957   3
  11  -4   1 5395.89 120.479  27
 -11   4  -1 5797.81 158.310  15
 -12   4  -1 5586.42 121.528  15
 -12   4  -1 5788.47 124.562  11
 -12   4  -1 5609.74 119.223  18
  12  -4   1 5435.88 104.907  27
  13  -4   1 186.493 15.3556  27
 -13   4  -1 218.829 20.7188  18
 -11   5   1 4708.76 91.2163  11
 -11   5   1 4371.40 86.9098  18
  11  -5  -1 4039.44 66.6622  27
 -11   5   1 5113.10 105.438  15
 -10   5   1 69.0902 14.8042  11
 -10   5   1 86.6856 15.4305   5
 -10   5   1 89.9952 60.2555  15
  10  -5  -1 71.6069 12.6098  27
   9  -5  -1 546.070 37.4835  27
  -9   5   1 520.108 34.1917  10
  -9   5   1 593.983 133.365  15
  -9   5   1 534.437 38.9893   5
  -8   5   1 2292.33 83.3365   5
  -8   5   1 2297.10 75.5495  10
  -8   5   1 2320.81 76.2948  16
   8  -5  -1 2385.40 83.4455  27
  -7   5   1 469.026 35.6272  10
  -7   5   1 495.314 39.8720  16
   7  -5  -1 476.901 40.3008  27
  -6   5   1 3219.12 94.3271  10
   6  -5  -1 3411.62 107.416  27
  -6   5   1 3342.74 103.090  16
   5  -5  -1 2782.64 98.5933  27
   4  -5  -1 174.395 26.7116  27
   3  -5  -1 8615.56 177.192  27
   2  -5  -1 343.782 36.9839  27
   1  -5  -1 49905.6 432.258  27
   0  -5   1 13156.5 203.340  27
   0  -5  -1 13518.2 222.391  27
   1  -5   1 3873.49 111.986  27
  -1  -5  -1 4064.25 120.880  27
  -2  -5  -1 41004.2 376.226  27
   2  -5   1 39906.4 366.670  27
  -3  -5  -1 1723.12 76.0922  27
   3  -5   1 1798.05 78.5125  27
  -4  -5  -1 2777.06 92.8018  27
   4  -5   1 2874.63 99.7602  27
   5  -5   1 349.070 36.0699  27
  -6   5  -1 1017.21 52.5672   5
   6  -5   1 1476.57 72.6360  27
   7  -5   1 521.201 45.1663  27
  -7   5  -1 325.949 29.4868   5
  -8   5  -1 947.635 51.5140  11
  -8   5  -1 938.120 97.9302  15
   8  -5   1 1001.09 58.7109  27
  -9   5  -1 2156.76 73.1788  11
  -9   5  -1 2219.80 66.4502   5
   9  -5   1 2289.21 79.3370  27
 -10   5  -1 1267.27 63.7712  15
 -10   5  -1 1212.84 58.0178  18
  10  -5   1 1192.81 49.8469  27
 -10   5  -1 1161.91 50.1384  11
 -11   5  -1 1092.32 43.4239  18
 -11   5  -1 1066.97 40.6415  11
  11  -5   1 1094.49 39.9947  27
 -11   5  -1 1132.60 42.9328  15
  -8   6   1 2.48189 4.64866  11
  -8   6   1 32.4935 46.7912  15
   8  -6  -1 4.36403 8.76921  27
  -8   6   1 53.3848 8.82720   5
   7  -6  -1 54.4826 13.6029  27
  -7   6   1 33.1590 9.45690   5
  -6   6   1 675.093 32.2072  16
   6  -6  -1 698.266 39.8888  27
  -6   6   1 652.780 36.0674   5
   5  -6  -1 164.585 22.0457  27
  -5   6   1 84.9861 12.7679  16
   4  -6  -1 1479.85 62.7194  27
   3  -6  -1 6306.71 131.752  27
   2  -6  -1 2529.62 85.1632  27
   1  -6  -1 14186.0 201.078  27
   0  -6  -1 1255.74 59.0509  27
   0  -6   1 1010.60 47.3825  27
   1  -6   1 308.058 28.2148  27
  -1  -6  -1 467.066 36.8446  27
   2  -6   1 197.546 23.9252  27
  -2  -6  -1 265.470 26.3952  27
  -3  -6  -1 451.285 30.6935  27
   3  -6   1 508.709 38.4196  27
   4  -6   1 34.6784 13.6054  27
   5  -6   1 427.556 34.0495  27
  -6   6  -1-11.7924 30.7398  15
   6  -6   1-2.52192 15.4323  27
  -7   6  -1 198.425 43.3847  15
   7  -6   1 188.139 22.9031  27
   8  -6   1 374.071 24.6831  27
  -8   6  -1 358.459 27.5855  15
  -8   6  -1 379.761 25.6463  18
  16   0  -2 2973.98 73.4747   2
 -15   0   2 2606.88 86.5871   6
 -14   0   2 4155.78 125.072   6
 -14   0   2 2871.86 82.8934   3
 -13   0   2 5433.02 151.601   6
 -13   0   2 5316.79 121.001   3
 -12   0   2 3944.68 106.534   3
 -12   0   2 4114.98 122.014  19
 -12   0   2 3995.94 134.924   6
 -11   0   2 5013.89 132.150  19
 -11   0   2 4657.84 116.836   3
 -11   0   2 4688.48 244.557  23
 -11   0   2 4848.62 147.530   6
 -10   0   2 2322.50 78.7527   3
 -10   0   2 2147.43 158.667  23
 -10   0   2 2307.52 86.1096  19
  -9   0   2 2991.89 172.318  23
  -8   0   2 25655.8 461.969  23
  -7   0   2 48301.7 584.829  23
  -6   0   2 268005. 1274.61  23
  -5   0   2 37986.3 301.130  26
  -5   0   2 37213.6 442.672  23
  -4   0   2 38008.9 235.648  22
  -4   0   2 36849.0 415.881  23
  -4   0   2 37016.9 313.141  26
  -3   0   2 64488.6 518.185  23
  -3   0   2 64655.6 429.630  26
  -2   0   2 27722.3 333.894  23
  -2   0   2 28816.8 290.984  26
  -1   0   2 251385. 1007.10  23
  -1   0   2 251772. 893.801  26
   1   0  -2 253194. 635.752  24
   0   0  -2 181709. 635.607  24
   0   0   2 184120. 779.581  26
  -2   0  -2 1265.80 71.4879  24
  -2   0  -2 1187.46 64.4067  28
  -3   0  -2 6130.16 148.948  28
  -4   0  -2 3544.37 119.117  28
  -5   0  -2 24219.2 338.428  28
  -6   0  -2 320.543 42.3899  28
  -7   0  -2 68750.3 679.880  28
  -8   0  -2 14587.4 338.975  28
  -9   0  -2 16685.1 245.773  18
  -9   0  -2 16449.9 483.759  24
  -9   0  -2 16177.6 233.566   3
 -10   0  -2 3178.72 108.958   9
 -10   0  -2 3108.56 107.085   3
 -10   0  -2 3467.91 193.389  28
 -10   0  -2 3086.91 227.537  24
 -11   0  -2 58323.5 1032.18  24
  11   0   2 58900.0 498.006   2
 -11   0  -2 59069.8 478.982   9
  12   0   2 36096.3 400.641   2
  13   0   2 11459.9 225.240   2
  14   0   2 837.747 56.4756   2
  15   0   2 1957.13 75.8724   2
  16   0   2 2308.47 65.1317   2
  16   1  -2 20.6892 6.93824   2
  16  -1  -2 13.9290 5.79980   2
 -15   1   2 1748.56 68.2685   6
 -15  -1   2 1653.59 59.0782   3
 -14   1   2 209.511 28.6643   6
 -14  -1   2 187.487 23.1573   3
 -13  -1   2 308.364 38.6970   6
 -13   1   2 286.486 35.8777   6
 -13  -1   2 317.882 31.8773   3
 -12  -1   2 335.638 34.5773   3
 -12  -1   2 342.154 43.7297   6
 -12   1   2 387.838 40.3605  19
  12  -1  -2 383.785 34.5905   1
 -11   1   2 23854.4 298.216  19
 -11  -1   2 23079.9 333.384   6
 -11  -1   2 22656.9 558.032  23
 -11  -1   2 23841.8 278.470   3
 -11   1   2 22585.1 298.381  10
 -11  -1   2 23593.9 266.950  19
  11  -1  -2 22670.5 264.492   1
 -10  -1   2 10824.1 173.835  19
 -10  -1   2 11475.1 185.864   3
 -10  -1   2 11631.1 222.169   6
 -10  -1   2 11055.7 372.434  23
 -10   1   2 11454.9 204.887   5
 -10   1   2 11509.0 214.228  15
 -10   1   2 11263.5 200.029  10
 -10   1   2 11103.5 197.469  19
  10  -1  -2 10627.6 172.295   1
  -9  -1   2 1264.66 117.510  23
  -9   1   2 1306.21 106.592  23
  -9   1   2 1345.50 66.4351   5
  -9  -1   2 1495.78 74.5495   6
  -9   1   2 1371.82 65.2666  10
  -9   1   2 1059.14 56.4625   8
  -9   1   2 1308.40 63.4237  19
   9  -1  -2 1299.13 58.3642   1
  -9  -1   2 1308.51 58.8073   3
  -8  -1   2 339.699 57.2392  23
  -8   1   2 383.974 53.5141  23
  -7   1   2 2855.91 135.594  23
  -7  -1   2 2821.97 150.124  23
  -6   1   2 2895.33 128.161  23
  -6  -1   2 2767.34 137.842  23
  -6   1   2 3271.01 129.026  22
  -6   1   2 2999.09 126.008  25
  -5  -1   2 3660.51 109.498  24
  -5  -1   2 3497.71 146.341  23
  -5   1   2 3517.96 132.147  25
  -5   1   2 3444.46 131.804  23
  -4   1   2 7822.39 188.021  23
  -4  -1   2 7646.69 122.111  24
  -4   1   2 7538.99 186.807  25
  -4  -1   2 7614.00 198.941  23
  -3   1   2 877.922 62.1479  25
  -3   1   2 809.917 58.4273  23
  -3  -1   2 897.796 64.8531  23
  -2  -1   2 49399.2 446.112  23
  -2   1   2 48774.3 468.281  23
   2  -1  -2 49222.3 457.331  24
  -2   1   2 49068.5 463.052  25
  -1   1   2 246349. 1049.27  25
   1  -1  -2 247865. 1050.83  24
   0   1   2 47825.9 457.609  25
   0   1  -2 47147.0 389.785  22
   0  -1   2 47709.0 416.096  23
  -1  -1  -2 999999. 2241.14  24
  -1   1  -2 978881. 1990.90  22
  -2   1  -2 53359.6 503.816  28
  -2  -1  -2 51752.5 538.708  24
  -2   1  -2 50046.2 496.896  22
  -2  -1  -2 49215.2 305.714  28
   2   1   2 52040.2 503.283  26
  -3  -1  -2 59450.7 620.615  24
   3   1   2 58093.7 532.688  26
  -3   1  -2 57750.0 538.118  28
  -3   1  -2 60611.1 583.570  22
  -3  -1  -2 56970.7 341.050  28
   4   1   2 70898.7 622.914  26
  -4   1  -2 72304.0 628.709  28
  -4  -1  -2 71327.2 423.977  28
  -5  -1  -2 6843.41 245.786  24
  -5   1  -2 6855.64 208.988  28
  -6  -1  -2 2982.97 108.627  28
  -6   1  -2 2767.38 142.084  28
  -6  -1  -2 2667.25 163.628  24
  -7  -1  -2 6063.85 262.828  24
  -7   1  -2 6266.58 229.390  28
  -8  -1  -2 7736.81 314.060  24
  -8   1  -2 8589.39 287.796  28
  -9  -1  -2 36319.7 733.303  24
  -9  -1  -2 38575.7 352.737   3
   9  -1   2 37067.7 356.079   2
   9   1   2 37061.0 359.822   2
  -9   1  -2 37948.5 369.168  15
   9  -1   2 36330.2 335.151  27
  -9   1  -2 38310.5 368.643  18
 -10   1  -2 1940.24 88.8583  11
 -10   1  -2 1924.84 87.7855  18
  10  -1   2 1871.49 86.3625   2
 -10   1  -2 1911.99 156.571  28
  10   1   2 1571.19 79.6173   2
 -10   1  -2 2157.15 114.378   9
 -10  -1  -2 1785.26 82.8232   3
  10  -1   2 1797.00 77.4444  27
 -10  -1  -2 1541.67 164.523  24
  11  -1   2 18680.0 282.784   2
  11  -1   2 18327.2 245.569  27
 -11   1  -2 19483.6 285.981  18
  11   1   2 18394.4 280.161   2
 -11  -1  -2 19073.5 598.928  24
 -11   1  -2 20872.7 297.597   9
 -11  -1  -2 19855.9 282.196   3
 -11   1  -2 21346.4 549.087  28
 -12   1  -2 3610.74 119.036   9
  12  -1   2 3537.85 124.823   2
 -12  -1  -2 3702.02 121.227   3
  12   1   2 3457.91 122.256   2
  13   1   2 1860.15 85.4517   2
  13  -1   2 1773.05 85.0029   2
 -13   1  -2 1771.70 76.5346   9
  14   1   2 2011.93 81.3094   2
  14  -1   2 2004.06 83.2724   2
  15   1   2 27.2487 10.6751   2
  15  -1   2 29.2018 11.1619   2
  16   1   2 49.4291 8.81653   2
  16  -1   2 63.5786 10.2571   2
 -15  -2   2 1157.19 46.7174   3
 -15   2   2 1094.27 47.6029   6
 -14   2   2 268.490 29.0517   6
 -14  -2   2 312.224 28.8338   3
 -13   2   2 3698.14 114.949   6
 -13   2   2 3672.46 105.831  11
 -13  -2   2 3675.24 104.391   3
 -12  -2   2 1669.46 75.4247   3
  12  -2  -2 1486.18 70.6006   1
 -12   2   2 1658.11 81.5747  10
 -12   2   2 1612.47 73.3631  11
 -12   2   2 1449.12 75.6244   5
 -12   2   2 1536.93 77.3437  15
 -11   2   2 14732.9 261.131  15
 -11   2   2 14279.0 239.527   5
 -11   2   2 14969.6 232.611  11
 -11   2   2 14970.9 245.281  10
  11  -2  -2 14487.1 220.082   1
 -11   2   2 14727.6 235.867  19
 -10   2   2 4858.03 137.301  10
 -10   2   2 5089.24 200.620  15
 -10   2   2 5012.52 136.113  19
 -10  -2   2 5086.75 131.409   3
 -10   2   2 4685.31 135.857   5
 -10  -2   2 4669.48 147.040   6
  10  -2  -2 4659.94 126.223   1
 -10  -2   2 5134.13 264.248  23
   9  -2  -2 170574. 711.840   1
  -9  -2   2 170422. 848.438   6
  -9   2   2 168385. 759.226  10
  -9  -2   2 169486. 713.511   3
  -9   2   2 170900. 782.955   5
  -9   2   2 169089. 757.900  19
  -9   2   2 168419. 773.076  16
  -9   2   2 169113. 734.267   8
  -8   2   2 3288.22 104.167  16
  -8  -2   2 3917.24 208.023  23
  -8  -2   2 4087.19 127.580   6
  -8   2   2 3920.17 107.974  12
  -8   2   2 3898.02 109.263  10
  -8   2   2 3945.38 108.757  19
   8  -2  -2 3096.58 93.5004   1
  -8   2   2 3967.98 106.514   8
  -7  -2   2 18075.5 417.539  23
  -7   2   2 18112.5 404.672  25
  -6  -2   2 2839.83 151.917  23
  -6   2   2 2695.39 152.139  25
  -5   2   2 30451.0 480.916  25
  -5  -2   2 29912.5 462.042  23
  -4   2   2 7374.29 230.576  25
  -4  -2   2 7762.72 216.372  23
  -4   2   2 7583.45 169.193  23
  -3  -2   2 74818.3 615.883  23
  -3   2   2 73847.3 720.589  25
   3  -2  -2 75329.3 746.722  24
  -2  -2   2 33693.4 380.321  23
  -2   2   2 33002.0 388.976  23
  -2   2   2 34832.1 481.557  25
   2   2  -2 34345.7 327.365  22
   2  -2  -2 33723.4 491.368  24
   1  -2  -2 60474.8 659.918  24
  -1  -2   2 60794.7 467.764  23
  -1   2   2 62183.9 639.381  25
   0   2   2 8834.01 243.301  25
   0   2  -2 8541.97 203.107  22
   0  -2  -2 8973.47 262.721  24
   0  -2   2 8584.25 160.761  23
  -1  -2  -2 29853.2 487.619  24
   1  -2   2 30346.8 273.753  23
   1   2   2 30503.3 444.239  25
  -1   2  -2 30132.4 415.273  22
  -1   2  -2 30768.8 438.260  28
  -2  -2  -2 1124.38 97.8395  24
   2  -2   2 1127.47 48.8605  23
  -2   2  -2 1169.53 87.2722  22
  -2   2  -2 1116.59 84.2226  28
   3   2   2 681.088 68.0675  26
  -3   2  -2 661.536 69.6262  22
  -3  -2  -2 622.532 77.7934  24
  -3   2  -2 709.639 70.0231  28
   4   2   2 58658.6 626.622  26
  -4   2  -2 61128.3 725.559  22
  -4   2  -2 61390.3 673.076  28
  -4  -2  -2 59027.4 780.089  24
  -5   2  -2 3496.05 169.811  28
  -5  -2  -2 3325.36 199.115  24
  -5   2  -2 3293.48 179.434  22
   5   2   2 3227.63 149.000  26
  -6   2  -2 41846.9 675.856  22
  -6  -2  -2 42891.9 757.597  24
  -6   2  -2 42963.8 626.672  28
  -7   2  -2 21958.0 472.254  28
  -7  -2  -2 22526.6 577.994  24
  -8  -2  -2 1747.47 71.9556   3
   8  -2   2 1697.01 71.3649  27
  -8  -2  -2 1771.85 170.340  24
  -8   2  -2 1646.24 73.7993  11
  -8   2  -2 1535.31 68.3833   5
  -8   2  -2 1776.74 144.062  28
  -8   2  -2 1422.76 95.0120  15
  -9  -2  -2 2705.99 217.250  24
  -9   2  -2 3148.85 129.929  15
   9  -2   2 2818.81 104.412   2
   9   2   2 2692.95 100.919   2
  -9   2  -2 2770.95 107.029  18
  -9   2  -2 3004.17 105.455  11
  -9  -2  -2 2983.82 99.6639   3
   9  -2   2 2775.53 96.3150  27
  -9   2  -2 3003.05 196.900  28
 -10   2  -2 1412.03 78.0593  15
 -10  -2  -2 792.989 122.958  24
  10  -2   2 1339.98 68.5143  27
  10  -2   2 1316.96 73.3890   2
 -10   2  -2 1290.07 73.1486  11
  10   2   2 855.631 59.0441   2
 -10  -2  -2 1071.08 62.4655   3
 -10   2  -2 1318.94 74.5075  18
 -10   2  -2 1200.93 130.914  28
  11  -2   2 3806.82 123.498   2
  11   2   2 3601.76 118.244   2
 -11   2  -2 3822.81 126.308  11
 -11   2  -2 3588.05 189.297   9
 -11  -2  -2 3935.34 122.973   3
  11  -2   2 3613.33 109.729  27
 -11   2  -2 3682.26 122.740  18
  12  -2   2 1674.64 80.5221   2
 -12   2  -2 1753.17 96.4749   9
 -12  -2  -2 1766.60 80.3956   3
 -12   2  -2 1659.92 81.0849  18
  12  -2   2 1642.21 70.6206  27
  12   2   2 1537.41 75.2975   2
  13  -2   2 1755.68 76.7130   2
 -13   2  -2 1733.79 74.9172   9
 -13   2  -2 1666.46 77.7988  18
  13   2   2 1616.61 72.0127   2
  14   2   2 1779.28 64.7320   2
  14  -2   2 1868.90 67.2313   2
  15   2   2 88.3757 11.4162   2
  15  -2   2-2.85240 2.24620   2
 -15  -3   2 291.023 17.6739   3
 -14  -3   2 13.5114 8.10645   3
 -14   3   2 21.1695 8.43294   6
 -13   3   2 86.3405 16.2506  11
 -13  -3   2 84.0464 16.3749   3
 -12   3   2 92.3639 28.2724  15
 -12  -3   2 143.588 22.9657   3
 -12   3   2 113.232 22.9681   5
 -12   3   2 105.711 20.0599  11
 -12   3   2 132.571 24.1387  10
 -11   3   2 2685.95 131.593  15
 -11   3   2 2837.75 109.156   5
 -11   3   2 2981.27 108.566  10
 -11  -3   2 2884.80 95.5899   3
 -10   3   2 985.758 64.6474   5
  10  -3  -2 977.881 60.1030   1
 -10   3   2 1079.21 65.2536  10
 -10  -3   2 997.515 57.6417   3
 -10   3   2 826.189 129.842  15
 -10   3   2 998.947 62.8873  16
  -9  -3   2 5480.75 130.323   3
  -9   3   2 5300.95 147.254   5
  -9   3   2 5658.91 141.525  19
  -9   3   2 5551.00 146.512  10
   9  -3  -2 5689.35 143.188   1
  -9   3   2 5472.01 131.945   8
  -9   3   2 5438.70 149.929  16
  -8   3   2 957.928 113.830  25
  -8   3   2 1015.42 115.370  22
  -8  -3   2 983.477 54.5926   3
  -8   3   2 1094.41 64.6145  10
  -8   3   2 1154.20 62.6038  19
  -8   3   2 971.480 59.3383  12
  -8   3   2 1147.11 69.8478  16
   8  -3  -2 1184.41 64.0920   1
  -8   3   2 975.204 55.5776   8
   8  -3  -2 1064.22 57.0795  27
  -7   3   2 3292.45 104.052  12
  -7  -3   2 3181.91 193.326  23
  -7   3   2 3606.50 113.606  16
  -7   3   2 3253.13 211.198  22
  -7   3   2 3345.27 101.430  19
  -7   3   2 3349.43 210.808  25
  -7   3   2 3310.11 99.8303   8
   7  -3  -2 3521.52 104.828   1
   7  -3  -2 3309.35 99.0647  27
  -6   3   2 8086.95 316.461  25
  -6  -3   2 8080.37 282.892  23
   6  -3  -2 8639.83 156.608   1
  -6   3   2 8403.85 162.473  12
  -6  -3   2 8163.53 141.837  20
  -6   3   2 8008.52 150.807   8
   6  -3  -2 8208.96 154.180  27
  -5   3   2 1616.47 137.624  25
  -5  -3   2 1597.56 115.462  23
  -4   3   2 13646.1 387.100  25
  -4  -3   2 13243.1 303.483  23
  -3   3   2 1372.89 121.629  25
  -3  -3   2 1117.05 80.7979  23
  -2   3   2 2338.48 154.424  25
   2  -3  -2 2472.92 163.192  24
   2   3  -2 2157.94 127.252  28
   1  -3  -2 244.880 54.7232  24
   1   3  -2 239.245 38.7605  22
  -1   3   2 277.837 52.2970  25
   0   3   2 573.110 73.9911  25
   0  -3  -2 501.586 76.0067  24
   0   3  -2 667.925 68.1428  22
   0   3  -2 763.537 75.3250  28
   1   3   2 8722.75 285.699  25
  -1  -3  -2 8223.95 307.118  24
  -1   3  -2 7990.47 252.542  22
  -1   3  -2 8491.87 254.466  28
  -2   3  -2 37585.4 586.801  22
  -2  -3  -2 38214.3 686.462  24
   2   3   2 37341.8 588.267  25
  -2   3  -2 38433.0 557.619  28
  -3   3  -2 36088.9 573.472  28
  -3  -3  -2 34047.5 661.667  24
  -3   3  -2 35307.0 596.478  22
  -4  -3  -2 8673.39 345.564  24
   4   3   2 8642.54 281.914  26
  -4   3  -2 8432.39 308.835  22
  -4   3  -2 8836.40 292.858  28
  -5   3  -2 388.743 72.4195  22
  -5  -3  -2 470.744 86.7998  24
  -5   3  -2 566.310 78.8144  28
   6  -3   2 754.441 48.9401  27
  -6  -3  -2 806.200 118.801  24
  -6   3  -2 689.190 98.4434  22
  -6   3  -2 696.341 90.3344  28
  -7  -3  -2 8851.59 414.042  24
  -7   3  -2 8232.01 357.018  22
   7  -3   2 7979.39 164.654  27
  -7   3  -2 8656.10 332.870  28
  -8   3  -2 5041.61 127.466   5
  -8   3  -2 4930.35 134.959  11
  -8   3  -2 5168.31 266.999  28
  -8  -3  -2 5292.29 329.441  24
   8  -3   2 4851.49 132.673  27
  -8  -3  -2 5163.20 124.352   3
   9  -3   2 9525.37 184.979  27
  -9   3  -2 9326.70 190.155  11
  -9   3  -2 9684.33 180.225   5
  -9  -3  -2 9469.07 174.201   3
  10  -3   2 2829.92 99.8813  27
 -10   3  -2 3109.58 123.258  15
 -10   3  -2 2787.40 105.130  11
 -10  -3  -2 2694.40 96.1343   3
 -10   3  -2 2881.37 113.839  18
 -11   3  -2 15937.1 251.461  11
 -11   3  -2 16026.3 245.514  15
  11  -3   2 15520.2 224.689  27
 -11  -3  -2 15154.3 220.065   3
 -11   3  -2 15134.6 244.236  18
 -12   3  -2 1406.90 71.8440  11
 -12   3  -2 1428.25 102.091   9
 -12   3  -2 1417.92 71.4879  18
  12  -3   2 1445.16 63.2357  27
 -13   3  -2 172.954 25.8849   9
 -13   3  -2 168.049 23.6849  18
  13  -3   2 161.978 19.0897  27
 -14  -3  -2 97.8640 14.0727  21
 -14   3  -2 159.740 16.0822   9
 -13   4   2 1174.83 38.0824   6
 -13   4   2 1261.59 44.3758  11
 -13  -4   2 1124.96 38.0327   3
 -12   4   2 224.697 24.7425   5
 -12   4   2 215.811 26.5515  15
 -12   4   2 224.542 24.5099  11
 -12  -4   2 204.157 19.8037   3
 -11   4   2 243.934 54.0122  15
 -11   4   2 255.937 31.6908  18
 -11   4   2 359.375 34.8810   5
 -11   4   2 280.266 29.5645  10
 -11  -4   2 294.260 27.1849   3
  10  -4  -2 282.418 26.7871  27
 -10   4   2 295.704 119.854  15
 -10   4   2 237.577 31.9439   5
 -10   4   2 188.636 26.4939  10
 -10  -4   2 176.421 23.0383   3
  -9   4   2 6744.02 161.140   5
  -9  -4   2 6870.21 145.608   3
  -9   4   2 6051.92 146.836  10
   9  -4  -2 6170.95 134.118  27
  -9   4   2 6180.44 150.284  16
  -8  -4   2 4146.29 109.667   3
  -8   4   2 4167.04 114.823  12
  -8   4   2 4066.22 121.455  10
  -8   4   2 4482.48 136.053  16
  -8   4   2 4128.86 105.459   8
   8  -4  -2 3996.45 114.314  27
  -7  -4   2 663.781 43.6522   3
  -7   4   2 517.597 42.5374  12
   7  -4  -2 550.531 45.0269   1
  -7   4   2 563.128 48.1814  16
  -7   4   2 523.131 37.7517   8
   7  -4  -2 498.838 41.7433  27
  -6   4   2 2585.21 206.112  25
   6  -4  -2 2784.74 95.3704   1
  -6   4   2 2480.73 92.9422  12
  -6   4   2 2619.32 208.062  22
   6  -4  -2 2587.52 92.8433  27
  -6   4   2 2511.07 86.9875   8
   5  -4  -2 354.700 32.8565   1
  -5  -4   2 377.979 30.7650  20
  -5   4   2 313.153 70.8671  25
   5  -4  -2 325.987 34.5166  27
  -5   4   2 345.794 32.3129   8
  -4   4   2 9077.90 373.488  25
   4  -4  -2 8953.90 178.426  27
  -4   4   2 8660.39 157.600   8
   3  -4  -2 8236.77 166.984  27
  -3   4   2 8083.26 349.016  25
  -2   4   2 6950.22 317.197  25
   2  -4  -2 6801.74 151.778  27
  -1   4   2 5284.35 273.368  25
   1  -4  -2 5320.29 278.247  24
   1  -4  -2 5603.58 138.126  21
   0   4   2 7032.21 305.645  25
   0   4  -2 7060.42 272.395  22
   0  -4  -2 7057.37 156.012  21
   0  -4  -2 6868.33 321.197  24
   1   4   2 2607.95 181.433  25
  -1  -4  -2 2571.29 198.591  24
  -1   4  -2 2540.05 171.590  22
  -1  -4  -2 2627.76 96.4236  21
  -2  -4  -2 4544.36 265.734  24
  -2   4  -2 4371.99 234.300  22
  -2  -4  -2 4672.37 130.096  21
  -2   4  -2 4690.62 213.994  28
   2  -4   2 4358.35 111.239  27
   2   4   2 4239.74 230.798  25
   3   4   2 789.312 98.7250  26
  -3  -4  -2 888.151 121.561  24
   3  -4   2 897.862 52.7607  27
  -3   4  -2 876.145 109.375  22
  -3  -4  -2 856.691 58.1873  21
   4  -4   2 29.2242 11.1759  27
  -4  -4  -2 42.7931 16.3346  21
  -4  -4  -2 65.7749 40.2548  24
  -4   4  -2 62.2684 30.9965  28
  -4   4  -2 54.0257 29.0514  22
  -5  -4  -2 4152.72 284.698  24
  -5   4  -2 4186.10 259.469  22
  -5  -4  -2 4183.54 134.353  21
  -5   4  -2 3962.17 224.316  28
   5  -4   2 4106.40 119.421  27
  -6  -4  -2 653.708 117.295  24
  -6   4  -2 610.688 102.971  22
  -6  -4  -2 646.583 54.2422  21
  -6   4  -2 606.841 89.9747  28
   6  -4   2 685.193 50.6327  27
  -7   4  -2 176.917 25.0251  11
  -7  -4  -2 155.984 28.4832  21
   7  -4   2 190.453 32.5813  27
   8  -4   2 803.928 57.2168  27
  -8   4  -2 775.798 91.0050  15
  -8   4  -2 793.530 52.1215  11
  -8  -4  -2 823.989 60.6862  21
  -9   4  -2 898.461 80.6624  15
  -9   4  -2 850.815 53.4640  11
  -9  -4  -2 836.974 58.6953  21
   9  -4   2 920.941 58.7895  27
  -9   4  -2 800.607 60.5543  18
 -10   4  -2 2989.70 97.5337  11
 -10   4  -2 3233.39 114.206  15
 -10  -4  -2 2884.16 98.8022  21
 -10   4  -2 3002.82 107.476  18
  10  -4   2 3068.63 98.2121  27
 -11   4  -2 14078.0 193.593  15
 -11   4  -2 14347.8 199.650  11
 -11  -4  -2 13729.9 193.241  21
 -11   4  -2 13825.0 202.090  18
  11  -4   2 14411.5 191.412  27
 -12  -4  -2 509.123 31.7823  21
 -12   4  -2 604.719 50.0553   9
 -12   4  -2 597.435 38.0429  18
  12  -4   2 604.610 34.1733  27
 -13   4  -2 1058.12 36.9446   9
 -11   5   2 213.004 18.4240   5
 -11   5   2 201.084 17.9692  11
 -11   5   2 196.182 19.3681  15
 -10   5   2 54.6979 41.4533  15
  10  -5  -2 24.3757 6.96944  27
 -10   5   2 20.7348 9.05167  11
 -10   5   2 22.1170 10.6149   5
 -10   5   2 21.3221 7.86398  10
  -9   5   2 379.271 114.906  15
  -9   5   2 381.640 29.4421  16
  -9   5   2 396.100 33.1495   5
  -9   5   2 393.255 30.5638  10
   9  -5  -2 370.138 27.6511  27
  -8   5   2 2878.07 93.4718   5
  -8   5   2 2723.85 85.2759  10
   8  -5  -2 2741.58 83.2917  27
  -8   5   2 2714.64 86.7328  16
  -7   5   2 3773.17 93.9673  12
  -7   5   2 3655.52 102.143  10
   7  -5  -2 3833.42 104.710  27
  -6   5   2 5550.24 139.305  16
  -6   5   2 5257.31 126.421  10
  -6   5   2 5451.73 121.282  12
   6  -5  -2 5613.04 132.661  27
   5  -5  -2 439.057 40.1919  27
  -5   5   2 433.963 35.8228  12
   4  -5  -2 9181.76 180.128  27
  -4   5   2 9237.52 171.161  12
   3  -5  -2 254.159 31.5423  27
   2  -5  -2 557.444 46.3012  27
   1  -5  -2 7534.92 167.296  27
   0  -5  -2 838.788 57.1025  27
  -1  -5  -2 2858.78 101.788  21
  -1  -5  -2 2867.42 103.373  27
   1  -5   2 2815.69 91.2036  27
  -2  -5  -2 5552.14 143.433  27
   2  -5   2 5279.10 129.387  27
  -2  -5  -2 5339.37 139.779  21
  -3  -5  -2 3517.77 113.131  21
   3  -5   2 3604.19 108.613  27
  -4  -5  -2 19171.1 267.288  21
   4  -5   2 18570.8 250.339  27
  -5  -5  -2 401.604 38.5069  21
   5  -5   2 364.022 37.4290  27
  -6  -5  -2 1774.56 78.2403  21
   6  -5   2 1609.89 73.5393  27
  -7   5  -2 787.747 80.1928  15
  -7  -5  -2 877.469 52.4120  21
   7  -5   2 850.562 56.1264  27
   8  -5   2 4769.17 116.422  27
  -8   5  -2 4641.64 102.823  11
  -8  -5  -2 4739.54 109.642  21
  -8   5  -2 3924.82 138.476  15
  -8   5  -2 4119.76 114.497  18
  -9   5  -2 10228.1 164.602  15
  -9   5  -2 9959.92 160.431  18
   9  -5   2 9996.36 153.628  27
  10  -5   2 368.905 27.2961  27
 -10   5  -2 385.067 28.9014  18
  11  -5   2 3893.66 69.8414  27
 -11   5  -2 3852.38 72.7648  18
  -8   6   2 748.314 54.8036  15
  -8   6   2 714.614 29.5518   5
  -8   6   2 720.669 29.7401  11
  -7   6   2 678.769 28.8920  16
  -7   6   2 791.813 87.1928  15
  -7   6   2 704.240 34.4495   5
   7  -6  -2 738.620 33.5501  27
  -6   6   2 4697.49 90.3081  16
   6  -6  -2 4872.62 95.2730  27
   5  -6  -2 103.693 16.6544  27
  -5   6   2 81.7739 11.8353  10
  -5   6   2 124.157 17.9465  16
   4  -6  -2 1159.39 53.0039  27
  -4   6   2 1029.37 41.9635  10
   3  -6  -2 1013.12 51.7561  27
   2  -6  -2 6356.77 131.361  27
  -2   6   2 6100.27 109.664  12
   1  -6  -2 4929.57 117.420  27
   0  -6  -2 279.690 29.7528  27
  -1  -6  -2 9412.49 160.774  27
   2  -6   2-19.8775 7.54029  27
  -2  -6  -2 613.857 40.2607  27
  -3  -6  -2 364.613 29.4437  27
   3  -6   2 387.762 31.1486  27
  -4  -6  -2 279.241 23.3293  27
   4  -6   2 288.004 28.5718  27
   5  -6   2 463.402 33.7110  27
  -6   6  -2 5503.09 95.4535  18
   6  -6   2 5717.22 101.421  27
   7  -6   2 2401.43 59.8072  27
  -7   6  -2 1936.61 48.7269  18
   8  -6   2 1153.52 35.2531  27
 -15   0   3 23.9671 10.6839   6
 -14   0   3 15.2134 12.1584   6
 -13   0   3 12.6872 14.0637   6
 -12   0   3 19.4041 14.6083   6
 -12   0   3-0.07745 5.49976   3
 -12   0   3 23.2903 13.1704  19
 -11   0   3 130.916 19.5315   3
 -11   0   3 180.130 26.7003  19
 -11   0   3 134.093 27.3340   6
 -10   0   3 121.738 38.8234  23
 -10   0   3 113.080 18.7618   3
  10   0  -3 108.852 17.8046   1
 -10   0   3 127.515 22.3218  19
  -9   0   3 105.175 35.0080  23
  -9   0   3 125.389 20.3160  19
  -8   0   3 79.3873 30.2915  23
  -7   0   3 376.874 58.8724  23
  -6   0   3 188.205 39.7022  23
  -5   0   3 104.186 28.8918  23
  -4   0   3 10.8219 13.1781  23
  -4   0   3 9.49030 6.55436  26
  -3   0   3 23.8281 15.6890  23
  -3   0   3 27.8241 12.9105  26
  -2   0   3 86.2979 25.3350  23
  -2   0   3 89.2644 22.0582  26
  -1   0   3 290.869 44.3301  23
   1   0  -3 314.565 27.5488  24
  -1   0   3 343.795 43.4106  26
   0   0  -3 109.609 19.8868  24
   0   0   3 84.2501 23.1118  26
   1   0   3 15.4509 14.6775  26
  -1   0  -3 7.98295 8.50369  24
  -2   0  -3 58.6199 21.4610  24
  -3   0  -3 241.216 36.0812  28
  -3   0  -3 5.36271 11.3871  24
  -4   0  -3 89.5931 26.8191  24
  -4   0  -3 303.124 40.9169  28
  -5   0  -3 67.5943 25.6923  24
  -5   0  -3 201.442 36.9865  28
  -6   0  -3 35.7098 20.6735  24
  -6   0  -3 162.582 34.4573  28
  -7   0  -3 18.5473 12.6869  28
  -7   0  -3-13.0235 21.4579  24
  -8   0  -3 143.847 36.7967  28
   8   0   3 124.875 21.8646   2
  -9   0  -3 205.298 58.7235  24
   9   0   3 205.854 29.6685   2
  -9   0  -3 250.286 31.1830   9
 -10   0  -3 1.80551 24.8815  24
 -10   0  -3 13.4979 13.5908   9
  10   0   3 27.0330 14.7410   2
  11   0   3 232.579 35.5503   2
  12   0   3 152.099 30.4244   2
  13   0   3 44.8118 21.3413   2
  14   0   3 113.087 22.3035   2
  15   0   3-1.83852 6.90229   2
  16   0   3 14.1528 5.31975   2
 -15   1   3 4920.59 108.940   6
 -15  -1   3 4591.41 79.8239   3
 -14  -1   3 172.521 20.1739   3
 -14   1   3 200.789 27.1206   6
 -13  -1   3 672.949 52.0607   6
 -13   1   3 702.389 52.4945   6
  13  -1  -3 679.925 41.4880   1
 -13  -1   3 722.050 44.7313   3
 -12  -1   3 7053.01 146.470   3
 -12  -1   3 6840.13 174.606   6
 -12  -1   3 7394.69 144.014  19
 -12   1   3 7308.85 164.369  19
  12  -1  -3 6866.13 142.406   1
 -11  -1   3 509.708 41.8400   3
 -11  -1   3 418.538 44.4558   6
  11  -1  -3 506.804 39.3994   1
 -11   1   3 507.463 43.3741  10
 -11  -1   3 505.135 39.4600  19
  10  -1  -3 1236.04 61.3750   1
 -10  -1   3 1291.02 63.7624   3
 -10  -1   3 1274.46 74.2518   6
 -10  -1   3 1262.62 129.382  23
 -10  -1   3 1365.04 63.6540  19
 -10   1   3 1362.52 71.0851  19
 -10   1   3 1311.54 67.8136   5
 -10   1   3 1322.94 68.0894  10
  -9   1   3 29298.0 533.080  23
  -9   1   3 31051.3 318.760   5
  -9  -1   3 30137.2 598.100  23
  -9   1   3 30659.9 310.218  10
  -9  -1   3 31811.0 300.223  19
  -9  -1   3 31441.9 345.822   6
  -9   1   3 30583.5 314.964   8
  -9   1   3 31543.9 324.317  19
  -8  -1   3 14319.8 387.696  23
  -8   1   3 14328.8 360.659  23
  -8  -1   3 14574.5 190.338  20
  -8   1   3 14155.7 202.309  19
  -8   1   3 14644.6 205.453   8
  -8   1   3 15216.0 218.640  16
  -7  -1   3 6566.91 247.565  23
  -7   1   3 6618.70 231.421  23
  -6  -1   3 17542.7 384.992  23
  -6   1   3 17742.4 364.111  23
  -5  -1   3 105728. 895.831  23
  -5   1   3 107337. 861.470  23
  -4   1   3 957.605 80.2206  25
  -4  -1   3 956.068 81.4909  23
  -4   1   3 1016.58 81.7281  23
  -3   1   3 12035.6 282.085  23
  -3   1   3 12034.7 278.346  25
  -3  -1   3 11582.5 272.504  23
   2  -1  -3 25376.7 361.622  24
  -2  -1   3 25618.5 387.878  23
   1  -1  -3 2406.25 115.409  24
  -1  -1   3 2379.57 117.837  23
  -1   1   3 2478.19 128.861  26
   0  -1   3 2095.52 111.377  23
   0  -1  -3 2215.18 115.251  24
   0   1   3 2164.84 121.836  26
   1   1   3 430165. 1729.99  26
  -1  -1  -3 437035. 1692.13  24
  -2  -1  -3 78173.2 754.029  24
   2   1   3 76275.8 719.772  26
  -2   1  -3 77866.2 731.998  28
   3   1   3 2105.08 123.719  26
  -3  -1  -3 1982.22 129.022  24
  -3  -1  -3 1904.48 79.5333  28
  -3   1  -3 2162.53 123.831  28
   4   1   3 1663.62 112.753  26
  -4  -1  -3 1760.64 78.4507  28
  -4  -1  -3 1732.12 126.848  24
  -4   1  -3 1806.62 115.167  28
  -5  -1  -3 53325.8 741.901  24
  -5   1  -3 55835.4 659.282  28
  -6  -1  -3 19776.0 476.808  24
  -6   1  -3 21542.0 432.447  28
  -7  -1  -3 2987.46 195.288  24
  -7   1  -3 3835.96 191.958  28
  -8  -1  -3 14664.7 463.864  24
   8  -1   3 14661.5 230.665   2
   8   1   3 14917.2 235.782   2
  -8  -1  -3 15037.4 218.406   3
   8  -1   3 15126.1 216.032  27
  -8   1  -3 15538.2 232.625  18
   9   1   3 401.549 41.4031   2
  -9  -1  -3 372.923 80.3255  24
   9  -1   3 384.697 39.9346   2
  -9   1  -3 397.271 39.9855  18
   9  -1   3 375.005 35.9642  27
  -9   1  -3 442.370 65.5530   9
  -9   1  -3 443.915 73.1216  28
  10   1   3 8172.23 189.249   2
 -10  -1  -3 6581.03 347.320  24
 -10   1  -3 8435.58 387.615  24
 -10   1  -3 9701.44 216.381   9
 -10   1  -3 8279.01 188.665  18
 -10   1  -3 9185.12 342.797  28
  10  -1   3 8160.37 169.937  27
  10  -1   3 8130.34 186.185   2
  11  -1   3 19505.2 293.638   2
  11   1   3 19081.6 293.284   2
 -11   1  -3 19684.1 294.269   9
 -12   1  -3 162.465 27.7973   9
  12  -1   3 167.467 29.8370   2
  13   1   3 13710.5 223.280   2
  13  -1   3 14065.4 228.817   2
  14   1   3 541.444 39.2751   2
  14  -1   3 518.014 39.6089   2
  15   1   3 535.682 31.4810   2
  15  -1   3 532.692 32.5162   2
 -15   2   3 357.244 25.0929   6
 -15  -2   3 359.884 22.1663   3
 -14   2   3 152.916 21.4985   6
 -14  -2   3 130.498 17.1308   3
 -13   2   3 399.184 38.8444   6
 -13  -2   3 383.234 32.5546   3
 -12  -2   3 411.307 36.9282   3
  12  -2  -3 380.309 34.8286   1
 -12   2   3 409.895 40.0304  10
 -12   2   3 424.702 38.9134  19
 -11   2   3 6178.79 149.844  15
 -11  -2   3 6795.39 153.225   3
 -11   2   3 6364.92 153.488   5
 -11   2   3 6250.51 154.335  10
 -11   2   3 6314.71 152.928  19
  11  -2  -3 5994.74 141.815   1
 -11   2   3 6584.35 144.298  11
 -10   2   3 4934.41 151.890  15
 -10  -2   3 4219.91 134.301   6
 -10  -2   3 4731.09 124.306   3
  10  -2  -3 4392.21 120.019   1
 -10   2   3 4416.47 129.888   5
 -10   2   3 4701.35 132.877  10
 -10   2   3 4694.45 131.536  19
 -10   2   3 4784.60 135.619   8
  -9   2   3 7884.00 250.018  15
  -9  -2   3 8207.11 183.143   6
  -9  -2   3 8747.11 341.522  23
  -9   2   3 8341.24 173.027   5
  -9   2   3 7997.95 170.436  10
  -9   2   3 8147.27 168.882  19
  -9   2   3 8179.54 170.544   8
   9  -2  -3 8020.44 161.496   1
  -9   2   3 8038.83 175.361  16
  -8   2   3 5447.23 230.687  15
  -8  -2   3 5462.17 143.761   6
  -8  -2   3 5597.39 259.263  23
  -8   2   3 5648.44 136.679  12
  -8  -2   3 5559.37 125.792  20
  -8   2   3 5579.42 135.673  10
  -8   2   3 5703.65 143.052  16
  -8   2   3 5564.07 133.963  19
  -8   2   3 5742.44 136.721   8
  -7   2   3 11312.3 341.519  25
  -7  -2   3 10333.5 335.082  23
  -7   2   3 8318.31 162.713  12
  -7  -2   3 8500.72 151.780  20
  -7   2   3 10240.7 171.718  19
  -7   2   3 8814.43 164.762   8
  -7   2   3 11099.1 196.330  16
  -6  -2   3 10636.5 320.226  23
  -6   2   3 10576.1 325.796  25
  -5   2   3 12705.5 351.742  25
  -5  -2   3 13543.7 341.455  23
  -4   2   3 1807.04 127.290  25
  -4  -2   3 1940.86 122.068  23
  -4   2   3 1757.83 105.360  23
  -3   2   3 2377.37 144.761  25
   3  -2  -3 1959.72 131.436  24
  -3  -2   3 2401.20 128.372  23
  -3   2   3 2137.64 120.114  23
  -2   2   3 44551.0 623.438  25
   2  -2  -3 44131.0 615.160  24
  -2   2   3 43793.8 564.386  23
  -1   2   3 7632.14 255.635  25
   1  -2  -3 7545.69 252.198  24
  -1  -2   3 8123.24 215.120  23
   0   2   3 37794.8 573.524  25
   0  -2  -3 36838.8 586.775  24
   0  -2   3 38550.8 446.524  23
   1   2   3 276263. 1560.81  26
   1  -2   3 277853. 1154.47  23
  -1   2  -3 271022. 1507.59  28
  -1  -2  -3 271279. 1640.63  24
  -2  -2  -3 51174.5 744.792  24
  -2   2  -3 52250.2 665.723  28
   2   2   3 52025.9 676.852  26
   3   2   3 15162.8 369.452  26
  -3  -2  -3 15020.9 414.016  24
  -3   2  -3 15269.3 364.589  28
   4   2   3 14045.3 351.515  26
  -4  -2  -3 14661.3 428.731  24
  -4   2  -3 15293.1 371.500  28
  -5  -2  -3 3176.50 207.269  24
  -5   2  -3 3178.04 176.840  28
  -6  -2  -3 57.0950 29.2215  24
  -6   2  -3 92.7442 36.1148  28
   7  -2   3 2327.79 85.8566  27
  -7  -2  -3 2274.87 192.158  24
  -7   2  -3 2303.79 88.0518  11
  -7  -2  -3 2159.06 79.9206   3
  -7   2  -3 2338.24 165.331  28
  -7   2  -3 2346.47 92.2198  18
   8  -2   3 27502.9 329.486   2
   8   2   3 26333.9 318.081   2
  -8  -2  -3 26244.0 679.579  24
  -8   2  -3 29013.0 333.736  11
   8  -2   3 26853.2 304.459  27
  -8   2  -3 29155.6 331.673  15
  -8  -2  -3 27596.0 301.788   3
  -8   2  -3 30447.4 618.560  28
  -8   2  -3 27359.8 322.639  18
  -9  -2  -3 122.738 44.3785  24
  -9   2  -3 163.774 26.9049  11
   9  -2   3 140.241 25.4075   2
  -9  -2  -3 298.635 33.3279   3
  -9   2  -3 343.635 38.1006  18
   9   2   3 137.931 24.1767   2
  -9   2  -3 135.522 44.0796  28
   9  -2   3 119.086 22.3835  27
  10  -2   3 6051.01 143.644  27
  10  -2   3 6085.91 158.105   2
 -10   2  -3 6157.51 155.674  18
  11  -2   3 696.612 53.2636   2
  11  -2   3 678.728 47.4482  27
 -11   2  -3 746.868 81.2739   9
 -11   2  -3 682.768 54.0838  18
 -12   2  -3 101.477 31.5672   9
  12   2   3 59.9502 16.0261   2
  12  -2   3 64.5927 16.7566   2
 -13   2  -3 1262.63 60.5143   9
  13  -2   3 1172.53 57.4115   2
  13   2   3 1116.34 54.6212   2
  14   2   3 69.1080 11.6141   2
  14  -2   3-4.09245 4.09439   2
 -15  -2  -3 276.340 20.8268  21
 -14   3   3 4000.35 79.7215   6
 -14  -3   3 3688.74 72.3317   3
 -13  -3   3 5.83605 8.64923   3
 -13   3   3 2.62426 2.69129  11
 -12  -3   3 340.203 30.5978   3
 -12   3   3 323.577 32.8665   5
 -12   3   3 340.925 29.8690  11
 -12   3   3 394.342 36.9929  10
 -11   3   3 234.265 36.9559  15
 -11  -3   3 238.750 29.9119   3
  11  -3  -3 214.697 29.5843   1
 -11   3   3 224.723 30.2780   5
 -11   3   3 231.453 30.8439  10
 -10  -3   3 18299.8 238.081   3
 -10   3   3 17875.1 261.425   5
 -10   3   3 18601.0 265.678  10
 -10   3   3 17429.3 243.392  19
 -10   3   3 17906.7 351.557  15
  10  -3  -3 18111.5 247.665   1
 -10   3   3 18885.9 253.171   8
 -10   3   3 18982.6 269.878  16
  -9   3   3 63636.3 822.340  15
   9  -3  -3 65318.1 470.207   1
  -9  -3   3 64969.1 449.049   3
  -9   3   3 64987.8 501.033   5
  -9   3   3 65635.8 499.356  10
  -9   3   3 64881.4 465.856  19
  -9   3   3 64778.9 472.095   8
  -9   3   3 64780.0 520.557  16
  -8  -3   3 5279.80 271.767  23
  -8   3   3 5436.04 142.307  10
  -8   3   3 5188.65 130.390  19
  -8   3   3 5098.76 142.550  12
  -8   3   3 5299.66 135.156   8
   8  -3  -3 5075.09 129.169   1
  -8   3   3 5322.13 152.462  16
  -7   3   3 43676.4 417.048  16
  -7   3   3 42265.5 773.287  25
  -7  -3   3 41181.5 717.794  23
  -7   3   3 43724.4 400.538  12
   7  -3  -3 44144.7 372.288   1
  -7  -3   3 42301.8 351.939  20
  -7   3   3 42378.2 362.593  19
  -7   3   3 43288.8 386.917   8
  -6   3   3 3226.59 212.275  25
  -6  -3   3 3356.32 192.559  23
  -6   3   3 3572.90 112.591  12
  -6  -3   3 3514.54 99.2008  20
  -6   3   3 3366.81 101.813  17
   6  -3  -3 3579.33 103.220   1
   6  -3  -3 3306.37 98.6279  27
  -6   3   3 3511.45 107.111   8
  -5   3   3 1724.69 70.1199  13
  -5  -3   3 1685.94 126.959  23
   5  -3  -3 1871.03 71.2056   1
  -5   3   3 1768.96 73.9164   4
  -5  -3   3 1728.42 67.3737  20
  -5   3   3 1781.00 154.839  25
  -5   3   3 1841.10 75.8577  17
  -5   3   3 1818.48 75.1524   8
   5  -3  -3 1666.26 69.9802  27
  -4   3   3 5538.97 264.303  25
  -4  -3   3 5470.95 208.056  23
  -3   3   3 207.886 53.2950  25
  -3  -3   3 96.7245 26.5933  23
   2  -3  -3 56869.8 830.848  24
  -2   3   3 59667.0 856.358  25
  -1   3   3 668.018 88.4174  25
   1  -3  -3 709.279 94.2208  24
   1   3  -3 633.965 79.1883  28
   0   3   3 2043.78 154.106  25
   0  -3  -3 1734.21 147.295  24
   0   3  -3 1546.08 111.989  22
   0   3  -3 1869.82 134.330  28
  -1  -3  -3 2000.76 163.611  24
  -1   3  -3 2037.28 137.582  22
  -1   3  -3 2114.89 144.490  28
   2   3   3 18.4230 15.9314  26
  -2   3  -3 32.3058 21.6714  22
  -2   3  -3 27.3609 20.9133  28
  -3  -3  -3 8828.86 366.626  24
  -3   3  -3 8432.99 313.591  22
   3   3   3 8956.75 321.909  26
  -3   3  -3 8677.56 300.596  28
   4   3   3 254.491 54.9539  26
  -4  -3  -3 301.963 73.1705  24
  -4   3  -3 311.119 64.4731  22
  -4  -3  -3 286.277 34.2883  21
  -4   3  -3 362.073 65.7430  28
   5   3   3 5161.89 243.382  26
  -5  -3  -3 5004.81 299.395  24
   5  -3   3 4876.22 124.485  27
  -5   3  -3 4997.52 247.783  28
   6  -3   3 42.5403 19.8152  27
  -6  -3  -3 87.3102 48.1387  24
  -6   3  -3 89.6157 34.4996  28
   7  -3   3 220.411 32.4626  27
  -7   3  -3 159.190 48.8065  28
  -7   3  -3 167.201 24.1237  11
  -7  -3  -3 175.425 67.2909  24
  -8   3  -3 5646.48 166.800  15
  -8   3  -3 5585.83 143.180  11
  -8   3  -3 5114.80 148.189  18
   8  -3   3 5385.59 139.139  27
  -9   3  -3 5005.61 138.656  11
  -9   3  -3 5072.84 136.334  15
  -9   3  -3 4672.34 139.136  18
   9  -3   3 4923.74 133.507  27
 -10   3  -3 5472.94 142.478  11
  10  -3   3 5388.21 136.377  27
 -10   3  -3 5182.20 140.041  18
  11  -3   3 133.941 22.2172  27
 -11   3  -3 119.312 105.242   9
 -11   3  -3 161.988 27.3383  18
  12  -3   3 4163.59 102.222  27
 -12   3  -3 4108.23 113.678  18
 -13  -3  -3 9892.00 154.246  21
 -13   3  -3 10214.7 149.440   9
 -14  -3  -3 170.694 16.2413  21
 -12   4   3 1644.06 51.6860  11
 -12  -4   3 1678.98 50.8928   3
 -11  -4   3 959.987 43.7335   3
 -11   4   3 1014.98 51.7937   5
 -11   4   3 1007.35 53.3011  15
 -11   4   3 956.026 48.5543  11
 -11   4   3 1034.81 52.1312  10
 -10  -4   3 4600.58 105.242   3
 -10   4   3 4442.39 117.372   5
 -10   4   3 4558.70 117.408  10
 -10   4   3 4313.17 161.697  15
  -9   4   3 1726.74 159.460  15
   9  -4  -3 1997.41 78.3665   1
  -9  -4   3 1918.68 72.9533   3
  -9   4   3 1952.10 83.2815   5
  -9   4   3 2004.46 82.9451  10
  -9   4   3 2054.07 85.8029  16
  -9   4   3 1911.20 71.3942   8
  -8  -4   3 2720.95 89.7867   3
   8  -4  -3 2929.23 97.6662   1
  -8   4   3 2804.79 97.9079  12
  -8   4   3 2731.45 101.054  10
  -8   4   3 2636.05 87.3091   8
  -8   4   3 2892.56 108.453  16
   8  -4  -3 2719.60 86.5070  27
  -7   4   3 747.259 51.9616  12
   7  -4  -3 808.964 51.6663   1
  -7   4   3 723.778 47.2394   8
  -7   4   3 760.497 55.9063  16
   7  -4  -3 742.495 48.1065  27
  -6   4   3 4013.93 108.698  17
  -6   4   3 3798.20 119.949  12
  -6  -4   3 4148.47 108.947  20
   6  -4  -3 4177.54 115.728   1
  -6   4   3 4005.51 112.457   8
   6  -4  -3 3861.00 111.908  27
  -5   4   3 521.737 95.1198  25
  -5   4   3 513.670 40.3539  17
  -5  -4   3 578.723 40.6309  20
   5  -4  -3 580.473 42.4702   1
  -5   4   3 543.179 41.8057   8
   5  -4  -3 515.640 42.4767  27
  -4   4   3 304.795 72.9099  25
  -4   4   3 277.372 29.5701   4
  -4  -4   3 287.011 28.3354  20
   4  -4  -3 243.130 29.6358  27
  -4   4   3 265.069 29.9722  17
  -4   4   3 217.067 27.3282   8
   3  -4  -3 723.160 50.5376  27
  -3   4   3 858.973 120.152  25
  -3   4   3 750.702 48.4596  13
  -3  -4   3 854.367 47.7490  20
  -3   4   3 763.457 48.7450   4
   2  -4  -3 21994.6 280.033  27
  -2   4   3 24097.9 619.228  25
  -2   4   3 22561.6 264.435  13
  -2  -4   3 24148.1 248.725  20
  -2   4   3 22890.2 265.625   4
  -1   4   3 408.178 78.8640  25
   1  -4  -3 405.254 82.1456  24
   1  -4  -3 399.762 39.8639  21
  -1   4   3 403.887 36.0889   4
   0   4   3 17952.4 515.488  25
   0  -4  -3 17511.3 541.708  24
   0  -4  -3 17870.0 264.856  21
  -1  -4  -3 23538.4 631.793  24
  -1  -4  -3 23849.9 308.739  21
  -1   4  -3 24556.7 525.129  28
  -2   4  -3 81.8733 35.1098  28
  -2   4  -3 15.8419 15.9712  22
  -2  -4  -3 75.0238 18.7870  21
  -2  -4  -3 65.4109 39.5546  24
   2   4   3 44.3891 26.5695  26
   3   4   3 79111.1 1051.01  26
  -3  -4  -3 82621.7 1228.06  24
  -3  -4  -3 81372.3 598.217  21
  -3   4  -3 81972.5 1015.09  28
   3  -4   3 80426.7 495.029  27
  -4  -4  -3 19054.7 610.441  24
  -4   4  -3 17949.9 483.780  28
  -4  -4  -3 18358.8 289.831  21
   4  -4   3 17997.8 243.209  27
  -5  -4  -3 19153.2 299.545  21
  -5   4  -3 19264.1 507.391  28
   5  -4   3 19154.6 256.780  27
   6  -4   3 109.411 28.8804  27
  -6  -4  -3 114.472 24.0070  21
   7  -4   3 4615.36 130.016  27
  -7  -4  -3 4353.99 139.103  21
  -8  -4  -3 4266.59 131.613  21
  -8   4  -3 4206.07 127.478  18
   8  -4   3 4412.36 124.675  27
  -9   4  -3 2655.09 86.7997  11
  -9  -4  -3 2540.42 95.6788  21
  -9   4  -3 2570.19 94.5733  18
   9  -4   3 2766.96 95.2908  27
 -10  -4  -3 3527.70 103.804  21
  10  -4   3 3822.02 103.284  27
 -10   4  -3 3748.35 103.569  18
  11  -4   3 12615.4 164.740  27
 -11  -4  -3 12351.5 173.909  21
 -11   4  -3 12717.1 224.139   9
 -11   4  -3 12672.0 174.288  18
 -12  -4  -3 1767.71 55.1561  21
 -12   4  -3 1828.41 59.6704   9
 -10   5   3 2479.95 66.2962   5
 -10   5   3 2437.25 64.2508  11
 -10   5   3 2490.71 63.0981  10
  -9   5   3 1804.12 63.5545   5
  -9   5   3 1561.82 96.0331  15
  -9   5   3 1897.18 62.3391  10
   9  -5  -3 1479.53 43.4923  27
  -8   5   3 302.327 96.5391  15
  -8   5   3 383.553 33.9994   5
  -8   5   3 365.258 30.7298  10
  -8   5   3 392.912 34.2024  16
   8  -5  -3 361.557 27.1476  27
  -7   5   3 5524.48 116.639  12
  -7   5   3 5746.79 125.335  10
  -7   5   3 5461.65 99.3483   8
   7  -5  -3 5830.86 117.862  27
  -6   5   3 307.483 34.2944  16
  -6   5   3 265.153 29.1679  12
  -6   5   3 193.014 19.9904   8
   6  -5  -3 280.730 28.4882  27
  -5   5   3 2699.27 91.8506  12
  -5   5   3 2683.68 80.1598   8
   5  -5  -3 2772.31 91.8383  27
  -4   5   3 5311.02 134.997  12
  -4   5   3 5261.63 115.869   8
  -4   5   3 5512.36 121.879  17
   4  -5  -3 5468.89 134.376  27
   3  -5  -3 160.822 25.9424  27
  -3   5   3 135.462 21.0596  17
   2  -5  -3 106.613 21.2164  27
  -2   5   3 147.505 21.7319   8
   1  -5  -3 205.364 29.3825  27
   0  -5  -3 5308.06 140.234  27
  -1  -5  -3 2403.37 96.3971  27
  -1  -5  -3 2462.69 96.3747  21
  -2  -5  -3 224.623 31.0975  21
  -3  -5  -3 439.125 41.4773  21
   3  -5   3 518.148 40.9152  27
   4  -5   3 69.9986 22.4148  27
  -4  -5  -3 68.0442 19.8972  21
  -5  -5  -3 1607.59 76.5779  21
   5  -5   3 1526.46 68.6208  27
  -6  -5  -3 1308.27 66.9239  21
  -6   5  -3 1247.65 59.6481  18
   6  -5   3 1338.69 62.9667  27
   7  -5   3 127.460 26.1102  27
  -7  -5  -3 142.801 22.1794  21
  -7   5  -3 111.309 18.0985  18
  -8  -5  -3 251.006 25.0473  21
  -8   5  -3 225.733 23.0287  18
   8  -5   3 277.516 28.1789  27
  -9  -5  -3 2076.65 60.9796  21
  -9   5  -3 1970.99 58.6849  18
  10  -5   3 7217.01 98.9072  27
 -10   5  -3 7123.77 130.847   9
  -7   6   3 2710.04 58.9359   5
  -7   6   3 2560.72 52.2765  16
  -6   6   3 98.4874 13.4429  16
  -6   6   3 95.3184 13.5061   5
  -6   6   3 90.4871 10.9269  10
   6  -6  -3 98.8814 12.6561  27
  -5   6   3 28.4904 10.3758  16
   5  -6  -3 30.6202 9.18397  27
  -5   6   3 22.8377 6.07523  12
  -5   6   3 23.6694 7.09121  10
  -4   6   3 557.790 35.1625  16
  -4   6   3 475.476 28.8228  10
  -4   6   3 503.112 27.9288  12
   4  -6  -3 522.398 32.5002  27
  -3   6   3 684.599 35.0297  12
   3  -6  -3 737.726 40.8031  27
  -2   6   3 9773.85 141.147  12
   2  -6  -3 10362.1 155.995  27
   1  -6  -3 5505.80 117.736  27
  -1   6   3 3566.72 80.5814  17
   0   6   3 14701.4 173.841  17
   0  -6  -3 16196.9 205.422  27
  -1  -6  -3 4248.69 105.711  27
  -2  -6  -3 855.105 46.6939  27
  -3  -6  -3 5044.96 106.876  27
  -4  -6  -3 156.561 17.8986  27
   5  -6   3 0.03001 1.31696  27
  -5  -6  -3-1.45240 2.07605  27
   6  -6   3-1.08095 1.62398  27
 -14   0   4 4231.62 104.912   6
 -13   0   4 776.880 51.7938   6
 -13   0   4 759.213 46.2521  19
 -12   0   4 12254.8 216.957   6
 -12   0   4 12682.9 203.616  19
  11   0  -4 17.6369 8.70354   1
 -11   0   4 16.1777 12.7919   6
 -11   0   4 30.3289 15.3929  19
 -10   0   4 18145.7 273.830   6
 -10   0   4 19520.2 266.311  19
  -9   0   4 14312.3 426.361  23
  -9   0   4 15601.3 229.864  19
  -8   0   4 11174.4 183.359  19
  -8   0   4 11679.2 190.822   8
  -8   0   4 10982.8 360.404  23
  -7   0   4 11030.8 346.302  23
  -7   0   4 11256.6 180.427  19
  -6   0   4 1566.45 127.014  23
  -5   0   4 86513.5 907.855  23
  -4   0   4 2162.46 114.343  26
  -4   0   4 2524.86 150.314  23
  -3   0   4 15154.6 311.339  26
  -3   0   4 14605.5 358.335  23
  -2   0   4 33788.2 485.262  26
  -2   0   4 35019.5 553.304  23
  -1   0   4 261.896 44.2355  26
  -1   0   4 598.488 77.0670  23
   0   0   4 15134.5 338.255  26
  -1   0  -4 18852.6 320.497  24
  -2   0  -4 17731.4 349.765  24
  -3   0  -4 28091.2 487.090  24
  -3   0  -4 29243.3 467.660  28
  -4   0  -4 16654.7 403.929  24
  -4   0  -4 17146.8 354.809  28
  -5   0  -4 62464.2 823.614  24
  -5   0  -4 66074.3 710.504  28
  -6   0  -4 3025.20 193.537  24
  -6   0  -4 3646.61 170.154  28
  -7   0  -4 4126.60 240.308  24
  -7   0  -4 4065.08 113.849   9
  -8   0  -4 12851.7 459.235  24
  -8   0  -4 13088.0 215.149   9
   8   0   4 12963.1 231.260   2
  -9   0  -4 767.636 116.522  24
  -9   0  -4 771.454 55.4000   9
   9   0   4 775.612 58.4046   2
  10   0   4 49081.1 473.332   2
  11   0   4 4081.96 137.564   2
  12   0   4 37223.7 391.540   2
  13   0   4 30355.6 322.493   2
  14   0   4 963.714 49.4271   2
  15   0   4 382.704 24.2389   2
 -15   1   4 62.1824 10.6396   6
 -14   1   4 739.677 43.6500   6
 -14  -1   4 729.142 32.0279   3
 -13   1   4 735.027 49.8019   6
  13  -1  -4 723.956 39.7687   1
 -13   1   4 854.830 49.9033  19
 -13  -1   4 708.404 38.8214   3
 -12  -1   4 21.8294 12.0293   6
 -12   1   4 31.0457 14.6801   6
 -12  -1   4 41.6936 12.5821   3
  12  -1  -4 22.1556 10.4212   1
 -12  -1   4 24.5446 9.97518  19
 -12   1   4 21.1315 12.7315  19
 -11  -1   4 2894.28 95.0097   3
 -11  -1   4 2873.16 106.283   6
 -11   1   4 2976.24 99.3271  10
  11  -1  -4 2853.12 92.1803   1
 -11  -1   4 2963.11 92.9960  19
 -11   1   4 2925.04 104.359  19
 -10  -1   4 74.9522 20.4410   6
 -10  -1   4 99.2998 18.7081   3
 -10   1   4 115.398 20.3892  10
 -10   1   4 90.8165 20.3716  19
 -10  -1   4 90.9519 17.7972  19
  -9  -1   4 9868.97 190.195   6
  -9  -1   4 9925.18 359.380  23
  -9   1   4 9113.73 322.018  23
  -9   1   4 10094.0 177.755  10
  -9   1   4 10032.1 187.700  19
  -9  -1   4 10011.3 174.818  19
  -9   1   4 9654.51 183.183   8
  -8  -1   4 52933.7 422.335   6
  -8  -1   4 52639.3 806.889  23
  -8   1   4 51137.4 757.333  23
  -8  -1   4 53265.4 385.981  20
  -8   1   4 54959.5 398.416  10
  -8   1   4 53587.6 417.334  19
  -8  -1   4 53813.4 387.058  19
  -8   1   4 53031.1 409.221   8
  -7  -1   4 13358.1 388.236  23
  -7   1   4 13457.7 379.959  23
  -7   1   4 14283.1 208.434  12
  -7  -1   4 14244.4 193.789  20
  -7   1   4 13830.1 199.734  19
  -7  -1   4 13947.0 197.926  19
  -7   1   4 14118.3 202.802   8
  -7   1   4 14091.0 210.441  16
  -6  -1   4 10120.8 324.843  23
  -6   1   4 10200.2 320.342  23
  -5  -1   4 33008.1 565.291  23
  -5   1   4 33173.3 563.424  23
  -4   1   4 3116.98 166.267  26
  -4  -1   4 2770.92 158.370  23
  -4   1   4 2737.68 156.763  23
  -3  -1   4 1990.97 131.578  23
  -3   1   4 1809.11 131.859  23
  -2   1   4 8929.17 283.065  26
   2  -1  -4 8425.65 223.844  24
  -2  -1   4 8382.91 265.113  23
  -2   1   4 8352.61 281.673  23
  -1   1   4 12075.2 328.546  26
   1  -1  -4 11091.0 268.398  24
  -1  -1   4 11672.2 312.173  23
  -1   1   4 11751.6 339.561  23
   0   1   4 163247. 1216.82  26
   0  -1   4 165020. 1178.21  23
   1   1   4 87358.6 894.436  26
   1  -1   4 87173.5 868.899  23
  -2  -1  -4 292922. 1700.97  24
   2   1   4 294576. 1691.61  26
  -2  -1  -4 299569. 1294.43  28
  -2   1  -4 301092. 1659.93  28
   3   1   4 9226.26 300.275  26
  -3  -1  -4 8751.18 305.574  24
  -3   1  -4 9578.09 261.106  24
  -3   1  -4 10041.2 304.883  28
  -4  -1  -4 590.882 84.0178  24
  -4   1  -4 511.871 66.0018  24
  -4   1  -4 602.665 75.3948  28
  -5  -1  -4 16969.3 463.071  24
  -5   1  -4 18024.4 427.698  24
  -6  -1  -4 4289.51 242.063  24
  -6   1  -4 4311.03 229.022  24
  -6   1  -4 4878.50 226.065  28
   7  -1   4 4293.91 117.547  27
  -7  -1  -4 4152.33 251.262  24
  -7   1  -4 4338.74 249.381  24
  -7   1  -4 4826.77 156.750   9
  -7   1  -4 4566.10 128.284  18
  -7   1  -4 4879.54 233.579  28
   7  -1   4 4253.92 128.514   2
   7   1   4 4216.44 129.476   2
   8   1   4 3506.55 122.538   2
   8  -1   4 3403.66 119.047   2
  -8  -1  -4 3368.07 236.803  24
  -8   1  -4 3600.83 239.803  24
   8  -1   4 3739.66 114.173  27
  -8   1  -4 4240.60 146.641   9
  -8   1  -4 3813.99 123.435  18
  -8   1  -4 4086.71 220.661  28
   9  -1   4 3098.55 116.239   2
  -9  -1  -4 3187.25 237.872  24
  -9   1  -4 3299.39 237.804  24
  -9   1  -4 3557.25 126.576   9
  -9   1  -4 3472.39 209.698  28
   9   1   4 3083.10 118.107   2
 -10   1  -4 1074.43 67.5214   9
  10   1   4 955.320 66.7911   2
  10  -1   4 952.451 65.7050   2
 -11   1  -4 3988.91 125.835   9
  11   1   4 3731.04 127.392   2
  11  -1   4 3885.49 128.415   2
  12  -1   4 155.142 27.5762   2
  12   1   4 223.240 31.9979   2
  13   1   4 2278.71 82.4282   2
  13  -1   4 2288.99 83.5513   2
  14   1   4 261.967 24.1276   2
  14  -1   4 231.332 23.2215   2
  15  -1   4 53.7755 8.21611   2
 -14   2   4 43.9700 11.3851   6
 -14  -2   4 43.7226 8.84794   3
  13  -2  -4 833.616 43.3367   1
 -13   2   4 917.339 50.9685   6
 -13  -2   4 935.321 44.2418   3
 -12  -2   4 2052.05 73.3558   3
 -12   2   4 1984.98 77.5860  19
  12  -2  -4 1910.38 71.6575   1
  11  -2  -4 427.158 37.6849   1
 -11  -2   4 449.302 38.4408   3
 -11   2   4 501.123 38.9316   5
 -11   2   4 452.209 39.1502  10
 -11   2   4 497.428 42.1361  19
 -10  -2   4 18553.1 242.497   3
 -10   2   4 18829.2 251.859   5
 -10   2   4 18254.0 252.541  10
  10  -2  -4 18063.5 241.561   1
 -10   2   4 18550.9 256.971  19
   9  -2  -4 11102.2 190.065   1
  -9   2   4 11191.9 193.697   5
  -9   2   4 10275.6 202.394  16
  -9   2   4 10611.4 193.522  10
  -9   2   4 10790.1 196.545  19
  -9   2   4 11340.1 204.687   8
  -8  -2   4 72265.9 970.272  23
  -8   2   4 71348.3 515.706  12
  -8  -2   4 72695.5 481.895  20
  -8   2   4 71670.5 495.068  10
  -8   2   4 71710.1 497.041  19
  -8   2   4 71464.0 508.047   8
  -8   2   4 72333.7 525.537  16
  -7  -2   4 7338.35 303.367  23
  -7   2   4 7489.77 162.451  12
  -7  -2   4 7444.86 150.442  20
  -7   2   4 7334.55 150.875  19
  -7   2   4 7614.02 162.729   8
  -7   2   4 7345.91 164.080  16
  -6  -2   4 334.484 62.5146  23
  -6   2   4 279.594 30.8632  12
  -6   2   4 352.942 34.2722   4
  -6  -2   4 383.538 33.0651  20
  -6   2   4 330.539 30.2291  19
  -6   2   4 315.235 32.4607   8
  -6   2   4 308.134 31.1454  17
  -6   2   4 315.428 33.7452  16
  -5   2   4 6075.08 137.864   8
  -5   2   4 6298.42 138.924  13
  -5  -2   4 6153.91 254.442  23
  -5   2   4 6302.62 237.296  23
  -5   2   4 6332.12 141.829  12
  -5   2   4 6246.48 138.028  17
  -5  -2   4 5958.74 128.302  20
  -5   2   4 5653.31 136.345   4
  -4  -2   4 13406.3 364.219  23
  -4   2   4 12701.4 338.736  23
  -3  -2   4 44.6770 23.1989  23
  -3   2   4 50.1196 23.6602  23
  -2   2   4 34178.2 619.281  26
   2  -2  -4 33621.1 567.534  24
  -2  -2   4 35160.9 545.016  23
  -1   2   4 51.9094 25.8291  26
   1  -2  -4 46.1694 23.2961  24
  -1  -2   4 42.6165 21.0941  23
   0   2   4 12449.7 374.264  26
   0  -2  -4 11800.4 360.749  24
   0  -2   4 12408.6 306.205  23
   1   2   4 35884.3 636.769  26
  -1  -2  -4 35718.5 658.218  24
   1  -2   4 37201.8 523.083  23
  -1   2  -4 34585.8 610.754  28
  -2  -2  -4 152668. 1403.12  24
  -2   2  -4 152763. 1278.60  28
   3   2   4 40657.9 665.972  26
  -3  -2  -4 41487.0 767.547  24
  -3   2  -4 41395.0 669.797  28
   4   2   4 4055.92 215.734  26
  -4  -2  -4 3873.75 239.934  24
  -4   2  -4 4015.92 212.348  28
   5   2   4 2889.22 185.152  26
  -5  -2  -4 3094.29 223.298  24
  -5   2  -4 3129.45 192.671  28
   5  -2   4 3136.34 98.2500  27
  -6  -2  -4 1783.78 173.929  24
   6  -2   4 1678.72 78.6186   2
   6   2   4 1643.70 77.6672   2
  -6   2  -4 1936.17 155.755  28
  -6   2  -4 1792.91 76.3415  18
   6  -2   4 1929.47 80.7308  27
  -7  -2  -4 5974.02 326.180  24
   7   2   4 5770.80 149.264   2
   7  -2   4 5987.78 154.004   2
  -7   2  -4 6281.19 149.877  18
   7  -2   4 6461.81 149.061  27
  -8  -2  -4 7765.20 374.369  24
  -8   2  -4 8032.45 175.884  18
   8   2   4 7727.00 174.200   2
   8  -2   4 7866.34 177.937   2
   8  -2   4 8219.44 168.749  27
  -9   2  -4 463.291 94.0083   9
  -9   2  -4 346.978 38.0227  18
   9   2   4 277.861 33.8279   2
   9  -2   4 318.096 36.3511   2
   9  -2   4 435.102 39.1182  27
 -10   2  -4 8908.48 206.813   9
  10  -2   4 8699.25 170.585  27
 -10   2  -4 8390.13 183.291  18
  10  -2   4 8111.43 177.548   2
 -11   2  -4 670.710 56.6153   9
  11  -2   4 567.686 45.0937   2
 -12   2  -4 263.041 30.6985   9
  12   2   4 261.553 27.1983   2
  12  -2   4 284.572 29.0923   2
  13   2   4 338.655 25.7548   2
  13  -2   4 92.3030 13.4134   2
 -14  -2  -4 623.508 32.9926  21
 -13   3   4 2200.55 64.0187   6
 -13  -3   4 2002.26 55.1977   3
 -12  -3   4 647.547 36.7459   3
 -12   3   4 637.852 39.6213  10
 -11  -3   4 104.697 18.5901   3
 -11   3   4 93.9869 16.7104   5
 -11   3   4 133.882 22.4966  10
  11  -3  -4 104.007 20.0651   1
 -10  -3   4 14176.9 200.765   3
 -10   3   4 13874.2 208.553   5
 -10   3   4 13631.8 214.851  10
 -10   3   4 13179.6 196.408  19
 -10   3   4 14624.7 218.204   8
  10  -3  -4 13386.5 204.315   1
  -9   3   4 166.307 29.5559  16
  -9   3   4 156.074 24.2217   5
   9  -3  -4 129.680 22.5494   1
  -9   3   4 157.361 26.3284  10
  -9   3   4 139.845 21.6408  19
  -8   3   4 3409.10 116.440  12
   8  -3  -4 3285.45 102.883   1
  -8  -3   4 3366.08 101.292  20
  -8   3   4 3463.88 113.024  10
  -8   3   4 3321.47 101.335  19
  -8   3   4 3318.38 109.374   8
  -8   3   4 3275.07 116.552  16
  -7   3   4 832.673 61.5280  16
  -7   3   4 794.889 57.5184  12
  -7  -3   4 742.033 49.7929  20
  -7   3   4 800.438 49.4235  19
  -7   3   4 789.521 54.7377   8
   7  -3  -4 723.762 49.0939   1
  -6   3   4 911.935 60.6753  16
  -6  -3   4 1263.54 122.849  23
  -6   3   4 1138.33 67.0327  12
  -6  -3   4 1208.62 62.6030  20
   6  -3  -4 1088.18 58.0752   1
  -6   3   4 1081.74 56.3932  19
  -6   3   4 972.226 61.1899   8
  -6   3   4 1067.36 60.7140  17
  -5   3   4 8874.63 359.919  25
  -5   3   4 9036.80 173.568  13
  -5  -3   4 8943.33 313.032  23
  -5   3   4 9587.50 191.459  12
  -5  -3   4 8768.64 161.843  20
  -5   3   4 9185.81 180.795   4
  -5   3   4 9342.41 182.618   8
  -5   3   4 9188.99 178.560  17
  -4   3   4 157.907 23.4056  13
  -4  -3   4 166.119 23.4347  20
  -4   3   4 167.888 24.4882   4
  -4   3   4 169.426 24.5317  17
   4  -3  -4 162.715 22.3745  27
  -3   3   4 479.176 39.8398  13
  -3  -3   4 499.190 38.3952  20
  -3   3   4 509.981 41.8051   4
  -3   3   4 504.467 41.0345  17
  -3   3   4 482.557 38.9490   7
  -2   3   4 2305.38 85.5286  14
   2  -3  -4 2130.51 171.751  24
  -2   3   4 2253.68 85.4260  13
   2  -3  -4 2526.19 95.2102  21
  -2  -3   4 2518.98 88.3788  20
  -2   3   4 2285.05 85.5838   7
  -1   3   4 77.2983 34.6550  26
  -1   3   4 83.7258 17.5823  14
   1   3  -4 85.8383 35.9337  28
   1  -3  -4 92.6544 19.2757  21
   0   3   4 5376.37 274.717  26
   0  -3  -4 5067.90 268.985  24
   0   3   4 4956.84 127.818  14
   0  -3  -4 5055.36 137.787  21
   0   3  -4 4863.07 241.576  28
   1   3   4 6022.32 287.782  26
  -1  -3  -4 5434.17 286.660  24
   1   3   4 5473.10 136.790  14
  -1  -3  -4 5782.07 150.945  21
  -1   3  -4 6116.67 273.536  28
   2   3   4 481.665 82.4499  26
   2   3   4 370.070 37.3236  14
  -2  -3  -4 318.220 74.2007  24
  -2  -3  -4 378.454 40.4682  21
  -2   3  -4 472.633 76.9961  28
   3   3   4 20471.3 524.966  26
  -3  -3  -4 21868.9 631.429  24
  -3  -3  -4 21315.7 305.404  21
  -3   3  -4 20435.0 503.865  28
   4   3   4 2980.61 204.343  26
   4  -3   4 3112.61 97.5430  27
  -4  -3  -4 3079.14 240.354  24
  -4  -3  -4 3140.25 118.947  21
  -4   3  -4 3458.32 213.735  28
   5   3   4 14021.5 438.335  26
  -5  -3  -4 13676.8 521.043  24
  -5  -3  -4 13660.7 248.534  21
  -5   3  -4 14962.0 455.208  28
   5  -3   4 14107.5 213.712  27
  -6  -3  -4 2171.92 207.155  24
  -6  -3  -4 2121.93 98.2176  21
   6  -3   4 2373.61 90.6538  27
  -6   3  -4 2413.20 184.013  28
  -6   3  -4 2245.69 88.2624  18
  -7   3  -4 639.544 47.3251  18
   7  -3   4 599.837 48.4253  27
  -8  -3  -4 7544.47 179.317  21
  -8   3  -4 7746.96 165.607  18
   8  -3   4 8134.91 168.314  27
  -9  -3  -4 1488.01 77.6698  21
  -9   3  -4 1449.01 71.7909  18
   9  -3   4 1540.08 72.0353  27
 -10  -3  -4 948.415 60.6211  21
 -10   3  -4 1043.47 99.9389   9
  10  -3   4 1076.13 57.3768  27
 -10   3  -4 1026.25 59.4815  18
  11  -3   4 163.763 22.4317  27
 -11  -3  -4 108.535 20.9553  21
 -11   3  -4 176.101 36.9090   9
 -12  -3  -4 1073.58 51.9608  21
 -12   3  -4 1108.87 51.4308   9
 -13  -3  -4 904.489 39.7810  21
 -12  -4   4 2474.38 50.7784   3
 -11  -4   4 16.6992 6.79861   3
 -11   4   4 0.90196 2.28084  11
 -11   4   4 25.8814 8.49209   5
 -11   4   4 24.1626 8.97562  10
 -10  -4   4 180.801 20.7765   3
 -10   4   4 150.968 20.7460   5
 -10   4   4 162.353 21.8004  10
  -9  -4   4 453.407 33.8153   3
   9  -4  -4 431.423 34.3385   1
  -9   4   4 426.663 36.1401   5
  -9   4   4 450.058 37.4085  10
  -9   4   4 495.563 35.4857   8
  -9   4   4 473.390 39.5384  16
  -8  -4   4 1912.88 71.5617   3
  -8   4   4 1962.02 79.7012  12
   8  -4  -4 2036.79 74.9574   1
  -8   4   4 1971.70 80.8025  10
  -8   4   4 1954.65 74.1321   8
  -8   4   4 2104.73 86.7732  16
  -7   4   4 3565.46 112.411  12
   7  -4  -4 3560.75 102.621   1
  -7   4   4 3634.56 120.168  16
  -7   4   4 3433.32 103.773   8
   6  -4  -4 82.2074 16.5144  27
  -6   4   4 72.4860 20.8753  16
   6  -4  -4 92.9079 18.1266   1
  -6   4   4 76.2106 19.7418  12
  -6  -4   4 128.888 21.4096  20
  -6   4   4 84.8569 19.2165   8
  -6   4   4 94.5640 18.4708  17
  -5   4   4 4752.69 137.166  12
  -5  -4   4 4818.19 120.532  20
  -5   4   4 4634.59 127.221   8
   5  -4  -4 5054.02 121.993   1
  -5   4   4 4572.70 124.492  17
   5  -4  -4 4552.63 120.757  27
  -4   4   4 2280.46 85.1597  13
  -4   4   4 2306.38 89.1458   4
  -4  -4   4 2469.22 86.4285  20
  -4   4   4 2341.43 91.6741   8
  -4   4   4 2352.30 92.5860  17
   4  -4  -4 2342.07 89.2811  27
   3  -4  -4 17115.2 243.940  27
  -3   4   4 17191.0 240.654  13
  -3  -4   4 17751.0 227.965  20
  -3   4   4 16882.7 244.173   4
  -3   4   4 17574.9 257.622  17
  -2   4   4 10131.7 190.778  13
  -2  -4   4 10485.2 175.114  20
  -2   4   4 9981.26 190.011   4
  -2   4   4 10327.7 177.722   7
  -1   4   4 430.198 37.7301   7
  -1   4   4 420.736 86.5818  26
   1  -4  -4 385.808 82.1039  24
   1  -4  -4 403.115 42.9640  21
  -1  -4   4 481.514 38.6153  20
  -1   4   4 390.126 38.2843   4
   0   4   4 928.588 126.753  26
   0   4   4 1002.48 59.9496   7
   0  -4  -4 921.695 128.704  24
   0  -4  -4 969.983 66.5226  21
   0  -4   4 1136.38 58.3551  20
   1   4   4 3964.51 254.826  26
   1   4   4 4291.28 127.239   7
  -1  -4  -4 4090.20 136.820  21
  -1  -4  -4 4102.12 274.306  24
  -1   4  -4 3932.60 224.258  28
   2   4   4 1388.38 66.9297  14
  -2  -4  -4 1370.54 79.4781  21
   2   4   4 1324.71 145.647  26
  -2   4  -4 1374.63 135.798  28
   3   4   4 2427.88 90.6257  14
  -3  -4  -4 2407.99 105.907  21
   4   4   4 815.873 52.7535  14
  -4  -4  -4 781.728 60.1642  21
   4  -4   4 937.524 54.4969  27
   5  -4   4 109.560 24.0093  27
   5   4   4 101.329 19.4660  14
  -5  -4  -4 119.533 25.8215  21
   6   4   4 294.386 31.6824  14
  -6  -4  -4 296.316 38.0742  21
   6  -4   4 326.405 36.4642  27
   7   4   4 901.782 52.4417  14
  -7  -4  -4 949.325 62.1903  21
  -7   4  -4 985.264 52.7416  18
   7  -4   4 1067.73 59.7683  27
  -8  -4  -4 2103.09 87.4386  21
  -8   4  -4 2077.21 74.6749  18
   8  -4   4 2251.70 81.3963  27
   9   4   4 571.854 36.3028  14
  -9  -4  -4 681.415 46.6274  21
  -9   4  -4 646.970 39.7301  18
   9  -4   4 732.656 44.1663  27
  10   4   4 189.969 18.8119  14
 -10  -4  -4 218.342 24.2812  21
 -10   4  -4 218.326 45.5748   9
  10  -4   4 217.325 22.3444  27
 -11  -4  -4 1166.33 46.3278  21
 -11   4  -4 1206.33 47.9674   9
 -12   4  -4 5897.73 78.9259   9
  -9   5   4 495.997 28.3261   5
  -9   5   4 483.133 28.0611  10
  -8   5   4-8.11940 5.66026  15
  -8  -5   4 1.34945 1.91703   3
  -8   5   4 2349.55 69.4497   5
  -8   5   4 2366.06 69.5656  10
  -8   5   4 2378.70 70.1439  16
  -7   5   4-6.11250 6.29809  15
  -7   5   4 288.346 26.2723  12
  -7  -5   4-1.47947 4.31817   3
  -7   5   4 282.547 27.6602  10
  -7   5   4 268.353 21.7476   8
   7  -5  -4 268.752 21.3540  27
  -7   5   4 318.032 31.3813  16
  -6  -5   4 2080.02 60.5870   3
  -6   5   4 2252.00 77.0837  12
  -6   5   4 2268.80 78.0768  10
  -6   5   4 2176.33 66.1702   8
   6  -5  -4 2210.95 67.6624  27
  -5   5   4 5159.56 129.480  16
  -5  -5   4 4966.79 96.1526   3
  -5   5   4 4883.42 118.137  12
  -5   5   4 4658.49 102.034  17
  -5   5   4 4689.02 104.915   8
   5  -5  -4 4761.83 108.522  27
   4  -5  -4 39.5698 13.4042  27
  -4   5   4 33.8595 15.7002  12
  -4   5   4 26.6741 10.8734   8
  -4   5   4 23.0397 10.5404  17
  -3   5   4 1465.13 63.2927   8
  -3   5   4 1482.84 67.9210  17
   3  -5  -4 1484.26 68.0779  27
  -2   5   4 975.158 50.0034  13
  -2   5   4 1023.78 54.3808   8
  -2   5   4 1070.94 59.0475  17
   2  -5  -4 1059.19 59.2911  27
   1  -5  -4 5883.32 140.763  27
  -1   5   4 5722.49 126.805  13
   0  -5  -4 1992.32 83.3846  27
   0   5   4 2060.62 79.1253  13
  -1  -5  -4 512.533 44.7633  27
   1   5   4 529.013 41.1284  13
  -2  -5  -4 3015.26 105.823  21
   2   5   4 1783.54 68.9506   4
   3   5   4 2110.23 73.5708   7
  -3  -5  -4 3238.87 108.182  21
   4   5   4 82.3367 15.7125   7
  -4  -5  -4 83.4789 20.3366  21
   5   5   4 4070.10 98.4539   7
  -5  -5  -4 4399.75 117.665  21
   5  -5   4 4234.33 95.3999  27
  -6  -5  -4 1381.36 62.5878  21
   6  -5   4 1259.01 51.4930  27
  -7  -5  -4 3047.91 83.8361  21
   7  -5   4 2917.13 72.6286  27
   8   5   4 2799.71 62.6926   7
  -8  -5  -4 3198.56 75.8823  21
  -8   5  -4 2549.95 107.002   9
   8  -5   4 3139.45 69.1818  27
  -9  -5  -4 494.248 25.2297  21
  -9   5  -4 575.883 32.2025   9
  -5   6   4 387.144 23.9784  16
  -5   6   4 376.136 20.7239  10
   5  -6  -4 335.844 18.6468  27
  -4   6   4 121.510 12.8787  12
  -4   6   4 125.169 13.6975  10
   4  -6  -4 107.968 12.8408  27
  -4   6   4 152.648 18.4668  16
   3  -6  -4 32.3463 8.77881  27
  -3   6   4 51.4434 12.3828  16
  -3   6   4 29.5845 8.05958  12
  -2   6   4 644.710 33.8768  12
  -2   6   4 622.066 28.1092  17
   2  -6  -4 702.075 35.6855  27
  -1   6   4 171.965 18.8645  12
  -1   6   4 162.028 16.6365  17
   1  -6  -4 169.006 19.7918  27
   0   6   4 1188.33 45.4137  17
   0  -6  -4 1355.86 53.1077  27
   1   6   4 191.669 19.3395  17
  -1  -6  -4 216.802 22.1393  27
  -2  -6  -4 599.832 35.4796  27
   2   6   4 524.311 30.7442  17
  -3  -6  -4 3794.18 81.7316  27
  -4  -6  -4 1274.31 42.2796  27
 -13   0   5 8.41886 7.07217   6
 -13   0   5 11.3260 8.53551  19
 -12   0   5 12.0858 9.67639   6
  12   0  -5 5.74239 5.52141   1
 -12   0   5 5.04100 7.80067  19
 -11   0   5 52.0620 13.9815   6
  11   0  -5 56.9031 13.2571   1
 -11   0   5 59.7139 16.8478  19
 -10   0   5 16.9651 12.5344   6
 -10   0   5 37.8383 15.7195  19
  -9   0   5 538.628 44.5695   6
  -9   0   5 617.275 47.2791  19
  -8   0   5 323.220 66.6218  23
  -8   0   5 423.716 38.1749  19
  -7   0   5 54.0729 15.5471  19
  -7   0   5 48.7896 13.0677   8
  -6   0   5 385.804 71.1537  23
  -6   0   5 465.306 38.7829  19
  -5   0   5 48.3643 28.5679  23
  -5   0   5 32.0376 10.9676  19
  -4   0   5 252.074 55.2820  23
  -3   0   5 218.140 51.4148  23
  -2   0   5 399.052 70.2068  23
  -1   0   5 137.518 43.8372  23
   0   0   5 4.36668 19.9976  23
   1   0   5 519.430 80.7327  23
  -2   0  -5 90.6630 33.2586  28
  -3   0  -5 1742.97 128.472  28
  -4   0  -5 30.5327 22.2232  24
   4   0   5 32.0900 11.9956   2
  -5   0  -5 441.592 75.5771  24
   5   0   5 397.568 40.2678   2
  -5   0  -5 445.724 64.0441  28
  -6   0  -5 162.740 49.6609  24
   6   0   5 180.882 27.4974   2
  -7   0  -5 2.69828 16.0418  24
   7   0   5 11.1298 12.9974   2
  -8   0  -5 138.212 49.0460  24
   8   0   5 130.655 25.8498   2
   9   0   5 22.2005 16.2685   2
  10   0   5 121.551 25.0333   2
  11   0   5 233.776 33.4802   2
  12   0   5 193.323 28.9587   2
  13   0   5 2.12149 8.38085   2
  14   0   5 10.2676 6.22426   2
 -14   1   5 4859.57 80.2140   6
 -13   1   5 923.281 45.4758   6
  13  -1  -5 915.718 37.9983   1
 -13   1   5 1024.45 47.8117  19
 -12   1   5 1435.62 63.6673   6
 -12  -1   5 1457.33 54.5582  19
 -12   1   5 1513.62 65.1075  19
  12  -1  -5 1379.47 56.1298   1
 -11  -1   5 2241.99 74.4543   3
 -11   1   5 2355.31 88.0595   6
 -11  -1   5 2293.43 77.1730  19
 -11   1   5 2466.02 89.6896  19
  11  -1  -5 2155.11 75.7393   1
 -10  -1   5 1313.73 59.8779   3
 -10   1   5 1443.45 72.5885  19
 -10  -1   5 1401.44 64.5031  19
  -9   1   5 849.911 55.7986  19
  -9  -1   5 843.601 51.0078  19
  -9   1   5 834.154 54.6402   8
  -8  -1   5 41057.3 344.393  20
  -8   1   5 41333.2 381.042  19
  -8  -1   5 42050.2 358.422  19
  -7  -1   5 8274.48 327.034  23
  -7   1   5 7673.62 314.726  23
  -7  -1   5 8230.77 154.673  20
  -7   1   5 8094.72 164.573  19
  -7  -1   5 8386.80 162.097  19
  -7   1   5 8244.52 162.372   8
  -6   1   5 313.505 31.5174  12
  -6  -1   5 164.251 45.4032  23
  -6   1   5 182.020 49.1906  23
  -6  -1   5 205.082 24.9191  20
  -6   1   5 189.411 25.6570  19
  -6  -1   5 200.860 25.3593  19
  -6   1   5 185.528 24.0820   8
  -5  -1   5 3506.40 205.572  23
  -5   1   5 3456.88 206.187  23
  -5   1   5 3559.65 102.239  12
  -5   1   5 3876.76 111.075   4
  -5  -1   5 3622.79 101.916  20
  -5   1   5 3511.94 103.662  19
  -5  -1   5 3678.45 105.837  19
  -5   1   5 3641.01 102.938   8
  -4   1   5 24608.8 517.218  26
  -4   1   5 24082.4 269.667  13
  -4  -1   5 22451.7 510.598  23
  -4   1   5 22676.3 521.003  23
  -4  -1   5 22610.8 257.736  20
  -4   1   5 24073.5 272.911   4
  -4   1   5 23083.3 261.017  19
  -4  -1   5 23040.2 262.104  19
  -4   1   5 23668.7 266.933  17
  -3   1   5 3284.98 192.815  26
  -3  -1   5 3155.65 187.561  23
  -3   1   5 3383.15 209.729  23
  -2   1   5 7835.88 298.904  26
  -2  -1   5 7360.59 284.319  23
  -2   1   5 7456.90 303.918  23
  -1   1   5 22875.9 517.250  26
  -1  -1   5 22365.4 509.008  23
  -1   1   5 21518.8 524.134  23
   0   1   5 3054.63 191.631  26
   0  -1   5 2758.13 176.498  23
   0   1   5 2682.86 187.334  23
   1   1   5 1999.76 156.724  26
   1  -1   5 1958.45 150.670  23
   2   1   5 32335.1 625.366  26
   2  -1   5 32003.0 625.698  23
  -2   1  -5 32521.3 611.452  28
  -3  -1  -5 1632.10 145.649  24
   3  -1   5 2246.71 168.957  23
  -4  -1  -5 1920.99 166.656  24
   4   1   5 2011.67 87.5689   2
   4  -1   5 1892.98 83.2979   2
  -4   1  -5 2310.73 162.808  28
  -5  -1  -5 5942.46 303.062  24
  -5   1  -5 6676.87 150.047   9
   5   1   5 5917.62 154.536   2
   5  -1   5 6136.96 154.488   2
  -5   1  -5 6812.16 281.813  28
  -6  -1  -5 9870.58 403.442  24
   6   1   5 9923.91 205.786   2
   6  -1   5 9720.54 200.893   2
  -7  -1  -5 7920.12 371.449  24
  -7   1  -5 8534.23 180.109   9
   7   1   5 8069.09 186.658   2
   7  -1   5 8087.57 184.168   2
  -8   1  -5 1695.47 82.3775   9
   8   1   5 1546.46 82.5565   2
   8  -1   5 1581.15 82.1974   2
   9   1   5 154.922 27.7137   2
   9  -1   5 174.809 29.1416   2
  -9   1  -5 197.965 29.8211   9
 -10   1  -5 1359.61 70.6693   9
  10   1   5 1322.56 73.2878   2
  10  -1   5 1300.59 72.2153   2
  11   1   5 4860.31 131.985   2
  11  -1   5 4999.54 133.632   2
  12   1   5 9188.91 162.030   2
  12  -1   5 9521.66 165.431   2
 -13  -1  -5 847.989 39.9977  21
  13   1   5 849.215 42.0410   2
  13  -1   5 851.765 42.7425   2
  14   1   5 2608.76 53.5778   2
  14  -1   5 2672.26 55.9146   2
 -13   2   5 276.481 22.2427   6
 -13  -2   5 261.725 18.5013   3
 -12   2   5 79.2041 16.1817   6
 -12  -2   5 96.8235 15.1052   3
 -12   2   5 111.364 17.1454  19
  12  -2  -5 114.439 17.1099   1
 -11  -2   5 1349.88 57.7199   3
  11  -2  -5 1321.85 58.7945   1
 -11   2   5 1348.22 57.7358  10
 -11   2   5 1409.68 63.7997  19
 -10  -2   5 2322.68 81.1077   3
 -10   2   5 2343.80 82.3329  10
 -10   2   5 2414.54 87.7226  19
  10  -2  -5 2275.61 82.7105   1
 -10   2   5 2450.26 90.8768   8
   9  -2  -5 239.833 30.6901   1
  -9   2   5 316.681 32.0372  10
  -9   2   5 278.983 32.1199  19
  -9   2   5 257.390 32.1770   8
  -8  -2   5 16999.6 235.587  20
  -8   2   5 17075.8 232.319  10
  -8   2   5 16945.8 241.776  19
  -8   2   5 17186.3 245.877   8
  -7   2   5 296.948 34.2390  12
  -7  -2   5 269.082 30.5166  20
  -7   2   5 263.520 30.0672  10
  -7   2   5 380.643 35.4588  19
  -7   2   5 284.933 33.8805   8
  -7   2   5 268.800 31.8870  16
  -6  -2   5 24866.5 567.392  23
  -6   2   5 25263.5 298.564  12
  -6   2   5 25989.0 313.918   4
  -6  -2   5 24788.1 282.375  20
  -6   2   5 25378.4 301.152   8
  -6   2   5 25062.8 295.270  16
  -5   2   5 25859.3 583.354  26
  -5  -2   5 24765.6 561.053  23
  -5   2   5 25024.9 533.455  23
  -5   2   5 25884.8 294.856  12
  -5  -2   5 25683.0 286.532  20
  -5   2   5 26680.4 316.551   4
  -5   2   5 24372.2 272.248  19
  -5   2   5 25560.9 298.591   8
  -5   2   5 25599.5 298.647  17
  -5   2   5 26827.3 303.829  16
  -4   2   5 9264.66 167.935  16
  -4   2   5 8768.12 343.837  26
  -4   2   5 9305.08 180.418  13
  -4  -2   5 9014.97 332.019  23
  -4   2   5 8663.51 319.206  23
  -4   2   5 9683.76 179.231  12
  -4  -2   5 9290.87 172.555  20
  -4   2   5 9616.68 185.546   4
  -4   2   5 8829.88 158.764  19
  -4  -2   5 9073.96 157.927  19
  -4   2   5 9549.38 180.500  17
  -4   2   5 9332.78 176.678   8
  -3   2   5 169.078 51.9264  26
  -3   2   5 149.651 23.9512  13
  -3  -2   5 176.105 46.7419  23
  -3   2   5 131.979 42.4573  23
  -3  -2   5 191.968 25.6567  20
  -3   2   5 160.493 24.3851   4
  -3   2   5 127.144 18.7808  19
  -3  -2   5 151.924 21.2554  19
  -3   2   5 146.649 22.9924  17
  -3   2   5 175.425 24.1225   7
  -2   2   5 769.059 101.481  26
  -2   2   5 785.147 51.5508  14
  -2   2   5 778.297 50.3037  13
  -2  -2   5 769.427 90.9574  23
  -2   2   5 712.567 96.5232  23
   2  -2  -5 712.533 48.4962  21
  -2  -2   5 774.860 49.0328  19
  -2   2   5 789.899 51.7796   7
  -2   2   5 825.507 51.6928  17
  -1   2   5 19236.5 509.514  26
  -1   2   5 18503.9 251.286  14
   1  -2  -5 17995.5 443.154  24
  -1   2   5 18711.7 245.604  13
  -1  -2   5 18605.4 441.093  23
  -1   2   5 18452.2 497.951  23
   1  -2  -5 17203.4 239.839  21
   0   2   5 11014.1 382.973  26
   0  -2  -5 10419.8 351.374  24
   0   2   5 10427.0 191.184  14
   0  -2   5 11107.4 333.405  23
   0   2   5 9955.07 376.381  23
   0  -2  -5 9902.88 180.338  21
   1   2   5 1119.60 122.400  26
   1   2   5 1231.59 66.6934  14
   1  -2   5 1447.00 117.228  23
  -1  -2  -5 1384.66 69.0491  21
  -1   2  -5 1550.96 145.241  28
   2   2   5 133738. 1365.73  26
  -2  -2  -5 130968. 1432.14  24
   2   2   5 131309. 716.466  14
  -2  -2  -5 129759. 701.144  21
  -2   2  -5 135506. 1337.06  28
   3   2   5 13061.1 430.831  26
  -3  -2  -5 12575.2 459.055  24
   3   2   5 11455.0 207.791   2
   3  -2   5 12145.8 209.437   2
  -3  -2  -5 12498.2 224.867  21
  -3   2  -5 12699.6 405.185  28
   4   2   5 180.377 48.8936  26
  -4  -2  -5 177.737 58.9017  24
  -4   2  -5 229.411 57.3387  28
  -4  -2  -5 263.590 34.4460  21
   4   2   5 148.596 24.8546   2
   4  -2   5 195.119 27.3452   2
   4  -2   5 159.626 21.8874  27
  -5  -2  -5 168.318 58.5088  24
   5  -2   5 305.634 31.4954  27
  -5  -2  -5 193.882 31.4496  21
   5   2   5 195.713 29.2587   2
   5  -2   5 279.942 33.4420   2
  -5   2  -5 269.463 51.8053   9
  -5   2  -5 366.506 72.2430  28
  -6  -2  -5 156.742 55.9285  24
  -6  -2  -5 190.329 29.6318  21
   6   2   5 160.383 25.4460   2
   6  -2   5 172.141 26.2288   2
  -6   2  -5 209.914 51.1225   9
  -6   2  -5 253.812 61.2161  28
   6  -2   5 229.142 29.0992  27
   7   2   5 975.282 61.2787   2
   7  -2   5 1021.81 63.4197   2
   7  -2   5 1122.02 62.4444  27
   8   2   5 3148.07 108.591   2
   8  -2   5 3357.48 114.529   2
   9   2   5 4112.31 120.561   2
   9  -2   5 4304.56 126.020   2
 -10   2  -5 2261.93 86.5624   9
  10  -2   5 2151.99 84.0004   2
 -11  -2  -5 287.415 31.7170  21
  11   2   5 232.967 25.1160   2
  11  -2   5 369.153 32.1463   2
 -11   2  -5 388.266 34.4382   9
 -12  -2  -5 2791.97 80.9091  21
  12   2   5 2363.13 65.2319   2
 -13  -2  -5 847.559 36.0734  21
 -12  -3   5 734.145 32.9467   3
 -12   3   5 769.896 36.0658   6
 -11  -3   5 239.683 23.4537   3
  11  -3  -5 218.733 22.2698   1
 -11   3   5 211.869 21.5822  10
 -10  -3   5 1732.81 63.9824   3
 -10   3   5 1713.15 65.4772  10
 -10   3   5 1579.62 60.6767  19
 -10   3   5 1824.84 71.2019   8
  10  -3  -5 1707.82 66.6956   1
   9  -3  -5 1289.17 59.4295   1
  -9   3   5 1097.42 51.9245   5
  -9   3   5 1312.87 61.6011  10
  -9   3   5 1203.52 56.1003  19
  -9   3   5 1311.46 63.8425   8
  -8   3   5 20364.2 264.104  12
  -8  -3   5 20424.4 239.942  20
  -8   3   5 19504.1 247.197  10
   8  -3  -5 19542.7 238.498   1
  -8   3   5 19642.6 233.059  19
  -8   3   5 20130.8 256.375   8
  -8   3   5 19512.5 254.796  16
   7  -3  -5 851.254 50.7690   1
  -7   3   5 872.054 56.8299  12
  -7  -3   5 880.402 51.8138  20
  -7   3   5 875.433 50.3086  19
  -7   3   5 886.536 57.1005   8
  -7   3   5 856.989 56.9309  16
  -6   3   5 3157.38 108.577  12
  -6  -3   5 3283.89 101.318  20
  -6   3   5 3171.72 95.1930  19
  -6   3   5 3264.50 108.964   8
  -6   3   5 3255.27 113.092  16
  -5   3   5 1382.10 70.8386  16
  -5   3   5 1303.56 71.5161  12
  -5   3   5 1396.07 75.4118   4
  -5  -3   5 1342.80 66.3331  20
  -5   3   5 1364.85 71.8761   8
  -5   3   5 1337.16 72.3584  17
  -4   3   5 6341.43 313.350  26
  -4   3   5 6456.39 153.491  13
  -4  -3   5 6434.47 146.588  20
  -4   3   5 6597.23 161.367   4
  -4   3   5 6257.93 153.543   8
  -4   3   5 6429.66 157.017  17
  -3   3   5 6338.97 318.215  26
  -3   3   5 6284.17 151.637  13
  -3  -3   5 6130.38 143.961  20
  -3   3   5 6435.99 159.495   4
  -3   3   5 6414.67 156.221  17
  -3   3   5 6276.53 148.676   7
  -2   3   5 1818.94 172.422  26
  -2   3   5 1710.82 79.9243  13
  -2  -3   5 1744.74 78.3551  20
  -2   3   5 1707.18 83.2699   4
   2   3  -5 1631.06 159.332  28
  -2   3   5 1688.65 80.0506  17
  -2   3   5 1682.22 78.4011   7
  -1   3   5 117.603 45.8230  26
  -1   3   5 101.374 21.0707   7
  -1   3   5 125.308 22.5289  14
   1  -3  -5 110.477 42.9535  24
  -1   3   5 227.857 30.2792  13
   1  -3  -5 91.7761 20.9300  21
   1   3  -5 125.495 44.9666  28
   0   3   5 3159.95 226.726  26
   0   3   5 3261.68 115.377   7
   0   3   5 2925.94 105.583  14
   0  -3  -5 3059.66 221.837  24
   0  -3  -5 3047.99 111.330  21
   0   3  -5 2889.37 206.922  28
   1   3   5 18473.9 541.993  26
  -1  -3  -5 17185.0 538.028  24
   1   3   5 17936.6 268.599  14
  -1  -3  -5 17933.9 277.024  21
  -1   3  -5 17950.4 506.170  28
   2   3   5 75392.8 1085.96  26
  -2  -3  -5 72204.5 1142.98  24
   2   3   5 75059.8 561.069  14
  -2  -3  -5 74729.2 578.368  21
  -2   3  -5 74301.5 1025.13  28
   3   3   5 700.254 107.415  26
  -3  -3  -5 571.584 105.005  24
   3   3   5 653.790 53.7459  14
  -3  -3  -5 679.182 57.7937  21
  -3   3  -5 799.383 106.475  28
   4   3   5 28882.0 672.026  26
   4   3   5 29436.7 363.144  14
  -4  -3  -5 30381.9 380.378  21
   5   3   5 10572.8 217.663  14
  -5  -3  -5 11256.3 229.828  21
   5  -3   5 11014.2 181.521  27
  -6  -3  -5 208.915 32.4824  21
   6  -3   5 331.251 32.9826  27
  -7  -3  -5 2004.10 91.7019  21
   7  -3   5 2024.75 78.8313  27
   8  -3   5 176.129 24.2268  27
  -8  -3  -5 144.926 25.7236  21
  -8   3  -5 168.201 47.2243   9
  -9  -3  -5 10142.7 187.811  21
  -9   3  -5 10801.9 187.518   9
 -10  -3  -5 4432.60 114.862  21
 -10   3  -5 4679.47 111.751   9
  11   3   5 1659.02 60.9422  14
 -11  -3  -5 1790.67 64.8743  21
 -11   3  -5 1743.40 59.6270   9
  12   3   5 192.036 16.9285  14
 -12  -3  -5 211.357 18.8417  21
 -11  -4   5 6521.10 78.7789   3
 -10  -4   5 4324.93 80.3061   3
 -10   4   5 4452.85 86.1590  10
   9  -4  -5 5645.01 102.926   1
  -9  -4   5 5878.64 103.221   3
  -9   4   5 5954.70 112.365  10
  -8  -4   5 20001.6 206.370   3
   8  -4  -5 19647.6 204.640   1
  -8   4   5 19787.6 209.970   5
  -8   4   5 20035.0 224.667  10
  -8   4   5 20387.1 220.878   8
  -8   4   5 20075.1 227.255  16
  -7   4   5 710.900 47.4774  12
   7  -4  -5 845.091 45.7398   1
  -7   4   5 723.115 48.1173  10
  -7   4   5 749.168 47.8505   8
  -7   4   5 720.758 48.6559  16
  -6   4   5 2731.76 94.5438  12
  -6  -4   5 2645.60 82.1543  20
   6  -4  -5 2854.76 85.5961   1
  -6   4   5 2769.47 92.8529   8
  -6   4   5 2799.01 97.9599  16
  -5   4   5 3815.22 114.387  16
  -5   4   5 3847.24 114.960  12
  -5  -4   5 3837.42 104.238  20
  -5   4   5 3886.57 112.828   8
  -5   4   5 3878.97 110.511  17
  -4   4   5 278.977 31.5919  13
  -4   4   5 301.391 35.9031  12
  -4   4   5 264.540 31.4960   4
  -4  -4   5 319.603 31.6588  20
  -4   4   5 300.183 33.8030   8
  -4   4   5 293.400 33.1233  17
   4  -4  -5 285.409 29.7133  27
   3  -4  -5 32.6335 13.1186  27
  -3   4   5 27.3617 14.2589  13
  -3  -4   5 22.5987 10.2878  20
  -3   4   5 55.6625 18.8887   4
  -3   4   5 58.5599 17.6142   8
  -3   4   5 31.1649 14.6653  17
   2  -4  -5 1480.26 70.7601  27
  -2   4   5 1506.59 74.7709  13
  -2  -4   5 1486.65 67.5674  20
  -2   4   5 1495.51 75.2710   4
  -2   4   5 1593.76 79.0883  17
  -2   4   5 1465.64 69.5610   7
  -1   4   5 13711.4 228.621  13
  -1  -4   5 13726.3 204.442  20
  -1   4   5 13463.1 227.435   4
  -1   4   5 13533.1 218.116   7
   0   4   5 111.974 22.8461   7
   0   4   5 86.6322 22.0516  13
   0  -4  -5 111.245 26.2455  21
   0  -4   5 101.727 19.7464  20
   1   4   5 3860.16 123.371   7
   1   4   5 3834.46 113.398  14
  -1  -4  -5 4067.41 133.157  21
   1  -4   5 4133.86 112.383  20
   2   4   5 5308.87 147.395   7
   2   4   5 5157.60 130.959  14
  -2  -4  -5 5583.79 155.609  21
   3   4   5 1693.08 83.1736   7
   3   4   5 1672.64 75.3577  14
  -3  -4  -5 1745.49 86.7892  21
   4   4   5 10316.8 184.444  14
  -4  -4  -5 11084.8 214.594  21
   5   4   5 6405.79 141.242  14
  -5  -4  -5 7042.74 165.457  21
   6   4   5 2040.29 76.2084  14
  -6  -4  -5 2168.92 88.3838  21
   6  -4   5 2100.54 70.1776  27
   7   4   5 344.766 29.8898  14
  -7  -4  -5 370.022 34.9576  21
  -7   4  -5 400.213 59.8986   9
   7  -4   5 351.530 28.6935  27
   8   4   5 1200.45 50.3535  14
  -8  -4  -5 1322.42 60.5773  21
   8  -4   5 1371.50 52.5743  27
   9   4   5 30.0824 8.13839  14
  -9  -4  -5 45.5195 12.2144  21
  -9   4  -5 60.2482 14.8858   9
  10   4   5 34.2527 6.54531  14
 -10   4  -5 41.9591 8.32750   9
  -8   5   5 42.1402 8.41846  10
  -7   5   5 739.299 33.3614   5
  -7   5   5 741.528 36.0854  10
  -7   5   5 696.967 30.3364   8
  -7   5   5 768.093 36.9524  16
  -6   5   5 322.692 25.9743  12
  -6   5   5 266.871 24.3752  10
  -6   5   5 231.628 19.9267   8
  -6   5   5 280.755 26.0269  16
  -5   5   5 192.870 24.8077  16
  -5   5   5 172.021 21.2095  12
  -5   5   5 176.710 19.2036   8
  -4   5   5 202.821 26.0307  16
  -4   5   5 157.892 22.4981  12
  -4   5   5 162.286 19.9207   8
  -4   5   5 187.373 22.1117  17
   4  -5  -5 170.460 18.8047  27
  -3   5   5 6025.48 131.018  12
  -3   5   5 5692.60 117.672   8
  -3   5   5 5848.93 123.080  17
   3  -5  -5 5732.66 115.002  27
   2  -5  -5 82.8906 16.6367  27
  -2   5   5 81.5708 14.9594  13
  -2   5   5 81.9496 14.8114   4
  -2   5   5 94.0083 18.4195  17
  -1   5   5 7032.57 132.478  13
  -1   5   5 6961.73 127.346   4
  -1   5   5 7197.77 138.648   8
   1  -5  -5 7369.77 140.899  27
   0  -5  -5 1711.11 70.0828  27
   0   5   5 1740.75 68.1061  13
   0   5   5 1650.78 63.2086   4
   0   5   5 1856.43 76.5415  17
  -1  -5  -5 839.530 50.9564  27
   1   5   5 819.281 48.3218  13
   1   5   5 824.197 44.7429   4
  -2  -5  -5 2020.95 76.6557  27
   2   5   5 1863.98 71.0193  13
   2   5   5 1843.29 65.8163   4
   3   5   5 1753.68 66.9843  13
  -3  -5  -5 1895.35 74.1882  21
   3   5   5 1730.01 61.6729   4
   4   5   5 8475.62 127.902   7
   4   5   5 8510.06 129.466   4
   5   5   5 2815.20 69.4485   7
   5   5   5 2948.21 70.4554   4
   6   5   5 2502.07 59.5721   7
   6   5   5 2490.43 57.1266   4
  -7  -5  -5 810.015 32.9509  27
  -7  -5  -5 832.524 35.2643  21
   8   5   5 607.807 25.6995  13
  -8  -5  -5 682.334 27.1281  21
  -2   6   5 643.343 25.9355  12
  -2   6   5 625.805 25.1555  10
  -1   6   5 1843.13 44.2363  16
  -1   6   5 1829.11 45.1917  12
   1  -6  -5 1721.94 42.8904  27
   0   6   5 1576.25 40.4080  16
   0   6   5 1643.80 43.6252  12
   0   6   5 1520.20 38.4514  17
   0  -6  -5 1609.35 42.8686  27
   1   6   5 2099.38 48.6689  12
   1   6   5 2017.69 44.6277  17
  -1  -6  -5 2088.55 48.6630  27
   2   6   5 757.500 27.8115  12
   2   6   5 795.365 27.2424  17
  -2  -6  -5 759.622 27.9344  27
 -12   0   6 162.265 18.5829  19
 -11   0   6 7090.09 132.740  19
  11   0  -6 6570.99 110.384   1
 -10   0   6 3717.58 106.031  19
  -9   0   6 393.810 37.8938  19
  -8   0   6 35443.9 343.881  19
  -7   0   6 72704.1 502.450  19
  -6   0   6 4437.58 123.736  19
  -5   0   6 3898.29 235.913  23
  -5   0   6 3904.55 117.640  19
  -4   0   6 7475.48 328.084  23
  -4   0   6 7138.90 158.232  19
  -3   0   6 2282.99 180.061  23
  -3   0   6 2124.41 84.9784  19
  -2   0   6 5847.19 292.729  23
  -2   0   6 5954.33 145.583  19
  -1   0   6 40479.2 778.893  23
  -1   0   6 40186.2 384.414  19
  -1   0   6 42063.5 353.456   7
   0   0   6 124.460 19.7161   7
   0   0   6 140.502 21.4074  14
   0   0   6 177.460 54.8131  23
   0   0   6 151.658 25.7653  19
   1   0   6 41685.1 370.890  14
   1   0   6 43738.9 827.493  23
   1   0   6 43298.1 413.201  19
   2   0   6 4817.68 127.193  14
   2   0   6 5242.16 291.866  23
   2   0   6 4939.11 142.946   2
   2   0   6 5058.32 144.977  19
  -2   0  -6 5345.92 255.723  28
   3   0   6 9384.60 179.813  14
   3   0   6 9543.04 407.100  23
   3   0   6 9210.47 198.539   2
  -3   0  -6 9815.59 332.732  28
   4   0   6 13992.4 223.775  14
   4   0   6 13790.6 243.543   2
   5   0   6 188.811 27.2681  14
   5   0   6 269.800 35.8844   2
   6   0   6 27090.1 341.619   2
   7   0   6 8821.02 193.620   2
   8   0   6 1846.38 87.7239   2
   9   0   6 943.894 61.7177   2
  10   0   6 72.8963 20.2913   2
  11   0   6 87.8522 14.4248  14
  11   0   6 18830.1 231.274   2
  12   0   6 906.445 44.8447   2
  12   0   6 729.353 32.1009  19
  13   0   6 3467.40 67.6979   2
 -12   1   6 50.4536 11.7148  19
  12  -1  -6 51.9685 10.3773   1
  11  -1  -6 845.895 42.0787   1
 -11  -1   6 871.148 40.9561  19
 -11   1   6 932.055 48.4732  19
 -10  -1   6 591.763 34.1918   3
  10  -1  -6 543.025 38.2893   1
 -10   1   6 607.853 43.7409  19
 -10  -1   6 606.786 39.3790  19
  -9  -1   6 8443.22 140.341   3
  -9  -1   6 8653.29 155.823  19
  -8   1   6 8996.22 173.305  19
  -8  -1   6 8522.91 157.600  19
  -8   1   6 8632.63 164.148   8
  -7  -1   6 19103.9 230.741  20
  -7   1   6 18905.4 252.655  19
  -7  -1   6 19453.4 251.891  19
  -7   1   6 19304.9 244.057   8
  -6  -1   6 19203.2 235.968  20
  -6   1   6 19592.3 261.205  19
  -6  -1   6 19786.9 258.064  19
  -6   1   6 19670.1 245.504   8
  -5  -1   6 1372.80 139.440  23
  -5   1   6 1363.17 140.811  23
  -5   1   6 1450.07 70.7158   4
  -5  -1   6 1446.50 66.6628  20
  -5   1   6 1337.05 68.9081  19
  -5  -1   6 1413.02 69.3956  19
  -5   1   6 1435.44 66.4012   8
  -4  -1   6 15239.2 457.731  23
  -4   1   6 15392.1 230.941   4
  -4  -1   6 15022.1 219.327  20
  -4   1   6 14923.2 226.473  19
  -4  -1   6 14865.0 225.285  19
  -4   1   6 15525.8 215.594   8
  -3   1   6 3286.89 207.161  26
  -3   1   6 3581.13 109.666  13
  -3  -1   6 3415.19 218.754  23
  -3   1   6 3324.66 223.139  23
  -3  -1   6 3558.38 110.334  20
  -3   1   6 3609.60 109.962   4
  -3   1   6 3453.35 109.155  19
  -3  -1   6 3443.78 109.166  19
  -3   1   6 3559.97 102.408   8
  -2   1   6 151.805 47.6952  26
  -2   1   6 150.204 23.5354   7
  -2   1   6 141.338 22.6654  13
  -2  -1   6 164.825 49.1535  23
  -2   1   6 184.871 56.9513  23
  -2   1   6 220.483 27.5646  19
  -2   1   6 127.811 21.4260   4
  -2  -1   6 174.657 25.8454  19
  -2   1   6 147.612 20.9720   8
  -2   1   6 120.710 20.4799  17
  -1   1   6 4307.51 244.995  26
  -1   1   6 4397.71 126.160  14
  -1   1   6 4449.75 119.600  13
  -1  -1   6 4167.95 240.976  23
  -1   1   6 4243.24 256.468  23
  -1   1   6 4502.06 125.880  19
  -1  -1   6 4476.37 128.188  19
  -1   1   6 4623.68 117.367  17
  -1   1   6 4636.65 125.231   7
   0   1   6 117.843 21.5506   7
   0   1   6 149.611 24.2136  14
   0   1   6 102.813 18.3585  13
   0  -1   6 150.896 50.0118  23
   0   1   6 114.162 44.0130  23
   0   1   6 150.588 24.3103  19
   0  -1   6 157.048 25.3763  19
   1   1   6 3427.24 110.813   7
   1   1   6 3230.00 109.314  14
   1   1   6 3361.75 102.802  13
   1  -1   6 3322.78 222.491  23
   1   1   6 3148.60 229.620  23
   1   1   6 3360.59 111.186  19
   1  -1   6 3278.13 113.656  19
  -1   1  -6 3337.43 218.604  28
   2   1   6 12237.8 210.188   7
   2   1   6 11806.1 212.528  14
   2   1   6 12181.6 192.215  13
   2  -1   6 11251.4 413.667  23
  -2   1  -6 12139.5 408.434  28
   2   1   6 11945.0 211.321  19
   3   1   6 8661.27 185.221  14
   3  -1   6 8413.67 357.421  23
   3   1   6 8741.64 195.917   2
   3  -1   6 8680.47 190.464   2
   3   1   6 8767.35 181.813  19
  -3   1  -6 9462.43 357.441  28
   4   1   6 6675.26 165.936  14
   4  -1   6 6184.23 307.701  23
   4   1   6 6491.11 171.726   2
   4  -1   6 6376.30 164.859   2
   4   1   6 6665.74 159.784  19
  -4   1  -6 6874.35 302.627  28
   5   1   6 1990.34 92.0716  14
   5   1   6 1953.73 93.2209   2
   5  -1   6 1978.40 92.0953   2
   5   1   6 1993.35 87.2927  19
  -5   1  -6 2118.79 166.126  28
   6   1   6 268.494 35.6113   2
   6  -1   6 233.573 33.0495   2
   7   1   6 471.120 45.1742   2
   7  -1   6 451.359 44.0853   2
  -8  -1  -6 840.924 51.2613  21
   8   1   6 811.409 57.3251   2
   8  -1   6 820.629 56.8061   2
  -9  -1  -6 1041.12 53.9520  21
   9   1   6 1196.30 65.8261   2
   9  -1   6 1135.77 63.5912   2
 -10  -1  -6 2739.83 80.6575  21
  10   1   6 2922.43 95.6857   2
  10  -1   6 2737.47 92.1326   2
  11   1   6 6008.28 120.614  14
 -11  -1  -6 5740.03 101.630  21
  11   1   6 5941.35 122.228   2
  11  -1   6 5924.34 121.663   2
  12   1   6 5359.35 92.1307  14
  12   1   6 5224.70 96.7182   2
  12  -1   6 5272.62 98.7327   2
  12  -2  -6 1956.92 50.1804   1
 -11  -2   6 3016.97 70.6497   3
 -11   2   6 3207.56 80.6823  19
  11  -2  -6 3075.69 76.4154   1
 -10  -2   6 272.759 24.9298   3
  10  -2  -6 330.795 29.5203   1
 -10   2   6 337.731 30.4185  19
   9  -2  -6 694.318 44.6131   1
  -9   2   6 734.159 46.2683  19
  -9   2   6 714.092 45.4920   8
  -8  -2   6 4421.92 109.665  20
  -8   2   6 4400.39 116.561  19
  -8   2   6 4242.58 113.443   8
  -7  -2   6 2220.06 83.8961  20
  -7   2   6 2130.34 83.2342  19
  -7   2   6 2306.66 86.4957   8
  -6   2   6 370.169 35.0116  12
  -6  -2   6 463.259 39.6989  20
  -6   2   6 409.183 36.9174  19
  -6  -2   6 501.693 36.3239  19
  -6   2   6 388.161 38.4335   8
  -5   2   6 1806.38 77.6628  12
  -5   2   6 1854.07 84.1930   4
  -5  -2   6 1843.42 77.9859  20
  -5   2   6 1825.42 77.0053  19
  -5  -2   6 2014.15 76.4604  19
  -5   2   6 1824.25 79.1981   8
  -4   2   6 8463.58 174.490  13
  -4   2   6 8242.27 161.447  12
  -4  -2   6 7983.33 166.982  20
  -4   2   6 8049.60 176.967   4
  -4   2   6 8047.89 159.097  19
  -4  -2   6 8461.32 158.570  19
  -4   2   6 8110.21 167.507   8
  -4   2   6 8187.29 173.265  17
  -3   2   6 210.952 57.2455  26
  -3   2   6 165.888 27.3537  13
  -3  -2   6 163.847 46.9254  23
  -3   2   6 175.567 50.6427  23
  -3   2   6 152.228 22.2471  12
  -3   2   6 170.385 23.7737  19
  -3   2   6 162.585 26.1860   4
  -3  -2   6 242.641 27.7254  19
  -3   2   6 186.552 26.5238   8
  -3   2   6 147.104 24.5984  17
  -2   2   6 214.943 59.3084  26
  -2   2   6 152.123 25.3228   7
  -2   2   6 153.958 25.1456  13
  -2  -2   6 132.316 41.0637  23
  -2   2   6 87.3268 37.8971  23
  -2   2   6 152.100 23.1788  19
  -2   2   6 141.152 25.7181   4
  -2  -2   6 132.712 21.8105  19
  -2   2   6 158.149 24.5801  17
  -1   2   6 3457.44 232.062  26
  -1   2   6 3278.31 114.967  14
  -1   2   6 3361.24 111.309  13
  -1  -2   6 3016.97 191.832  23
  -1   2   6 3241.04 225.357  23
  -1   2   6 3296.86 100.345  19
  -1  -2   6 3418.50 110.510  19
  -1   2   6 3363.04 108.946  17
  -1   2   6 3369.60 113.431   7
   0   2   6 65.5029 32.1186  26
   0   2   6 61.6709 18.4545   7
   0   2   6 69.2674 20.9552  14
   0   2   6 49.0877 16.8000  13
   0   2   6 38.4576 29.9690  23
   0  -2  -6 58.1354 15.0794  21
   0   2   6 57.3455 14.4584  19
   0   2  -6 58.1409 27.7523  28
   0   2   6 38.0618 14.8200  17
   1   2   6 38966.4 395.714   7
   1   2   6 40179.6 798.275  26
   1   2   6 37016.2 399.254  14
   1   2   6 36532.0 363.643  13
   1   2   6 36251.3 801.198  23
  -1  -2  -6 36269.7 361.232  21
  -1   2  -6 36989.5 755.668  28
   1  -2   6 37474.9 382.335  19
   1   2   6 37422.1 352.055  17
   2   2   6 39216.3 784.965  26
   2   2   6 39014.5 400.809   7
   2   2   6 37786.7 403.185  14
  -2  -2  -6 36904.7 369.890  21
   2  -2   6 36678.1 387.524  19
  -2   2  -6 36833.7 740.068  28
   2   2   6 38262.6 343.110  17
   3   2   6 55795.7 497.633  14
  -3  -2  -6 54197.5 456.732  21
  -3   2  -6 55490.0 894.764  28
   4   2   6 29721.5 366.070  14
  -4  -2  -6 28909.7 341.204  21
   5   2   6 452.007 46.9262  14
   5   2   6 452.469 42.8945   2
   5  -2   6 527.684 46.2999   2
  -5  -2  -6 493.426 45.7941  21
   6   2   6 113.319 26.9588  14
  -6  -2  -6 94.2801 21.4681  21
   6   2   6 87.2707 20.3404   2
   6  -2   6 100.422 21.7990   2
   7   2   6 1317.20 74.0644  14
   7   2   6 1198.51 65.7942   2
  -7  -2  -6 1312.18 69.1882  21
   7  -2   6 1264.70 68.7853   2
  -7   2  -6 1354.41 63.1234   9
  -8  -2  -6 776.318 51.7211  21
   8   2   6 706.052 48.2022   2
   8  -2   6 803.448 52.3082   2
  -8   2  -6 814.146 47.4960   9
   9   2   6 3138.95 103.205  14
   9   2   6 2856.97 89.8013   2
  -9  -2  -6 2997.77 95.3881  21
   9  -2   6 2989.25 93.3143   2
  10   2   6 222.402 27.1881  14
  10   2   6 204.795 22.0202   2
  10  -2   6 233.113 23.9723   2
 -10  -2  -6 207.887 23.5142  21
  11   2   6 1271.75 51.2852  14
 -11  -2  -6 1170.23 45.7484  21
  12   2   6 393.278 22.3762  14
 -11  -3   6 1845.69 44.8104   3
  11  -3  -6 1847.30 48.6360   1
 -10  -3   6 800.897 35.9678   3
  10  -3  -6 818.195 38.3805   1
   9  -3  -6 11998.8 159.609   1
  -9  -3   6 12263.3 156.737   3
   8  -3  -6 2226.74 72.7823   1
  -8   3   6 2235.79 69.9157  10
  -8   3   6 2207.57 68.7792  19
  -8   3   6 2356.66 78.6733   8
  -7   3   6 5538.32 124.806  12
  -7  -3   6 5890.39 124.727  20
  -7   3   6 5352.68 115.034  10
  -7   3   6 5417.46 112.474  19
  -7   3   6 5952.63 130.970   8
   7  -3  -6 5539.98 119.335   1
  -6   3   6 342.595 33.1553  12
   6  -3  -6 358.811 31.4337   1
  -6  -3   6 361.099 34.0469  20
  -6   3   6 336.874 29.2073  19
  -6   3   6 326.777 35.1284   8
  -6   3   6 333.605 31.7155  16
  -5   3   6 348.825 34.6182  12
  -5   3   6 421.238 40.6019   4
  -5   3   6 361.678 36.9658   8
  -5   3   6 337.875 32.8336  16
  -4   3   6 2686.31 96.9043  13
  -4   3   6 2586.73 92.1739  12
  -4  -3   6 2701.36 91.7949  20
  -4   3   6 2895.97 103.409   4
  -4   3   6 2647.53 96.4784   8
  -4   3   6 2624.66 96.1719  17
  -4   3   6 2879.95 95.2165  16
  -3   3   6 2337.77 93.7026  13
  -3   3   6 2271.42 89.8555  12
  -3  -3   6 2349.53 88.5495  20
  -3   3   6 2281.36 95.2498   4
  -3   3   6 2340.86 93.0390  17
  -3   3   6 2217.57 89.2140   8
  -2   3   6 2473.07 96.4055  13
  -2  -3   6 2565.57 94.4475  20
  -2   3   6 2469.95 100.927   4
  -2   3   6 2525.91 97.6999  17
  -2   3   6 2503.77 96.3449   7
  -1   3   6 124.267 24.7601   7
  -1   3   6 117.328 24.6058  13
  -1  -3   6 128.757 25.4953  20
  -1   3   6 102.569 24.4864   4
  -1   3   6 122.811 23.8435  17
   0   3   6 317.889 37.7248   7
   0   3   6 312.686 37.9679  14
   0   3   6 297.515 36.4948  13
   0  -3  -6 285.370 34.0016  21
   0   3   6 334.492 35.5462  17
   1   3   6 452.804 46.6631   7
   1   3   6 407.126 44.0337  14
   1   3   6 351.421 40.1710  13
  -1  -3  -6 395.507 41.4181  21
   1   3   6 353.609 37.7710  17
   2   3   6 20757.9 297.848   7
   2   3   6 19984.4 296.802  14
  -2  -3  -6 20228.9 287.881  21
   2  -3   6 20454.6 262.536  19
   3   3   6 8871.98 195.872   7
   3   3   6 8216.60 187.822  14
  -3  -3  -6 8575.78 185.593  21
   3  -3   6 8307.09 170.837  19
   4   3   6 2248.63 96.5040  14
  -4  -3  -6 2210.10 93.6767  21
   5   3   6 1098.14 66.1824  14
  -5  -3  -6 1045.89 64.1261  21
   6   3   6 5482.33 141.056  14
  -6  -3  -6 5427.58 138.919  21
   7   3   6 406.204 38.3418  14
  -7  -3  -6 404.539 36.3981  21
   8   3   6 249.206 28.8387  14
  -8  -3  -6 245.309 27.3046  21
  -8   3  -6 198.962 20.4242   9
   9   3   6 1783.59 65.2774  14
  -9  -3  -6 1837.44 65.4253  21
  10   3   6 3.37410 6.04942  14
 -10  -3  -6-3.22035 6.37387  21
  11   3   6 98.7897 10.7477  14
  -9  -4   6 2963.76 60.0818   3
  -8  -4   6 808.898 34.8418   3
  -8   4   6 810.451 35.1964  10
  -8   4   6 887.586 38.8719   8
  -7   4   6 1441.84 52.4603  10
  -7   4   6 1500.79 55.8495   8
  -6   4   6 656.792 39.9254  12
  -6  -4   6 641.349 36.4833  20
  -6   4   6 629.733 37.9397  10
  -6   4   6 679.167 40.8920   8
  -6   4   6 673.325 38.4065  16
  -5   4   6 681.760 43.1436  12
  -5  -4   6 676.588 39.6806  20
  -5   4   6 696.718 44.0477   8
  -5   4   6 673.612 40.5346  16
  -4   4   6 9804.61 166.403  12
  -4  -4   6 9717.28 153.839  20
  -4   4   6 9737.23 170.947   8
  -4   4   6 9792.65 167.858  17
  -4   4   6 10300.5 165.325  16
  -3   4   6 3119.68 89.9548  16
  -3   4   6 3165.67 97.8062  13
  -3   4   6 3164.11 97.8359  12
  -3   4   6 3191.72 99.9037   4
  -3  -4   6 3145.97 88.8936  20
  -3   4   6 3162.60 101.060   8
  -3   4   6 3203.78 101.464  17
   2  -4  -6 4889.18 112.361  27
  -2   4   6 4995.90 126.502  13
  -2  -4   6 4828.57 110.834  20
  -2   4   6 4997.81 129.375   4
  -2   4   6 5078.88 130.570   8
  -2   4   6 5077.95 130.487  17
   1  -4  -6 4438.35 112.386  27
  -1   4   6 4578.41 125.528  13
  -1  -4   6 4589.61 109.548  20
  -1   4   6 4589.23 125.340   4
  -1   4   6 4934.47 129.951  17
  -1   4   6 4457.92 119.940   7
   0   4   6 1595.34 76.0953  13
   0  -4   6 1586.33 65.4308  20
   0   4   6 1642.85 76.3529   4
   0   4   6 1683.04 75.5140  17
   0   4   6 1583.20 73.7626   7
   1   4   6 342.203 37.0749  13
   1  -4   6 361.663 31.3691  20
   1   4   6 333.792 36.4632   4
   1   4   6 351.860 35.8661  17
   1   4   6 343.540 37.1025   7
   2   4   6 467.921 41.9945   7
   2   4   6 488.385 43.3292  13
  -2  -4  -6 536.822 45.2631  21
   2  -4   6 588.509 39.0552  20
   2   4   6 458.333 38.7899  17
   3   4   6 2229.99 85.7385   7
   3   4   6 1996.01 76.3880  14
   3   4   6 2157.35 84.7986  13
  -3  -4  -6 2232.37 87.1430  21
   3  -4   6 2259.59 74.5138  20
   4   4   6 546.914 42.4228   7
   4   4   6 460.708 35.7591  14
  -4  -4  -6 537.407 42.3092  21
   5   4   6 512.308 39.2027   7
   5   4   6 511.793 35.3226  14
  -5  -4  -6 541.784 39.6112  21
   6   4   6 628.200 39.6074   7
   6   4   6 534.447 33.4233  14
  -6  -4  -6 608.668 39.6510  21
   7   4   6 1605.47 58.2558   7
  -7  -4  -6 1595.32 58.0693  21
   8   4   6 1210.09 45.1815   7
   8   4   6 1170.99 41.9704  13
  -8  -4  -6 1182.40 44.4811  21
   9   4   6 4493.04 70.8357   7
  -9  -4  -6 5093.13 75.3661  21
  -5   5   6 214.720 18.1296  12
  -5   5   6 228.295 17.7044  10
  -5   5   6 208.542 16.2346   8
  -4   5   6 167.165 18.2648  12
  -4   5   6 180.255 17.8657  10
  -4   5   6 196.112 17.4849   8
  -3   5   6 608.252 34.6558  12
  -3   5   6 646.846 33.2636   8
  -2   5   6 0.79036 2.98988  16
   2  -5  -6 28.6159 8.19297  27
  -2   5   6 34.2884 10.8296  12
  -2  -5   6 0.00506 1.05695  20
  -2   5   6 33.4279 9.49756   8
  -2   5   6 33.7945 10.1789  17
  -1   5   6 2729.41 74.4804  12
  -1   5   6 2637.49 71.7826   8
  -1   5   6 2758.74 73.7474  17
   1  -5  -6 2555.79 65.8140  27
   0   5   6 794.936 38.7489  13
   0   5   6 765.766 38.8681   8
   0   5   6 824.162 41.0583  17
   0  -5  -6 743.808 37.2288  27
  -1  -5  -6 646.804 34.3882  27
   1   5   6 604.852 34.0153  13
   1   5   6 572.225 31.2391   4
   1   5   6 645.854 35.3187   8
   1   5   6 695.395 37.5026  17
  -2  -5  -6 795.746 37.5064  27
   2   5   6 818.122 38.4173  13
   2   5   6 740.305 33.9012   4
   2   5   6 867.692 40.1191  17
  -3  -5  -6 564.316 30.5610  27
   3   5   6 620.637 32.0388  13
   3   5   6 544.739 27.0456   4
   3   5   6 584.158 32.0142  17
  -4  -5  -6 60.3738 10.3505  27
   4   5   6 60.0192 8.54508   7
   4   5   6 67.0301 10.7962  13
   4   5   6 61.0069 8.66847   4
   4   5   6 66.7450 10.3007  17
  -5  -5  -6 133.973 13.0697  27
   5   5   6 125.501 12.7658  13
   5   5   6 132.395 12.0681  17
  11   0  -7-0.70372 3.41320   1
 -11   0   7 4.45522 5.58155  19
  10   0  -7 93.1949 13.0167   1
 -10   0   7 138.635 17.5641  19
  -9   0   7 39.0887 13.6666  19
  -8   0   7 607.482 42.8333  19
  -7   0   7 326.725 33.1532  19
  -6   0   7 25.8152 15.1790  19
  -5   0   7 13.2091 12.7728  19
  -4   0   7-1.26268 11.6360  19
  -3   0   7 1.15179 11.3218  19
  -2   0   7 194.409 27.9365  19
  -1   0   7 560.269 48.6874  19
   0   0   7 117.490 24.1697  19
   1   0   7 53.1076 15.2599  14
   1   0   7 41.0031 16.8232  19
   2   0   7 88.2463 18.0017  14
   2   0   7 120.698 24.8847  19
   3   0   7 28.5511 12.0972  14
   3   0   7 2.70828 11.4621  19
   4   0   7-5.68299 8.08233  14
   4   0   7-3.00273 11.1884  19
   5   0   7 64.9653 16.2400  14
   5   0   7 70.8952 21.6419   2
   5   0   7 74.3611 20.4366  19
   6   0   7 269.733 29.4061  14
   6   0   7 297.201 38.3522   2
   6   0   7 314.112 34.9782  19
   7   0   7 68.0435 14.4172  14
   7   0   7 69.1772 20.5345   2
   7   0   7 54.8836 17.0218  19
   8   0   7 8.49496 6.70036  14
   8   0   7 5.28059 13.3285   2
   8   0   7 8.64732 10.1346  19
   9   0   7 44.4601 14.1517   2
   9   0   7 56.4215 13.3079  19
  10   0   7 5.30781 7.70315   2
  10   0   7 0.83363 5.07681  19
 -11   1   7 1940.22 53.2879  19
  11  -1  -7 1800.10 45.6890   1
  10  -1  -7 17.2221 8.54656   1
 -10  -1   7-6.01478 5.08037  19
 -10   1   7 23.0053 9.91722  19
  -9   1   7 400.795 32.2422  19
  -9  -1   7 387.643 29.3093  19
  -8   1   7 675.761 44.3292  19
  -8  -1   7 594.034 38.0532  19
  -7   1   7 41700.8 347.858  19
  -7  -1   7 40846.0 329.134  19
  -6  -1   7 162.691 20.7822  20
  -6   1   7 137.075 18.3334   8
  -6   1   7 141.836 25.0187  19
  -6  -1   7 176.613 25.0631  19
  -5  -1   7 2524.62 81.8058  20
  -5   1   7 2730.11 95.8366  19
  -5  -1   7 2611.88 91.0731  19
  -4  -1   7 109.306 18.3620  20
  -4   1   7 101.593 19.0490   4
  -4   1   7 98.4055 22.3848  19
  -4  -1   7 97.6833 20.3197  19
  -3   1   7 4101.22 114.299   4
  -3  -1   7 3911.39 110.181  20
  -3   1   7 4151.21 122.286  19
  -3  -1   7 3988.89 117.486  19
  -2  -1   7 2908.11 100.063  20
  -2   1   7 2929.23 97.1043   4
  -2   1   7 2843.03 101.695  19
  -2  -1   7 2798.84 100.337  19
  -1   1   7 5600.08 133.487  13
  -1   1   7 5393.94 133.112   4
  -1   1   7 5259.74 139.186  19
  -1  -1   7 5327.07 142.206  19
  -1   1   7 5268.80 134.726   7
   0   1   7 7679.73 170.985  14
   0   1   7 8036.88 157.691  13
   0   1   7 7850.41 161.997   4
   0   1   7 7566.22 169.579  19
   0  -1   7 7660.93 173.919  19
   0   1   7 7766.53 162.952   7
   1   1   7 2004.13 87.3993  14
   1   1   7 2194.86 80.5666  13
   1   1   7 2137.87 90.3093  19
   1  -1   7 2077.80 91.9041  19
   1   1   7 2078.36 84.5219   7
   2   1   7 82.2414 19.5637  19
   2  -1   7 64.4215 19.4300  19
   3   1   7 466.485 39.0878   7
   3   1   7 505.481 43.3126  14
   3   1   7 452.027 41.4028  19
   3  -1   7 443.683 44.5965  19
   4   1   7 72.1786 16.8585   7
   4   1   7 52.9918 16.0104  14
   4   1   7 71.7262 18.0393  19
   4  -1   7 67.3383 20.7070  19
   5   1   7 333.164 32.7878   7
   5   1   7 321.475 33.9987  14
   5   1   7 362.147 34.5068  19
   5  -1   7 350.115 39.1985  19
   6   1   7 1712.73 69.2418   7
   6   1   7 1597.09 72.9290  14
   6   1   7 1810.06 83.1890   2
   6  -1   7 1733.48 80.8647   2
   6   1   7 1645.10 69.4830  19
   7   1   7 1045.28 56.1675  14
   7   1   7 1063.32 61.0251   2
   7  -1   7 1048.88 60.0106   2
   7   1   7 999.133 50.4043  19
   8   1   7 2635.63 83.4778  14
   8   1   7 2675.67 90.4938   2
   8  -1   7 2548.72 87.7363   2
   8   1   7 2710.83 74.0815  19
   9   1   7 335.757 27.7379  14
   9   1   7 313.305 29.1276   2
   9  -1   7 345.592 29.9127   2
   9  -1   7 355.938 30.4948  19
  10   1   7 107.454 13.5900  14
  10  -1   7 125.288 17.0175  19
  11  -1   7 406.826 21.8204  19
  10  -2  -7 579.235 29.2093   1
 -10  -2   7 491.897 21.7104   3
 -10   2   7 565.515 29.1360  19
  -9  -2   7 72.5624 11.7861   3
  -9   2   7 114.406 15.9572  19
   9  -2  -7 122.861 17.0873   1
   8  -2  -7 42.3324 13.1834   1
  -8   2   7 30.2271 10.3355  19
  -8   2   7 25.8500 9.60161   8
  -7  -2   7 2856.84 78.8265  20
  -7   2   7 2739.28 84.8881  19
  -7   2   7 2671.57 78.5015   8
  -6  -2   7 5165.33 113.738  20
  -6   2   7 4962.36 117.564  19
  -6  -2   7 5211.10 106.592  19
  -6   2   7 5048.20 112.535   8
  -5  -2   7 3574.16 99.2304  20
  -5   2   7 3571.23 101.021  19
  -5  -2   7 3691.08 95.6428  19
  -5   2   7 3544.68 99.6657   8
  -4   2   7 10470.2 184.813   4
  -4  -2   7 10159.6 174.805  20
  -4   2   7 10234.2 173.804  19
  -4  -2   7 10398.8 168.715  19
  -4   2   7 10013.9 169.319   8
  -3   2   7 1082.94 61.7433   4
  -3  -2   7 1194.01 62.2851  20
  -3   2   7 1122.63 58.0479  19
  -3  -2   7 1175.48 58.7790  19
  -3   2   7 1163.85 58.7651   8
  -2   2   7 158.019 25.4226  13
  -2  -2   7 135.598 22.6019  20
  -2   2   7 140.992 21.1339  19
  -2   2   7 121.940 21.7981   4
  -2  -2   7 141.657 22.0444  19
  -2   2   7 147.438 22.1673  17
  -2   2   7 143.584 21.5915   8
  -1   2   7 87.1343 20.6519   7
  -1   2   7 83.3738 20.0813  13
  -1   2   7 104.111 21.9419   4
  -1   2   7 81.5482 16.6188  19
  -1  -2   7 115.680 21.2789  19
  -1   2   7 86.1771 16.7823  17
  -1   2   7 73.9779 16.7422   8
   0   2   7 161.934 26.4744   7
   0   2   7 159.972 24.4196  13
   0   2   7 163.354 22.3888  19
   0   2   7 158.500 26.5309   4
   0  -2   7 171.590 25.5335  19
   0   2   7 146.012 22.3072  17
   1   2   7 318.633 37.1898  14
   1   2   7 268.708 30.0801  13
   1   2   7 266.725 27.3639  19
   1  -2   7 300.830 33.7149  19
   1   2   7 294.372 29.1398  17
   1   2   7 296.449 34.4123   7
   2   2   7 10854.3 198.527   7
   2   2   7 11026.2 211.441  14
   2   2   7 10848.1 183.545  13
   2  -2   7 10764.8 200.194  19
   3   2   7 8242.04 171.245   7
   3   2   7 8488.79 183.945  14
   3   2   7 8086.12 154.511  13
   3  -2   7 7818.79 172.223  19
   4   2   7 7445.13 161.782   7
   4   2   7 7524.90 169.320  14
   4   2   7 7321.77 140.938  13
   4  -2   7 7077.30 161.625  19
   5   2   7 5204.99 128.719   7
   5   2   7 5114.07 135.440  14
   5   2   7 5139.14 111.368  13
   5  -2   7 5110.67 133.977  19
   6   2   7 6370.94 134.952   7
   6   2   7 6413.00 146.016  14
   6  -2   7 6422.78 145.957  19
   7   2   7 81.1018 15.7399   7
   7   2   7 88.3609 19.0023  14
   7  -2   7 96.1474 19.6456  19
   8   2   7 195.246 21.1831   7
   8   2   7 169.377 22.2429  14
   8  -2   7 170.118 23.0030  19
   9   2   7 1530.49 55.6888  14
   9  -2   7 1512.50 55.7885  19
  10   2   7 38.8934 8.36338  14
  10  -2   7 38.9936 8.70693  19
  -9  -3   7 239.536 16.1991   3
   9  -3  -7 218.908 16.4495   1
  -8  -3   7 470.380 26.6693   3
  -8   3   7 496.170 29.1200   8
   8  -3  -7 513.227 27.9580   1
   7  -3  -7 12.1647 7.09028   1
  -7   3   7 12.9754 8.53663   8
  -6  -3   7 66.3835 14.4756  20
  -6   3   7 62.4185 13.5713   8
   6  -3  -7 61.0229 12.3640   1
   5  -3  -7 1626.98 56.2380   1
  -5   3   7 1589.34 59.2727  12
  -5  -3   7 1769.49 65.3961  20
  -5   3   7 1739.76 65.6754   8
  -4  -3   7 12993.8 183.220  20
  -4   3   7 12671.1 183.077   8
  -3   3   7 2891.11 83.0486  12
  -3   3   7 3055.57 99.5554   4
  -3  -3   7 2961.03 90.3307  20
  -3   3   7 2881.07 90.5641   8
  -2   3   7 4662.36 123.695  13
  -2   3   7 4539.32 104.517  12
  -2  -3   7 4780.04 120.528  20
  -2   3   7 4764.60 127.382   4
  -2   3   7 4481.54 115.324  17
  -2   3   7 4480.57 115.220   8
  -1   3   7 837.811 53.9528  13
  -1   3   7 742.575 42.3731  12
  -1  -3   7 961.876 55.5101  20
  -1   3   7 909.840 58.6266   4
  -1   3   7 901.300 51.5684  17
  -1   3   7 830.786 51.1174   8
   0   3   7 4927.20 126.082  13
   0   3   7 4181.95 99.8385  12
   0  -3   7 5361.62 131.855  20
   0   3   7 5192.36 137.211   4
   0  -3   7 4113.76 98.9900  19
   0   3   7 4809.70 115.779  17
   0   3   7 5237.26 133.802   7
   1   3   7 8259.11 160.633  13
   1   3   7 8240.64 174.822   4
   1  -3   7 8421.00 145.976  19
   1   3   7 7891.31 143.369  17
   1   3   7 8614.45 174.912   7
   2   3   7 1898.41 83.0200   7
   2   3   7 1937.45 82.9680  14
   2   3   7 1888.46 76.9906  13
   2  -3   7 1942.75 71.6462  19
   2   3   7 1839.01 66.8580  17
   3   3   7 57135.5 404.350  13
  -3  -3  -7 57112.1 394.766  21
   3  -3   7 58120.0 394.856  19
   3   3   7 58422.0 352.996  17
   4   3   7 3476.49 104.992   7
   4   3   7 3493.56 104.230  14
   4   3   7 3316.23 92.3234  13
   4  -3   7 3369.27 94.1064  19
   5   3   7 4714.88 115.121   7
   5   3   7 4518.87 112.809  14
   5   3   7 4426.02 99.9612  13
  -5  -3  -7 4200.74 99.8980  21
   5  -3   7 4413.24 104.740  19
   6   3   7 3890.36 97.8177  14
   6   3   7 3791.97 84.8581  13
  -6  -3  -7 3590.63 85.9127  21
   6  -3   7 3677.59 90.4858  19
   7   3   7 93.6964 15.5023   7
   7   3   7 115.984 16.7444  14
  -7  -3  -7 92.5574 13.4143  21
   7  -3   7 88.6159 13.8449  19
   8   3   7 3607.77 75.7513   7
   8   3   7 3347.25 74.3080  14
  -8  -3  -7 2901.10 58.0302  21
   8  -3   7 3016.56 65.9522  19
   9   3   7 799.603 29.7355  14
  -7  -4   7 8332.91 85.7577   3
  -7   4   7 8481.54 94.6813   8
  -6   4   7 259.794 19.6959   8
  -5  -4   7 147.718 15.3397  20
  -5   4   7 159.776 16.6706   8
  -4   4   7 59.0412 10.9714  12
  -4  -4   7 71.6900 12.1872  20
  -4   4   7 67.0589 12.7718   8
  -3   4   7 300.230 23.8217  12
  -3  -4   7 309.044 24.3968  20
  -3   4   7 339.306 27.0814   8
  -2   4   7 123.599 15.9061  12
  -2  -4   7 131.052 16.6666  20
  -2   4   7 130.035 18.6259   4
  -2   4   7 147.482 19.3207   8
  -1   4   7 665.340 40.1551  13
  -1   4   7 605.018 33.7581  12
  -1  -4   7 621.080 34.7228  20
  -1   4   7 659.216 40.6467   4
  -1   4   7 673.384 39.7251   8
  -1   4   7 631.967 37.3758  17
   0  -4  -7 56.1253 10.0278  27
   0   4   7 70.3738 14.7612  13
   0   4   7 74.1966 12.5355  12
   0  -4   7 70.8045 12.6536  20
   0   4   7 113.064 18.6698   4
   0   4   7 94.8412 16.0631   8
   0   4   7 76.7060 14.1921  17
  -1  -4  -7 3396.69 79.1009  27
   1   4   7 3692.09 92.8167  13
   1   4   7 3108.09 74.2577  12
   1  -4   7 3411.73 79.5343  20
   1   4   7 3667.48 93.3163   4
   1   4   7 3294.58 82.0277  17
   2   4   7 234.715 23.9929  13
   2  -4   7 268.576 22.1130  20
   2   4   7 273.615 26.8151   4
   2   4   7 242.365 21.5774  17
   2   4   7 253.012 24.8683   7
   3   4   7 4983.33 100.390  13
   3  -4   7 4876.71 87.6444  20
   3   4   7 4966.01 102.139   4
   3   4   7 4650.74 84.9965  17
   3   4   7 5049.90 101.679   7
   4   4   7 257.178 22.7084  13
   4   4   7 301.434 24.9134   4
   4   4   7 282.974 23.4095   7
   5   4   7 1053.29 39.9690  13
   5   4   7 1113.95 42.6098   4
   5   4   7 1082.53 41.7534   7
   6   4   7 90.8273 10.5988  13
   6   4   7 92.9250 11.8335   4
   6   4   7 113.984 12.5055   7
   9   0  -8 1190.14 35.4804   1
  -9   0   8 1296.32 42.0095  19
  -8   0   8 4835.54 92.3805  19
  -7   0   8 44247.3 300.915  19
  -6   0   8 32356.5 274.676  19
  -5   0   8 17003.5 213.654  19
  -4   0   8 1951.64 75.3230  19
  -3   0   8 376.350 35.8532  19
  -2   0   8 960.826 56.7043  19
  -1   0   8 155.436 24.4652  19
   0   0   8 14586.0 190.904  20
   0   0   8 21425.6 266.671  19
   1   0   8 1276.79 67.3600  19
   2   0   8 3791.88 113.201  19
   3   0   8 3138.45 101.022  19
   4   0   8 1331.48 63.9585  19
   5   0   8 24.3683 11.7039  19
   6   0   8 626.464 38.7576  19
   7   0   8 3132.63 78.9323  19
   8   0   8 1453.69 45.5431  19
  -9   1   8 276.952 19.2454  19
   9  -1  -8 256.773 17.4853   1
  -8   1   8 900.354 40.4285  19
  -8  -1   8 813.641 33.8271  19
  -7   1   8 570.183 34.8434  19
  -7  -1   8 476.076 29.2644  19
  -6   1   8 1403.25 55.9618  19
  -6  -1   8 1390.95 53.1371  19
  -5  -1   8 1101.33 43.3233  20
  -5   1   8 1221.79 55.5221  19
  -5  -1   8 1235.46 54.2077  19
  -4   1   8 5521.97 123.054  19
  -4  -1   8 5517.06 118.924  19
  -3  -1   8 1955.60 66.4283  20
  -3  -1   8 2097.32 76.5208  19
  -2   1   8 140.951 18.9927   4
  -2  -1   8 197.784 22.7359  20
  -2   1   8 206.379 26.1207  19
  -2  -1   8 200.483 25.9485  19
  -1   1   8 533.141 36.5508   4
  -1  -1   8 608.682 41.0638  20
  -1   1   8 642.262 44.5998  19
  -1  -1   8 628.900 44.6161  19
   0   1   8 147.145 20.1173   4
   0   1   8 181.351 24.8721  19
   0  -1   8 193.046 26.6518  19
   1   1   8 407.494 31.8249   4
   1   1   8 485.534 38.6113  19
   1  -1   8 532.772 43.3290  19
   2   1   8 8906.39 155.788  19
   2  -1   8 9675.97 179.551  19
   3   1   8 1496.45 64.6531  14
   3   1   8 1421.35 60.8960  19
   3  -1   8 1548.57 71.0728  19
   3   1   8 1493.47 57.2749   7
   4   1   8 526.762 37.0442  14
   4   1   8 479.456 34.2451  19
   4  -1   8 541.402 41.0441  19
   4   1   8 404.179 28.1772   7
   5   1   8 13733.5 176.992  14
   5   1   8 13820.9 166.523  19
   6   1   8 742.280 38.4412  14
   6  -1   8 771.170 43.1122  19
   7   1   8 1481.77 48.1287  14
   7  -1   8 1477.84 54.3766  19
   8   1   8 0.81136 1.26348  14
   8  -1   8 2562.13 64.6241  19
   8  -2  -8 1796.97 45.7134   1
  -7  -2   8 58.0393 8.61988   3
   7  -2  -8 58.0674 10.4922   1
  -7   2   8 60.5098 10.2018  19
  -6  -2   8 237.650 19.5131  20
  -6   2   8 287.619 23.0408  19
  -5  -2   8 563.770 31.9055  20
  -5   2   8 591.178 34.3663  19
  -5  -2   8-0.86009 1.98708  19
  -5   2   8 1.50964 3.38869   8
  -4  -2   8 349.879 27.2624  20
  -4   2   8 294.308 24.4432  19
  -4  -2   8 346.304 25.9811  19
  -3  -2   8 5637.93 109.798  20
  -3   2   8 5335.83 103.929  19
  -3  -2   8 5575.95 108.292  19
  -2   2   8 3708.81 95.1008   4
  -2  -2   8 3643.92 92.8540  20
  -2   2   8 3491.12 85.0363  19
  -2  -2   8 3560.99 90.5695  19
  -1  -2   8 98.4761 17.8743  20
  -1   2   8 86.1001 15.7345   4
  -1   2   8 89.9291 14.0958  19
  -1  -2   8 105.274 17.3317  19
   0  -2   8 488.348 37.4916  20
   0   2   8 429.214 33.5394   4
   0   2   8 350.104 25.7138  19
   0  -2   8 459.514 34.2628  19
   1   2   8 46.5180 12.6668   4
   1  -2   8 51.6469 14.4669  19
   2   2   8 10911.6 144.428  13
   2   2   8 11053.1 165.067   4
   2  -2   8 11016.8 169.075  19
   2   2   8 10989.6 164.945   7
   3   2   8 8765.47 142.761   4
   3  -2   8 8818.68 148.761  19
   3   2   8 8695.40 140.825   7
   4   2   8 3732.11 96.8598  14
   4   2   8 3533.44 86.2043   4
   4  -2   8 3641.29 92.9709  19
   4   2   8 3548.55 84.5589   7
   5   2   8 3723.16 92.2471  14
   5  -2   8 3981.03 92.4914  19
   5   2   8 3875.85 82.5653   7
   6   2   8 2476.72 68.3852  14
   6  -2   8 2440.79 67.4824  19
   7   2   8 49.7340 9.52880  14
   7  -2   8 76.2381 11.1443  19
   8  -2   8 151.962 13.0133  19
  -5  -3   8 656.748 29.2368  20
  -5   3   8-12.1034 4.08443   8
  -4  -3   8 189.461 18.2489  20
  -4   3   8 161.493 15.0395   8
  -3  -3   8 722.376 35.7906  20
  -3   3   8 594.375 30.4963   8
  -2   3   8 1417.41 54.9319   4
  -2  -3   8 1391.93 51.1499  20
  -2   3   8 1261.02 45.2779   8
  -1   3   8 1543.29 58.9445   4
  -1  -3   8 1575.48 56.3405  20
  -1   3   8 1444.41 48.4729   8
   0  -3   8 212.369 22.0114  20
   0   3   8 213.958 23.1885   4
   0   3   8 203.219 18.8032   8
   1  -3   8 3031.36 79.2511  20
   1   3   8 2927.92 80.4972   4
   1  -3   8-4.48494 2.76736  19
   1   3   8 312.810 23.1131   8
   2   3   8 1113.06 43.4298  13
   2  -3   8 1389.05 53.6676  20
   2   3   8 1286.53 52.5774   4
   2  -3   8-0.62360 1.87268  19
   2   3   8-2.06465 2.42170   8
   3   3   8 15353.8 148.191  13
   3  -3   8 16898.3 175.662  20
   3   3   8 16183.6 175.883   4
   3   3   8 16331.6 172.868   7
   4  -3   8 5220.53 92.1600  20
   4   3   8 4816.07 89.0271   4
   4   3   8 4835.06 87.5739   7
   5   3   8 60.0667 9.66813   7
   5  -3   8 69.3931 10.8531  20
   5   3   8 56.8545 9.75770   4
   6  -3   8 375.954 19.2910  20
   1   4   8 129.624 12.0170   4
  -6   0   9 240.451 17.4191  19
  -5   0   9 6.90561 5.68252  19
  -4   0   9 187.854 18.5747  19
  -3   0   9 21.1182 8.96878  19
  -2   0   9 83.5014 14.1914  19
  -1   0   9 72.7810 14.3036  19
   0   0   9 137.062 18.4917  19
   1   0   9 91.8497 15.2234  19
   2   0   9 2.05931 7.29378  19
   3   0   9 54.5567 11.1851  19
   4   0   9-2.44301 5.04212  19
   5   0   9 4.53118 4.55766  19
  -5   1   9 1678.34 45.9693  19
  -5  -1   9 1579.00 41.7216  19
  -4   1   9 245.934 19.4455  19
  -4  -1   9 273.417 19.7302  19
  -3   1   9 216.719 19.0565  19
  -3  -1   9 217.390 18.8360  19
  -2   1   9 575.798 31.3656  19
  -2  -1   9 552.921 30.6284  19
  -1   1   9 1745.76 54.0994  19
  -1  -1   9 1841.80 57.0222  19
   0   1   9 3416.55 73.8959  19
   0  -1   9 3588.16 80.3281  19
   1  -1   9 462.965 24.9765  20
   1   1   9 467.025 27.0877  19
   1  -1   9 525.624 30.9847  19
   2  -1   9 46.8810 8.65045  20
   2   1   9 61.6591 10.0114  19
   2  -1   9 39.4175 9.71001  19
   3  -1   9 1251.86 39.3701  20
   3   1   9 1208.45 35.9988  19
   3  -1   9 1336.52 45.6733  19
   4  -1   9 296.754 18.3200  20
   4  -1   9 316.683 20.7805  19
   5  -1   9 1327.96 38.0769  19
  -2  -2   9 285.662 16.9548  20
  -2  -2   9-1.25811 1.82718  19
  -1  -2   9 115.808 11.8936  20
  -1  -2   9 55.5116 8.53030  19
   0  -2   9 82.9040 10.6867  20
   0  -2   9 86.8633 10.6382  19
   1  -2   9 1386.38 40.5895  20
   1  -2   9 1362.61 39.8585  19
   2  -2   9 1409.47 40.0934  20
   2  -2   9 1382.45 39.1481  19
   3  -2   9 3043.41 55.5431  20
   3  -2   9 2946.74 53.7818  19
   0   0   0    0.00    0.00   0

TITL RPI430-150K in P2(1)/c
REM P2(1)/c (#14 in standard setting)
CELL 1.54184  13.424578   5.633625   7.704165  90.0000  90.8826  90.0000
ZERR    2.00   0.000495   0.000206   0.000258   0.0000   0.0031   0.0000
LATT  1
SYMM -x, y+1/2,-z+1/2
SFAC C H O
UNIT 32.00 24.00 2.00
TREF
HKLF 4
END
;
_shelx_hkl_checksum              44828
loop_
_symmetry_equiv_pos_as_xyz
'x, y, z'
'-x, y+1/2, -z+1/2'
'-x, -y, -z'
'x, -y-1/2, z-1/2'
loop_
_atom_site_label
_atom_site_type_symbol
_atom_site_fract_x
_atom_site_fract_y
_atom_site_fract_z
_atom_site_U_iso_or_equiv
_atom_site_adp_type
_atom_site_occupancy
_atom_site_site_symmetry_order
_atom_site_calc_flag
_atom_site_refinement_flags_posn
_atom_site_refinement_flags_adp
_atom_site_refinement_flags_occupancy
_atom_site_disorder_assembly
_atom_site_disorder_group
C1 C 0.20358(16) 0.0261(5) 0.9200(3) 0.0529(7) Uani 1 1 d . . . . .
C2 C 0.27147(19) 0.1994(4) 0.9663(3) 0.0505(7) Uani 1 1 d . . . . .
H2 H 0.251503 0.332711 1.027925 0.061 Uiso 1 1 calc R U . . .
C3 C 0.36865(16) 0.1717(4) 0.9201(2) 0.0397(5) Uani 1 1 d . . . . .
H3 H 0.415272 0.286607 0.95147 0.048 Uiso 1 1 calc R U . . .
C4 C 0.39833(14) -0.0240(4) 0.8277(2) 0.0378(5) Uani 1 1 d . . . . .
H4 H 0.464686 -0.038992 0.796581 0.045 Uiso 1 1 calc R U . . .
C5 C 0.33143(16) -0.1974(4) 0.7808(3) 0.0419(5) Uani 1 1 d . . . . .
H5 H 0.351985 -0.329338 0.718268 0.05 Uiso 1 1 calc R U . A .
C6 C 0.23289(16) -0.1730(4) 0.8279(3) 0.0508(7) Uani 1 1 d . . . A -1
H6 H 0.186586 -0.289393 0.798034 0.061 Uiso 0.5 1 calc R U P A -1
C7 C 0.1297(3) -0.2714(8) 0.8475(5) 0.0382(9) Uani 0.5 1 d . . P A -1
H7 H 0.111301 -0.416488 0.799148 0.046 Uiso 0.5 1 d R U P A -1
C8 C 0.0640(4) -0.1318(9) 0.9284(6) 0.0365(11) Uani 0.5 1 d . . P . .
C9 C 0.0405(3) 0.1499(8) 1.0310(5) 0.0392(9) Uani 0.5 1 d . . P A .
H9 H 0.075776 0.283452 1.067432 0.047 Uiso 0.5 1 calc R U P . .
C10 C 0.0892(4) -0.0224(14) 0.9409(6) 0.0341(12) Uani 0.5 1 d . . P A .
H10 H 0.057512 -0.156228 0.895957 0.041 Uiso 0.5 1 calc R U P . .
O1 O 0.1100(3) 0.0733(7) 0.9854(5) 0.0336(8) Uani 0.5 1 d . . P A .
loop_
_atom_site_aniso_label
_atom_site_aniso_U_11
_atom_site_aniso_U_22
_atom_site_aniso_U_33
_atom_site_aniso_U_23
_atom_site_aniso_U_13
_atom_site_aniso_U_12
C1 0.0376(11) 0.0725(17) 0.0491(12) 0.0363(12) 0.0178(9) 0.0236(11)
C2 0.0715(16) 0.0468(13) 0.0334(10) 0.0087(9) 0.0152(10) 0.0257(12)
C3 0.0523(12) 0.0347(11) 0.0321(9) 0.0037(8) -0.0012(8) -0.0101(9)
C4 0.0297(9) 0.0497(12) 0.0340(9) 0.0047(8) 0.0040(7) 0.0038(8)
C5 0.0541(12) 0.0322(11) 0.0392(10) -0.0048(8) -0.0074(8) 0.0107(9)
C6 0.0423(12) 0.0468(13) 0.0626(14) 0.0260(11) -0.0215(10) -0.0149(10)
C7 0.0343(19) 0.039(2) 0.042(2) -0.0044(17) 0.0007(15) 0.0009(16)
C8 0.054(3) 0.021(3) 0.035(2) -0.0113(19) -0.0059(18) -0.002(2)
C9 0.040(2) 0.036(2) 0.041(2) -0.0040(17) -0.0034(16) -0.0053(18)
C10 0.031(3) 0.041(5) 0.030(3) -0.004(3) -0.001(2) 0.004(3)
O1 0.033(2) 0.034(2) 0.0343(19) -0.0002(14) 0.0074(14) 0.0028(15)
loop_
_atom_type_symbol
_atom_type_description
_atom_type_scat_dispersion_real
_atom_type_scat_dispersion_imag
_atom_type_scat_source
C C 0.0181 0.0091 'International Tables Vol C Tables 4.2.6.8 and 6.1.1.4'
H H 0 0 'International Tables Vol C Tables 4.2.6.8 and 6.1.1.4'
O O 0.0492 0.0322 'International Tables Vol C Tables 4.2.6.8 and 6.1.1.4'
loop_
_geom_angle_atom_site_label_1
_geom_angle_atom_site_label_2
_geom_angle_atom_site_label_3
_geom_angle
_geom_angle_site_symmetry_1
_geom_angle_site_symmetry_3
C2 C1 O1 111.7(3) . .
C2 C1 C6 120.88(19) . .
O1 C1 C6 127.3(3) . .
C2 C1 C10 137.8(3) . .
O1 C1 C10 26.2(2) . .
C6 C1 C10 101.4(3) . .
C2 C1 C7 167.9(2) . .
O1 C1 C7 79.4(2) . .
C6 C1 C7 47.93(17) . .
C10 C1 C7 53.7(3) . .
C3 C2 C1 118.8(2) . .
C3 C2 H2 120.6 . .
C1 C2 H2 120.6 . .
C2 C3 C4 120.8(2) . .
C2 C3 H3 119.6 . .
C4 C3 H3 119.6 . .
C5 C4 C3 120.92(18) . .
C5 C4 H4 119.5 . .
C3 C4 H4 119.5 . .
C4 C5 C6 118.99(19) . .
C4 C5 H5 120.5 . .
C6 C5 H5 120.5 . .
C5 C6 C1 119.6(2) . .
C5 C6 H6 120.2 . .
C1 C6 H6 120.2 . .
C8 C7 C1 73.1(3) . .
C8 C7 H7 121.8 . .
C1 C7 H7 164.9 . .
C7 C8 O1 110.1(5) . .
C7 C8 C9 134.9(5) . 3_557
O1 C8 C9 114.9(5) . 3_557
C7 C8 C9 147.1(5) . .
O1 C8 C9 37.1(3) . .
C9 C8 C9 77.9(3) 3_557 .
C10 C9 C8 122.3(4) . 3_557
C10 C9 C8 20.5(3) . .
C8 C9 C8 102.1(3) 3_557 .
C10 C9 C10 103.7(3) . 3_557
C8 C9 C10 18.9(2) 3_557 3_557
C8 C9 C10 83.3(3) . 3_557
C10 C9 H9 118.9 . .
C8 C9 H9 118.9 3_557 .
C8 C9 H9 138.8 . .
C10 C9 H9 137.3 3_557 .
C9 C10 C1 113.9(6) . .
C9 C10 C9 76.3(3) . 3_557
C1 C10 C9 167.7(5) . 3_557
C9 C10 H10 123.1 . .
C1 C10 H10 123.1 . .
C9 C10 H10 47.2 3_557 .
C8 O1 C1 97.3(4) . .
loop_
_geom_bond_atom_site_label_1
_geom_bond_atom_site_label_2
_geom_bond_distance
_geom_bond_site_symmetry_2
C1 C2 1.379(4) .
C1 O1 1.387(4) .
C1 C6 1.388(4) .
C1 C10 1.570(6) .
C1 C7 2.022(5) .
C2 C3 1.367(3) .
C2 H2 0.93 .
C3 C4 1.374(3) .
C3 H3 0.93 .
C4 C5 1.372(3) .
C4 H4 0.93 .
C5 C6 1.384(3) .
C5 H5 0.93 .
C6 H6 0.93 .
C7 C8 1.343(7) .
C7 H7 0.9302 .
C8 O1 1.379(5) .
C8 C9 1.446(7) 3_557
C8 C9 1.803(6) .
C9 C10 1.366(7) .
C9 C8 1.446(7) 3_557
C9 C10 1.899(7) 3_557
C9 H9 0.93 .
C10 C9 1.899(7) 3_557
C10 H10 0.93 .
