#------------------------------------------------------------------------------
#$Date: 2019-11-24 20:56:17 +0200 (Sun, 24 Nov 2019) $
#$Revision: 239395 $
#$URL: file:///home/coder/svn-repositories/cod/cif/4/51/65/4516594.cif $
#------------------------------------------------------------------------------
#
# This file is available in the Crystallography Open Database (COD),
# http://www.crystallography.net/
#
# All data on this site have been placed in the public domain by the
# contributors.
#
data_4516594
loop_
_publ_author_name
'Yoo, Dongho'
'Luo, Xuyi'
'Hasegawa, Tsukasa'
'Ashizawa, Minoru'
'Kawamoto, Tadashi'
'Masunaga, Hiroyasu'
'Ohta, Noboru'
'Matsumoto, Hidetoshi'
'Mei, Jianguo'
'Mori, Takehiko'
_publ_section_title
;
 n-Type Organic Field-Effect Transistors Based on Bisthienoisatin
 Derivatives
;
_journal_issue                   5
_journal_name_full               'ACS Applied Electronic Materials'
_journal_page_first              764
_journal_paper_doi               10.1021/acsaelm.9b00105
_journal_volume                  1
_journal_year                    2019
_chemical_formula_moiety         'C18 H16 N2 O4 S2'
_chemical_formula_sum            'C18 H16 N2 O4 S2'
_chemical_formula_weight         388.46
_space_group_crystal_system      triclinic
_space_group_IT_number           2
_space_group_name_Hall           '-P 1'
_space_group_name_H-M_alt        'P -1'
_atom_sites_solution_hydrogens   geom
_atom_sites_solution_primary     direct
_atom_sites_solution_secondary   difmap
_cell_angle_alpha                102.765(3)
_cell_angle_beta                 92.376(2)
_cell_angle_gamma                106.291(3)
_cell_formula_units_Z            1
_cell_length_a                   4.96243(19)
_cell_length_b                   7.6511(3)
_cell_length_c                   12.2057(5)
_cell_measurement_reflns_used    3209
_cell_measurement_temperature    212
_cell_measurement_theta_max      68.24
_cell_measurement_theta_min      3.73
_cell_volume                     431.17(3)
_computing_cell_refinement       'RAPID AUTO'
_computing_data_collection       'RAPID AUTO (Rigaku, ????)'
_computing_data_reduction        'RAPID AUTO'
_computing_molecular_graphics    'CrystalStructure 4.2.2'
_computing_publication_material  'CrystalStructure 4.2.2 (Rigaku, 2016)'
_computing_structure_refinement  'SHELXL Version 2016/6 (Sheldrick, 2008)'
_computing_structure_solution    'SHELXT Version 2014/5 (Sheldrick, 2014)'
_diffrn_ambient_temperature      212
_diffrn_detector_area_resol_mean 10.000
_diffrn_measured_fraction_theta_full 0.986
_diffrn_measured_fraction_theta_max 0.984
_diffrn_measurement_device_type  'Rigaku R-AXIS RAPID'
_diffrn_measurement_method       \w
_diffrn_radiation_type           'Cu K\a'
_diffrn_radiation_wavelength     1.54187
_diffrn_reflns_av_R_equivalents  0.0890
_diffrn_reflns_Laue_measured_fraction_full 0.986
_diffrn_reflns_Laue_measured_fraction_max 0.984
_diffrn_reflns_limit_h_max       5
_diffrn_reflns_limit_h_min       -5
_diffrn_reflns_limit_k_max       9
_diffrn_reflns_limit_k_min       -8
_diffrn_reflns_limit_l_max       14
_diffrn_reflns_limit_l_min       -14
_diffrn_reflns_number            5044
_diffrn_reflns_point_group_measured_fraction_full 0.986
_diffrn_reflns_point_group_measured_fraction_max 0.984
_diffrn_reflns_theta_full        67.687
_diffrn_reflns_theta_max         68.242
_diffrn_reflns_theta_min         3.736
_diffrn_standards_number         0
_exptl_absorpt_coefficient_mu    3.045
_exptl_absorpt_correction_T_max  0.941
_exptl_absorpt_correction_T_min  0.668
_exptl_absorpt_correction_type   multi-scan
_exptl_absorpt_process_details   'ABSCOR (Rigaku, 1995)'
_exptl_crystal_colour            black
_exptl_crystal_density_diffrn    1.496
_exptl_crystal_density_method    'not measured'
_exptl_crystal_description       needle
_exptl_crystal_F_000             202.00
_exptl_crystal_size_max          0.310
_exptl_crystal_size_mid          0.090
_exptl_crystal_size_min          0.020
_refine_diff_density_max         0.52
_refine_diff_density_min         -0.31
_refine_ls_extinction_method     none
_refine_ls_goodness_of_fit_ref   0.964
_refine_ls_hydrogen_treatment    constr
_refine_ls_number_parameters     118
_refine_ls_number_reflns         1548
_refine_ls_number_restraints     0
_refine_ls_R_factor_all          0.0736
_refine_ls_R_factor_gt           0.0654
_refine_ls_shift/su_max          0.000
_refine_ls_structure_factor_coef Fsqd
_refine_ls_weighting_details
'w = 1/[\s^2^(Fo^2^)+(0.0813P)^2^] where P=(Fo^2^+2Fc^2^)/3'
_refine_ls_weighting_scheme      calc
_refine_ls_wR_factor_gt          0.1510
_refine_ls_wR_factor_ref         0.1566
_reflns_Friedel_coverage         0.000
_reflns_number_gt                1124
_reflns_number_total             1548
_reflns_threshold_expression     F^2^>2.0\s(F^2^)
_cod_data_source_file            el9b00105_si_002.cif
_cod_data_source_block           BTI-Pr
_cod_database_code               4516594
_shelx_res_file
;
TITL 20181001
    shelxl.res
    created by SHELXL-2016/6 at 16:48:43 on 02-Oct-2018
CELL  1.54187 4.96243 7.65110 12.20567 102.76470 92.37610 106.29120
ZERR  1 0.00019 0.00031 0.00054 0.00290 0.00240 0.00270
LATT 1
SFAC C H O N S
UNIT 18 16 4 2 2
L.S. 30
FMAP 2
PLAN 32
WPDB -2
HTAB
BOND $H
CONF
LIST 4
TEMP -60.7
ACTA
SIZE 0.310 0.090 0.020
WGHT    0.081300
FVAR       2.11413
S1    5    0.447605    0.761997    0.472456    11.00000    0.04880    0.03534 =
         0.05213    0.00942   -0.00981    0.01192
O1    3    0.035531    0.954720    0.312680    11.00000    0.07498    0.04327 =
         0.07007    0.01683   -0.01585    0.02003
O2    3   -0.411349    0.633934    0.171289    11.00000    0.05752    0.06096 =
         0.06095    0.01492   -0.01360    0.02208
N1    4   -0.183509    0.461701    0.253704    11.00000    0.04149    0.03879 =
         0.04463    0.00573   -0.00670    0.01305
C1    1   -0.226639    0.623695    0.233710    11.00000    0.04806    0.05085 =
         0.04608    0.01516    0.00108    0.02036
C2    1    0.010713    0.792952    0.311607    11.00000    0.04960    0.04280 =
         0.04829    0.01391   -0.00217    0.01506
C3    1    0.164696    0.703603    0.371735    11.00000    0.04158    0.03628 =
         0.04941    0.00974   -0.00486    0.01094
C4    1    0.047823    0.512059    0.335572    11.00000    0.03904    0.03644 =
         0.04207    0.00831    0.00444    0.01324
C5    1    0.179554    0.407742    0.386886    11.00000    0.03964    0.03319 =
         0.04271    0.00814    0.00167    0.01299
AFIX  43
H5    2    0.124485    0.275962    0.371102    11.00000   -1.20000
AFIX   0
C6    1    0.404612    0.526355    0.464959    11.00000    0.04212    0.03521 =
         0.04280    0.00935    0.00089    0.01301
C7    1   -0.354726    0.269599    0.198338    11.00000    0.04283    0.04424 =
         0.05220    0.00731   -0.00503    0.00694
AFIX  23
H7A   2   -0.524556    0.274524    0.156728    11.00000   -1.20000
H7B   2   -0.415539    0.201341    0.256473    11.00000   -1.20000
AFIX   0
C8    1   -0.200256    0.162047    0.117362    11.00000    0.05336    0.04176 =
         0.05061    0.00528   -0.00838    0.01398
AFIX  23
H8A   2   -0.326390    0.035265    0.084454    11.00000   -1.20000
H8B   2   -0.036966    0.150166    0.159790    11.00000   -1.20000
AFIX   0
C9    1   -0.098699    0.255216    0.021989    11.00000    0.07430    0.06056 =
         0.05875    0.01195    0.00883    0.02606
AFIX  33
H9A   2   -0.001938    0.180311   -0.026798    11.00000   -1.20000
H9B   2   -0.259616    0.264780   -0.021604    11.00000   -1.20000
H9C   2    0.029981    0.379749    0.053777    11.00000   -1.20000
AFIX   0
HKLF 4




REM  20181001
REM R1 =  0.0654 for    1124 Fo > 4sig(Fo)  and  0.0736 for all    1548 data
REM    118 parameters refined using      0 restraints

END

WGHT      0.0813      0.0000

REM Instructions for potential hydrogen bonds
EQIV $2 x, y-1, z
HTAB C5 O1_$2

REM Highest difference peak  0.520,  deepest hole -0.311,  1-sigma level  0.100
Q1    1   0.4493  0.6494  0.4722  11.00000  0.05    0.52
Q2    1   0.2289  0.6650  0.4183  11.00000  0.05    0.50
Q3    1   0.3670  0.8009  0.4261  11.00000  0.05    0.48
Q4    1   0.6339  0.8553  0.5249  11.00000  0.05    0.44
Q5    1   0.5000  0.5000  0.5000  10.50000  0.05    0.44
Q6    1   0.2164  0.3831  0.4020  11.00000  0.05    0.41
Q7    1   0.5902  0.8550  0.4030  11.00000  0.05    0.41
Q8    1   0.3680  0.4923  0.4427  11.00000  0.05    0.40
Q9    1   0.3274  0.6675  0.5387  11.00000  0.05    0.40
Q10   1  -0.2160  0.5250  0.2221  11.00000  0.05    0.36
Q11   1   0.1051  0.7380  0.3560  11.00000  0.05    0.36
Q12   1   0.1147  0.4757  0.3599  11.00000  0.05    0.36
Q13   1   0.4289  0.8647  0.5407  11.00000  0.05    0.35
Q14   1   0.0544  0.8925  0.3604  11.00000  0.05    0.35
Q15   1  -0.1751  0.3942  0.2620  11.00000  0.05    0.34
Q16   1   0.1029  0.6266  0.3485  11.00000  0.05    0.29
Q17   1   0.0464  1.0553  0.3768  11.00000  0.05    0.29
Q18   1  -0.3364  0.4031  0.2175  11.00000  0.05    0.28
Q19   1  -0.0955  0.7051  0.2770  11.00000  0.05    0.27
Q20   1  -0.3744  0.0623  0.1869  11.00000  0.05    0.26
Q21   1  -0.0411  0.7521  0.2879  11.00000  0.05    0.26
Q22   1  -0.0823  0.8955  0.2826  11.00000  0.05    0.25
Q23   1  -0.5165  0.5850  0.1371  11.00000  0.05    0.25
Q24   1  -0.2403  0.7351  0.2214  11.00000  0.05    0.25
Q25   1   0.6899  0.7660  0.4335  11.00000  0.05    0.25
Q26   1   0.3808  0.3718  0.4778  11.00000  0.05    0.24
Q27   1   0.2204  0.7602  0.5041  11.00000  0.05    0.21
Q28   1  -0.0473  0.5011  0.2797  11.00000  0.05    0.21
Q29   1  -0.0994  0.0929  0.1391  11.00000  0.05    0.21
Q30   1   0.2018  1.0205  0.3805  11.00000  0.05    0.20
Q31   1  -0.2635 -0.0600  0.1984  11.00000  0.05    0.17
Q32   1  -0.1978  0.3414  0.0118  11.00000  0.05    0.16
;
_shelx_res_checksum              65366
_shelx_hkl_file
;
   0   0   1 7741.06  906.94
   0   0   1 6450.28  757.67
   0   0   1 7976.95  925.40
   0   0   1 6709.27  784.60
   0   0  -1 7208.94  836.24
   0   0  -1 6510.47  764.00
   0   0  -1 6515.70  756.59
   0   0  -1 7587.86  887.14
   0   0  -1 6652.12  786.20
   0   0   2  505.39   55.30
   0   0   2  645.53   65.20
   0   0   2  539.80   64.03
   0   0   2  601.92   66.87
   0   0  -2  564.86   54.34
   0   0  -2  548.12   53.01
   0   0  -2  514.21   57.40
   0   0  -2  544.21   56.36
   0   0  -2  549.61   57.03
   0   0   3  204.76   31.17
   0   0   3  177.48   31.72
   0   0   3  216.17   26.11
   0   0   3  199.09   28.51
   0   0  -3  163.17   17.14
   0   0  -3  200.06   20.58
   0   0  -3  181.49   22.69
   0   0  -3  185.62   28.91
   0   0  -3  199.58   25.75
   0   0  -3  164.17   22.87
   0   0   4 1223.60  132.07
   0   0   4  868.78   98.40
   0   0   4 1250.11  129.44
   0   0   4 1271.16  141.43
   0   0  -4 1111.98  127.27
   0   0  -4  996.49  111.03
   0   0  -4 1065.61  108.53
   0   0  -4 1062.65  115.31
   0   0  -4  969.28  100.06
   0   0  -4 1180.66  128.26
   0   0   5  274.07   36.19
   0   0   5  253.59   33.87
   0   0   5  301.14   36.99
   0   0   5  259.84   31.40
   0   0  -5  197.63   21.50
   0   0  -5  238.08   23.59
   0   0  -5  206.05   27.56
   0   0  -5  250.47   35.89
   0   0  -5  243.22   30.41
   0   0  -5  282.46   35.63
   0   0   6 2403.63  276.99
   0   0   6 1427.10  163.16
   0   0   6 2144.05  256.97
   0   0   6 2157.58  250.12
   0   0   6 1888.93  217.47
   0   0  -6 2087.43  246.07
   0   0  -6 1597.86  178.61
   0   0  -6 1979.67  239.21
   0   0  -6 2094.55  241.27
   0   0   7  190.23   28.29
   0   0   7  151.65   31.69
   0   0   7  245.36   47.68
   0   0   7  153.90   30.23
   0   0  -7  164.08   26.04
   0   0  -7  122.54   16.04
   0   0  -7  183.15   35.24
   0   0  -7  198.20   32.71
   0   0   8   55.20   15.01
   0   0   8   48.05   24.37
   0   0  -8   59.86   23.85
   0   0  -8   47.93   16.10
   0   0  -8   36.14   10.18
   0   0  -8   63.23   20.39
   0   0   9   11.97   20.45
   0   0  -9   20.84   14.95
   0   0  -9   26.79   21.79
   0   0  10    0.98   17.24
   0   0 -10    6.55   19.27
   0   0 -10    3.54   10.54
   0   0  11    4.43   19.12
   0   0  11    1.35   17.98
   0   0 -11   19.16   20.81
   0   0  12   27.68   24.14
   0   0 -12   55.64   17.84
   0   0  13   60.13   22.17
   0   0 -13  154.21   28.93
   0   0  14   49.56   18.62
   0   0 -14  220.42   38.51
   0  -1 -13   13.04   15.06
   0   1  13    3.22   17.58
   0  -1 -12  517.53   75.00
   0   1  12  302.49   57.39
   0  -1 -11    2.13   15.76
   0   1  11    0.34    8.86
   0  -1 -10   50.00   17.00
   0  -1 -10   24.94   13.81
   0   1  10   35.63   17.13
   0  -1  -9  426.64   57.92
   0  -1  -9  229.12   31.58
   0   1   9  179.40   36.50
   0  -1  -8 1476.88  179.26
   0  -1  -8  888.67  111.19
   0  -1  -8 1208.23  141.43
   0   1   8 1092.70  156.55
   0  -1  -7 2366.97  286.40
   0  -1  -7 2509.33  316.19
   0  -1  -7 2073.25  247.06
   0  -1  -7 1918.52  233.36
   0   1   7 2540.11  327.16
   0   1   7 2807.69  329.15
   0   1   7 2548.88  327.81
   0  -1  -6  648.13   79.99
   0  -1  -6  641.33   78.52
   0  -1  -6  582.44   71.73
   0  -1  -6  548.03   66.40
   0   1   6  591.67   73.56
   0   1   6  648.24   87.61
   0   1   6  700.59   86.10
   0   1   6  772.07   91.54
   0  -1  -5  506.97   56.37
   0  -1  -5  536.67   63.94
   0  -1  -5  471.27   45.05
   0  -1  -5  611.19   71.47
   0  -1  -5  493.91   53.38
   0   1   5  391.13   39.69
   0   1   5  603.47   69.67
   0   1   5  513.50   60.97
   0   1   5  648.02   81.82
   0   1   5  534.60   57.74
   0  -1  -4  886.00  108.72
   0  -1  -4  913.60   99.02
   0  -1  -4  890.18   98.30
   0  -1  -4  904.06   89.95
   0  -1  -4  927.31  103.40
   0   1   4  962.72  106.30
   0   1   4 1170.29  136.33
   0   1   4  896.02  110.37
   0   1   4  777.37   80.14
   0   1   4  962.95  103.07
   0  -1  -3  533.76   61.89
   0  -1  -3  522.92   61.91
   0  -1  -3  670.01   65.11
   0  -1  -3  543.07   56.90
   0   1   3  564.04   68.48
   0   1   3  550.01   63.49
   0   1   3  582.10   61.23
   0   1   3  684.62   83.39
   0   1   3  680.90   68.61
   0   1   3  595.92   63.04
   0  -1  -2 2128.66  228.33
   0  -1  -2 1983.75  220.01
   0  -1  -2 2540.55  268.35
   0  -1  -2 2139.32  231.71
   0   1   2 2105.98  230.88
   0   1   2 2434.15  262.93
   0   1   2 2529.38  276.15
   0   1   2 2139.95  245.55
   0   1   2 1794.06  190.97
   0   1   2 1993.77  223.47
   0  -1  -1 4221.04  467.11
   0  -1  -1 3788.37  424.16
   0  -1  -1 3806.56  429.12
   0  -1  -1 3952.29  442.47
   0   1   1 4181.69  473.88
   0   1   1 3602.04  403.23
   0   1   1 3299.91  369.15
   0   1   1 3538.04  406.84
   0  -1   0 7267.76  852.87
   0  -1   0 7282.41  859.12
   0  -1   0 7514.96  891.92
   0  -1   0 6575.15  776.72
   0  -1   0 6739.28  808.33
   0   1   0 6815.22  803.22
   0   1   0 7252.94  857.96
   0   1   0 8484.82 1007.94
   0   1   0 7055.86  840.21
   0  -1   1    8.89    5.09
   0  -1   1    7.30    3.15
   0  -1   1    6.25    5.14
   0  -1   1    8.28    8.63
   0  -1   1    6.89    6.31
   0   1  -1   12.22    9.83
   0   1  -1    7.55    9.12
   0   1  -1    7.99    7.46
   0   1  -1    9.29    4.50
   0   1  -1   12.48    7.34
   0  -1   2 7685.74  915.31
   0  -1   2 8509.14 1023.03
   0  -1   2 8270.75 1003.16
   0  -1   2 7715.93  923.13
   0  -1   2 7264.96  874.20
   0  -1   2 7841.99  947.64
   0   1  -2 8413.69 1015.23
   0   1  -2 8215.64  979.62
   0   1  -2 7818.38  950.78
   0   1  -2 8591.92 1051.49
   0  -1   3  393.96   45.66
   0  -1   3  363.67   42.67
   0  -1   3  382.94   46.15
   0  -1   3  404.64   51.08
   0   1  -3  261.27   34.97
   0   1  -3  324.25   34.69
   0   1  -3  389.70   41.11
   0   1  -3  431.92   49.09
   0  -1   4   23.00    8.18
   0  -1   4   27.03   13.13
   0  -1   4   27.55   11.96
   0  -1   4   25.29   10.85
   0   1  -4   27.98    8.78
   0   1  -4   29.62   11.26
   0   1  -4   25.06    6.09
   0   1  -4   27.21   11.47
   0   1  -4   25.03   12.52
   0  -1   5 3857.56  452.40
   0  -1   5 3181.69  373.74
   0  -1   5 3459.94  404.39
   0  -1   5 3474.49  408.46
   0   1  -5 3582.56  424.75
   0   1  -5 3038.93  338.96
   0   1  -5 2697.32  322.49
   0   1  -5 2967.03  339.90
   0   1  -5 3355.15  386.78
   0  -1   6 2346.46  273.65
   0  -1   6 2412.32  286.72
   0  -1   6 2836.40  334.20
   0  -1   6 2391.00  282.35
   0   1  -6 2483.93  299.62
   0   1  -6 1845.32  207.38
   0   1  -6 2462.99  290.21
   0   1  -6 2300.06  268.21
   0   1  -6 2123.47  245.62
   0  -1   7  506.27   68.88
   0  -1   7  698.16   79.64
   0  -1   7  583.81   70.65
   0  -1   7  480.62   60.68
   0   1  -7  524.89   67.41
   0   1  -7  561.05   63.20
   0   1  -7  506.80   55.69
   0   1  -7  614.53   81.05
   0   1  -7  624.72   79.31
   0  -1   8  160.34   28.10
   0  -1   8  181.95   40.24
   0  -1   8  139.63   32.20
   0  -1   8   74.45   15.78
   0   1  -8  153.79   31.00
   0   1  -8  131.98   29.50
   0  -1   9   59.08   19.11
   0   1  -9  127.62   25.00
   0   1  -9  118.40   22.57
   0   1 -10 1552.14  202.36
   0   1 -10 1516.73  198.27
   0  -1  11   29.51   26.95
   0   1 -11  159.48   40.11
   0   1 -11  113.47   29.37
   0  -1  12   65.57   29.77
   0   1 -12  200.46   44.90
   0   1 -12  119.50   22.82
   0  -1  13   23.28   12.91
   0   1 -13  112.48   30.19
   0  -1  14    0.04   10.41
   0   1 -14   15.16    9.35
   0  -2 -13    3.73    7.09
   0   2  13   -0.04   14.26
   0  -2 -12   22.19   14.60
   0  -2 -12   55.70   23.47
   0   2  12   32.26   17.35
   0  -2 -11    0.29    6.53
   0  -2 -11    0.62    7.95
   0   2  11    0.12   16.10
   0  -2 -10   65.84   26.45
   0  -2 -10  103.02   24.87
   0   2  10   73.49   26.45
   0  -2  -9    4.46   18.41
   0  -2  -9    1.20   11.74
   0   2   9    2.51   10.95
   0  -2  -8    0.10   10.04
   0  -2  -8    2.60    9.74
   0   2   8    0.87   15.75
   0  -2  -7  104.93   24.54
   0  -2  -7  122.40   31.00
   0  -2  -7  111.87   16.96
   0   2   7  102.15   22.80
   0   2   7  116.71   16.47
   0  -2  -6  492.28   58.73
   0  -2  -6  557.95   67.12
   0  -2  -6  485.27   59.91
   0  -2  -6  523.21   65.75
   0   2   6  516.54   74.84
   0   2   6  479.57   71.59
   0   2   6  548.03   65.08
   0   2   6  559.87   70.43
   0  -2  -5   11.23    8.86
   0  -2  -5   11.02    6.53
   0  -2  -5   10.29    8.04
   0  -2  -5   10.70   10.49
   0   2   5   13.22    8.58
   0   2   5   11.42    8.62
   0   2   5   11.67    9.14
   0   2   5   13.83   16.52
   0  -2  -4   93.91   19.11
   0  -2  -4   83.15   12.00
   0  -2  -4  100.55   14.68
   0  -2  -4   78.56    7.54
   0  -2  -4   86.30   22.82
   0   2   4   87.82   15.45
   0   2   4   83.79   11.79
   0   2   4   94.85   25.40
   0   2   4   99.09   17.40
   0  -2  -3 1680.03  191.52
   0  -2  -3 1455.06  160.84
   0  -2  -3 1616.71  169.43
   0  -2  -3 1687.55  185.18
   0   2   3 1706.08  199.57
   0   2   3 1534.69  182.31
   0   2   3 1681.70  189.10
   0   2   3 1509.61  170.93
   0  -2  -214208.16 1822.93
   0  -2  -214706.61 1904.28
   0  -2  -213648.87 1771.55
   0  -2  -213539.12 1762.29
   0   2   215205.29 1983.74
   0   2   213970.70 1813.51
   0   2   212902.90 1692.91
   0   2   212730.23 1646.11
   0  -2  -1  386.19   49.64
   0  -2  -1  314.10   35.51
   0  -2  -1  274.97   35.27
   0  -2  -1  282.54   31.38
   0   2   1  269.85   34.59
   0   2   1  269.96   28.72
   0   2   1  335.13   39.49
   0   2   1  232.92   36.46
   0  -2   0 2621.67  307.52
   0  -2   0 3447.30  389.36
   0  -2   0 3037.44  347.24
   0  -2   0 3544.47  401.59
   0  -2   0 3477.23  389.93
   0   2   0 3581.43  409.53
   0   2   0 4235.69  477.31
   0   2   0 2861.69  335.05
   0   2   0 2747.44  304.28
   0  -2   1  107.82   18.94
   0  -2   1  108.72   18.45
   0  -2   1   82.15   14.99
   0  -2   1   88.16   10.98
   0  -2   1   89.46   11.54
   0   2  -1   93.80   12.70
   0   2  -1   95.98   19.96
   0   2  -1  103.42   20.22
   0   2  -1  111.64   17.52
   0   2  -1   93.55   16.70
   0  -2   2   47.20   10.84
   0  -2   2   49.51    8.85
   0  -2   2   55.38   11.14
   0  -2   2   47.31    7.79
   0   2  -2   44.41    6.55
   0   2  -2   45.02    9.97
   0   2  -2   58.08   15.37
   0   2  -2   51.59   20.76
   0   2  -2   45.92   11.26
   0   2  -2   56.06   18.28
   0  -2   3 3546.79  401.60
   0  -2   3 2679.86  293.03
   0  -2   3 2679.93  296.97
   0  -2   3 2645.49  292.23
   0  -2   3 3216.48  364.22
   0   2  -3 2657.52  300.70
   0   2  -3 2595.64  303.13
   0   2  -3 2642.24  286.16
   0   2  -3 2671.05  301.68
   0   2  -3 2957.28  348.89
   0  -2   4 4452.33  536.17
   0  -2   4 2973.49  346.48
   0  -2   4 3778.79  442.17
   0  -2   4 3924.79  465.20
   0   2  -4 3129.26  359.06
   0   2  -4 3778.93  454.56
   0   2  -4 3299.68  384.23
   0   2  -4 3188.88  356.37
   0  -2   5  880.01   99.80
   0  -2   5 1052.77  115.99
   0  -2   5 1034.34  120.10
   0  -2   5  755.86   84.89
   0   2  -5  821.02   85.80
   0   2  -5  937.68  106.92
   0   2  -5  676.90   68.55
   0   2  -5  914.54  104.15
   0   2  -5  955.39  119.81
   0  -2   6  670.17   77.71
   0  -2   6  510.48   67.07
   0  -2   6  690.76   93.93
   0  -2   6  606.58   73.71
   0   2  -6  547.86   61.67
   0   2  -6  618.70   75.01
   0   2  -6  454.09   46.10
   0   2  -6  547.22   57.67
   0   2  -6  701.94   91.21
   0  -2   7   32.42   11.96
   0  -2   7   20.56    8.91
   0  -2   7   23.11   13.87
   0  -2   7   26.54   13.80
   0   2  -7   32.14   12.23
   0   2  -7   32.33   13.46
   0   2  -7   27.67   13.26
   0  -2   8   98.06   23.10
   0  -2   8  110.43   24.72
   0   2  -8  107.53   17.49
   0   2  -8  151.11   35.39
   0   2  -8  137.26   30.91
   0  -2   9   91.01   23.54
   0   2  -9  165.24   36.92
   0   2  -9  179.67   39.13
   0  -2  10   16.95   12.72
   0   2 -10   79.85   20.54
   0   2 -10   74.12   18.77
   0   2 -11  220.89   50.99
   0   2 -11  183.19   43.93
   0   2 -12  325.55   53.57
   0   2 -12  436.52   66.05
   0  -2  13    1.09   11.28
   0   2 -13    9.43   12.99
   0   2 -13   19.03   17.86
   0   2 -14    1.30    4.80
   0   2 -14    9.74   11.91
   0  -3 -12   86.86   22.07
   0   3  12   87.69   23.79
   0  -3 -11   46.61   23.68
   0  -3 -11   64.99   25.14
   0   3  11   62.85   24.45
   0  -3 -10  451.97   81.70
   0  -3 -10  562.28   89.74
   0   3  10  408.70   72.52
   0  -3  -9  743.81  121.33
   0  -3  -9  928.06  126.70
   0   3   9  651.39  104.57
   0  -3  -8   65.82   21.76
   0  -3  -8   78.50   31.64
   0   3   8   59.01   36.42
   0  -3  -7    1.06    9.12
   0  -3  -7    1.03    7.87
   0   3   7    1.04   10.57
   0  -3  -6  448.20   67.76
   0  -3  -6  464.78   63.10
   0   3   6  399.10   71.82
   0  -3  -5  158.07   25.17
   0  -3  -5  138.20   22.39
   0  -3  -5  159.94   27.19
   0   3   5  158.13   24.38
   0   3   5  142.49   37.78
   0  -3  -4   20.02    9.47
   0  -3  -4   16.56   16.91
   0  -3  -4   12.94    5.58
   0  -3  -4   15.37    8.02
   0   3   4   15.14   11.56
   0   3   4   14.98   10.94
   0   3   4   13.93    8.05
   0  -3  -3  687.21   82.40
   0  -3  -3  722.92   82.65
   0  -3  -3  549.09   64.35
   0   3   3  679.28   76.49
   0   3   3  681.23   82.70
   0   3   3  707.12   85.02
   0   3   3  662.82   76.67
   0  -3  -2  335.95   34.65
   0  -3  -2  357.26   40.12
   0  -3  -2  342.62   43.13
   0  -3  -2  414.83   47.79
   0  -3  -2  388.13   42.72
   0   3   2  355.79   40.10
   0   3   2  357.98   45.30
   0   3   2  338.04   37.87
   0   3   2  409.19   50.29
   0  -3  -1  731.39   84.00
   0  -3  -1  654.03   70.80
   0  -3  -1  703.82   74.68
   0  -3  -1  616.88   64.60
   0  -3  -1  752.85   82.04
   0  -3  -1  604.84   70.37
   0   3   1  623.39   66.20
   0   3   1  567.30   66.36
   0   3   1  639.50   70.06
   0   3   1  777.04   94.34
   0  -3   0  167.99   23.60
   0  -3   0  179.76   22.91
   0  -3   0  127.21   19.89
   0  -3   0  147.86   18.79
   0  -3   0  175.34   21.50
   0   3   0  184.64   31.07
   0   3   0  137.86   15.85
   0   3   0  156.54   20.56
   0   3   0  124.24   25.81
   0  -3   1   79.65   10.48
   0  -3   1   86.71   15.59
   0  -3   1   86.42   17.12
   0  -3   1   94.65   17.71
   0  -3   1   90.91   15.98
   0   3  -1   89.17   14.74
   0   3  -1   80.26   11.59
   0   3  -1   89.95   24.32
   0   3  -1   94.38   19.30
   0   3  -1  108.07   23.89
   0  -3   2 5005.88  585.59
   0  -3   2 4913.30  581.20
   0  -3   2 5886.38  697.70
   0  -3   2 5275.99  620.13
   0   3  -2 4691.75  574.11
   0   3  -2 4079.67  490.74
   0   3  -2 5118.79  614.38
   0   3  -2 4975.90  575.57
   0   3  -2 5049.75  601.09
   0   3  -2 5050.98  604.77
   0  -3   3 1879.72  206.28
   0  -3   3 1897.13  208.45
   0  -3   3 1812.79  198.85
   0  -3   3 2127.71  235.27
   0   3  -3 1639.34  193.19
   0   3  -3 1665.20  187.82
   0   3  -3 1796.50  190.13
   0   3  -3 1678.03  189.86
   0   3  -3 1928.41  217.92
   0   3  -3 1860.51  211.37
   0  -3   4  664.73   75.63
   0  -3   4  638.37   69.72
   0  -3   4  742.95   82.93
   0  -3   4  455.27   47.07
   0   3  -4  714.82   84.42
   0   3  -4  603.88   58.73
   0   3  -4  605.95   75.77
   0   3  -4  586.09   65.73
   0   3  -4  697.45   79.22
   0   3  -4  614.34   69.47
   0  -3   5 3995.56  476.84
   0  -3   5 3876.80  466.16
   0   3  -5 3985.82  492.13
   0   3  -5 4830.03  583.13
   0   3  -5 3586.36  441.24
   0   3  -5 4953.37  611.20
   0   3  -5 3967.88  476.54
   0  -3   6  296.07   44.11
   0  -3   6  385.47   45.46
   0   3  -6  422.91   55.87
   0   3  -6  374.14   47.81
   0   3  -6  407.15   52.60
   0  -3   7  190.56   36.72
   0  -3   7  205.71   34.58
   0  -3   7  199.67   31.82
   0   3  -7  189.12   28.88
   0   3  -7  256.35   47.76
   0   3  -7  177.04   31.18
   0   3  -7  199.62   33.08
   0  -3   8  390.64   53.60
   0  -3   8  457.94   58.25
   0   3  -8  564.45   74.44
   0   3  -8  436.20   54.02
   0   3  -8  584.11   85.75
   0  -3   9   64.37   26.49
   0   3  -9   63.43   19.25
   0   3  -9   74.13   21.58
   0   3  -9   50.82   16.13
   0  -3  10  175.17   31.31
   0   3 -10  349.48   61.79
   0   3 -10  333.71   61.19
   0   3 -11  190.84   37.39
   0   3 -11  195.08   35.43
   0   3 -12  194.06   47.16
   0   3 -12  150.86   40.97
   0   3 -13   45.66   17.40
   0   3 -13   64.05   18.74
   0   3 -14    0.07    7.83
   0   3 -14    0.94    5.69
   0  -4 -11    5.46    7.16
   0  -4 -11    6.84    6.36
   0   4  11   -0.05   17.02
   0  -4 -10    1.66   12.18
   0  -4 -10    2.45   14.19
   0   4  10   -0.04   11.15
   0  -4  -9   57.70   26.91
   0  -4  -9   51.75   31.98
   0   4   9   50.19   36.91
   0  -4  -8   34.42   31.58
   0  -4  -8   35.05   17.16
   0   4   8   32.33   36.26
   0  -4  -7  851.38  123.11
   0  -4  -7  859.32  126.34
   0   4   7  668.64  117.02
   0  -4  -6  826.95  125.33
   0  -4  -6  809.13  117.46
   0   4   6  645.87   97.46
   0  -4  -5 1104.08  150.03
   0  -4  -5 1143.47  148.77
   0   4   5  908.50  126.51
   0  -4  -4 1704.17  219.74
   0  -4  -4 1874.37  231.81
   0   4   4 1409.30  184.33
   0  -4  -3    3.45    8.49
   0  -4  -3    1.25    3.87
   0  -4  -3    2.83    8.37
   0   4   3    1.58    6.56
   0   4   3    2.44   16.42
   0  -4  -2  629.32   75.99
   0  -4  -2  568.12   70.44
   0  -4  -2  506.57   63.58
   0   4   2  567.24   83.04
   0   4   2  517.22   60.05
   0   4   2  576.74   79.73
   0   4   2  470.81   60.34
   0  -4  -1  435.97   53.80
   0  -4  -1  350.88   39.44
   0  -4  -1  517.44   67.13
   0  -4  -1  392.84   47.15
   0   4   1  340.90   42.01
   0   4   1  325.07   39.01
   0   4   1  459.42   56.87
   0   4   1  401.92   58.03
   0   4   1  377.76   42.08
   0  -4   0 2711.11  312.91
   0  -4   0 2979.22  351.60
   0  -4   0 2610.93  301.91
   0  -4   0 3201.40  380.34
   0  -4   0 2661.92  302.54
   0   4   0 2173.15  257.91
   0   4   0 2342.55  268.00
   0   4   0 2465.91  297.69
   0   4   0 2191.09  263.22
   0   4   0 2942.91  341.59
   0  -4   1 5429.18  661.80
   0  -4   1 5029.74  608.34
   0  -4   1 5054.58  616.95
   0  -4   1 5657.77  692.21
   0  -4   1 5973.71  717.79
   0   4  -1 5425.42  670.26
   0   4  -1 5670.32  691.05
   0   4  -1 5352.36  659.14
   0   4  -1 5388.86  666.97
   0   4  -1 4482.69  538.68
   0  -4   2 1400.36  163.23
   0  -4   2 1706.52  191.78
   0  -4   2 1492.62  168.81
   0  -4   2 1423.19  157.95
   0   4  -2 1582.51  195.63
   0   4  -2 1190.37  130.44
   0   4  -2 1473.65  177.10
   0   4  -2 1602.93  181.97
   0   4  -2 1621.78  196.22
   0   4  -2 1525.07  175.07
   0  -4   3   85.91   14.47
   0  -4   3   78.33   16.53
   0  -4   3   84.98   13.51
   0  -4   3   76.25   13.25
   0   4  -3   95.69   19.82
   0   4  -3   54.36    6.48
   0   4  -3   77.72   14.46
   0   4  -3   86.85   16.18
   0   4  -3   86.50   26.99
   0   4  -3   85.75   16.52
   0  -4   4  616.77   70.57
   0  -4   4  681.64   77.97
   0   4  -4  596.05   68.72
   0   4  -4  685.62   87.42
   0   4  -4  742.62   96.15
   0   4  -4  685.86   92.51
   0   4  -4  692.09   88.94
   0  -4   5  241.36   36.46
   0  -4   5  261.49   33.75
   0  -4   5  227.64   31.57
   0   4  -5  259.15   44.15
   0   4  -5  268.16   40.09
   0   4  -5  247.90   40.69
   0   4  -5  230.23   32.79
   0   4  -5  219.84   28.58
   0  -4   6  240.77   33.86
   0   4  -6  353.19   58.41
   0   4  -6  227.54   36.80
   0  -4   7  302.61   45.16
   0   4  -7  378.50   65.95
   0  -4   8  320.29   58.93
   0   4  -8  422.21   64.10
   0   4  -8  428.77   62.83
   0  -4   9  105.84   38.38
   0   4  -9  102.35   37.75
   0   4  -9  113.29   39.98
   0  -4  10    8.51   11.58
   0   4 -10   15.66   15.42
   0   4 -10   12.35   23.95
   0  -4  11   63.27   29.96
   0   4 -11   90.42   26.00
   0   4 -11  100.88   35.33
   0   4 -12  116.22   33.94
   0   4 -12  103.24   36.05
   0   4 -13   26.45   15.49
   0   4 -13   28.60   13.42
   0   4 -14   96.80   26.91
   0   4 -14   63.89   19.31
   0  -5  -9   29.75   17.83
   0  -5  -9   25.89   20.73
   0   5   9   23.93   14.56
   0  -5  -8  323.31   57.29
   0  -5  -8  260.39   57.91
   0   5   8  283.56   63.25
   0  -5  -7  383.64   64.15
   0  -5  -7  448.99   65.45
   0   5   7  383.53   65.59
   0  -5  -6  910.19  129.68
   0  -5  -6 1032.80  135.79
   0   5   6  865.57  142.25
   0  -5  -5    1.13    9.76
   0  -5  -5    0.67   11.13
   0   5   5    0.52   18.24
   0  -5  -4   26.89   15.45
   0  -5  -4   20.78   25.98
   0   5   4   20.91   25.52
   0  -5  -3  175.77   32.77
   0  -5  -3  211.86   45.18
   0   5   3  164.53   31.93
   0  -5  -2  344.43   48.90
   0  -5  -2  281.68   42.18
   0   5   2  248.30   38.47
   0  -5  -1   27.67   23.37
   0  -5  -1   16.02   14.81
   0   5   1   14.90   11.35
   0   5   1   17.58   10.27
   0  -5   0   83.65   20.64
   0  -5   0  109.28   27.53
   0  -5   0   84.57   14.54
   0  -5   0   62.01   12.41
   0   5   0   68.34   17.24
   0   5   0   74.82   11.73
   0   5   0   77.71   20.74
   0   5   0   76.28   13.70
   0  -5   1    0.40    3.56
   0  -5   1    1.30    4.80
   0  -5   1    1.46    3.47
   0  -5   1    1.42    8.07
   0   5  -1    0.47    5.59
   0   5  -1    0.92    2.66
   0   5  -1    1.83    5.29
   0   5  -1    1.43   12.11
   0   5  -1    1.46    9.02
   0  -5   2  496.07   58.69
   0  -5   2  537.18   66.40
   0   5  -2  780.53  106.72
   0   5  -2  580.25   75.41
   0   5  -2  607.33   80.36
   0  -5   3 1189.70  144.47
   0   5  -3  963.54  125.94
   0   5  -3 1069.04  126.72
   0  -5   4    1.07    6.30
   0   5  -4    1.01    6.98
   0   5  -4    2.05   15.29
   0  -5   5  140.18   24.08
   0   5  -5  130.32   29.17
   0   5  -5  150.03   25.54
   0  -5   6 1747.93  235.61
   0   5  -6 2271.72  302.66
   0   5  -6 1945.34  259.68
   0  -5   7  377.62   68.01
   0   5  -7  395.30   69.89
   0   5  -7  441.35   66.61
   0  -5   8  635.31  102.48
   0   5  -8  802.46  120.38
   0   5  -8  780.84  124.75
   0  -5   9  209.51   56.52
   0   5  -9  201.29   41.64
   0   5  -9  224.93   41.97
   0  -5  10  207.16   40.85
   0   5 -10  314.02   65.85
   0   5 -10  252.13   47.13
   0  -5  11  438.24   80.60
   0   5 -11  643.20  114.06
   0   5 -11  672.74   96.58
   0  -5  12  106.22   26.29
   0   5 -12  159.33   33.85
   0   5 -12  186.23   41.05
   0   5 -13   26.46   17.75
   0   5 -13   21.36   21.27
   0  -6  -8   15.32   10.14
   0   6   8    7.23   12.14
   0  -6  -7  106.98   23.05
   0  -6  -7  142.61   24.19
   0   6   7   66.01   19.18
   0  -6  -6  185.56   43.80
   0  -6  -6  117.12   35.73
   0  -6  -5   29.84   25.45
   0  -6  -5   17.32   13.60
   0   6   5   18.50   20.79
   0  -6  -4  237.16   39.63
   0  -6  -4  406.19   70.11
   0   6   4  215.83   46.87
   0  -6  -3   21.40   25.24
   0  -6  -3   11.60   11.22
   0   6   3    3.81   16.12
   0  -6  -2  167.91   29.93
   0  -6  -2  119.78   31.50
   0   6   2   68.09   26.96
   0  -6  -1 1011.99  127.71
   0   6   1 1176.35  166.83
   0  -6   0  220.61   41.47
   0   6   0  363.40   81.00
   0  -6   1   23.37    7.74
   0   6  -1   41.06   32.83
   0   6  -1   27.91   14.39
   0  -6   2  394.73   50.03
   0   6  -2  422.29   59.88
   0   6  -2  691.83  104.25
   0  -6   3  592.49   74.75
   0   6  -3  672.01   85.51
   0   6  -3  937.35  132.13
   0  -6   4  235.55   41.19
   0   6  -4  248.07   44.52
   0   6  -4  233.49   35.13
   0  -6   5  121.44   25.62
   0   6  -5  120.31   25.86
   0   6  -5  159.40   34.04
   0  -6   6   48.06   26.66
   0   6  -6   68.82   36.76
   0   6  -6   41.71   16.48
   0  -6   7   51.17   19.26
   0   6  -7   49.53   22.19
   0   6  -7   48.67   19.95
   0  -6   8    1.60   10.63
   0   6  -8    2.74   11.74
   0   6  -8    2.81   12.15
   0  -6   9  107.63   31.59
   0   6  -9  123.28   40.66
   0   6  -9  101.55   28.19
   0  -6  10   61.05   22.01
   0   6 -10   67.84   34.87
   0   6 -10   88.44   36.88
   0  -6  11    7.23   21.71
   0   6 -11   15.04   25.98
   0   6 -11   17.18   13.62
   0  -6  12  145.09   30.75
   0   6 -12  150.52   32.65
   0   6 -12  185.45   38.53
   0  -7  -5    0.94    6.62
   0   7   5    0.78   14.25
   0  -7  -4   -0.03   10.61
   0   7   4    0.73    9.23
   0  -7  -3   20.93   18.12
   0   7   3   22.76   18.30
   0  -7  -2   76.91   18.58
   0   7   2  109.84   42.10
   0   7   1  139.39   49.52
   0   7   0  189.42   41.04
   0   7  -1  103.59   32.49
   0   7  -2   32.53   19.33
   0  -7   3   16.10   10.27
   0   7  -3   12.32   15.66
   0   7  -3   48.18   33.01
   0  -7   4  585.91   80.30
   0   7  -4  455.70   74.60
   0   7  -4  981.08  147.75
   0  -7   5  776.40  113.59
   0   7  -5  948.75  133.82
   0   7  -5  574.44   79.01
   0  -7   6  617.54   98.17
   0   7  -6  906.61  121.66
   0   7  -6  558.93   79.97
   0  -7   7    8.87   19.16
   0   7  -7    5.41   12.00
   0   7  -7   10.41   25.28
   0  -7   8    1.41   11.45
   0   7  -8    0.89    9.35
   0   7  -8    1.71   18.13
   0  -7   9   88.36   24.77
   0   7  -9   89.01   25.28
   0   7  -9  122.77   27.47
   0  -7  10   15.62   13.56
   0   7 -10   21.62   21.86
   0   7 -10    9.21   13.40
   0  -7  11    4.69   17.86
   0   7 -11    3.70   13.51
   0   7 -11    0.44   15.72
   0   8   2   99.71   23.11
   0   8   1  185.09   33.47
   0   8   0  293.73   56.16
   0   8  -1    7.65   13.17
   0   8  -2  161.57   44.28
   0   8  -3   21.10   25.04
   0  -8   4    0.01    9.03
   0   8  -4    9.07   12.45
   0  -8   5    0.03   12.27
   0   8  -5    0.80    9.31
   0   8  -5    5.21   10.16
   0  -8   6    0.47    7.32
   0   8  -6    0.24   11.26
   0   8  -6   -0.10    3.72
   0  -8   7   22.45   12.15
   0   8  -7   41.10   22.98
   0   8  -7   20.02   15.92
   0  -8   8   67.18   26.62
   0   8  -8   45.65   22.18
   0   8  -8  106.88   30.55
   0  -8   9   50.06   27.90
   0   8  -9   69.60   18.12
   0   8  -9   36.02   22.12
  -1   9  -5  222.03   32.70
  -1   9  -5  437.27   62.70
  -1   9  -4   70.31   18.24
  -1   9  -3   84.78   20.74
  -1   9  -2  489.28   69.85
  -1   9  -1  196.48   29.66
  -1   8  -9  144.83   37.04
  -1   8  -9  107.09   33.67
   1  -8   9  106.95   28.19
  -1   8  -8  343.64   64.41
  -1   8  -8  435.21   62.59
   1  -8   8  336.96   68.82
  -1   8  -7  203.92   46.70
  -1   8  -7  150.50   29.45
   1  -8   7  132.03   31.16
  -1   8  -6   71.39   28.95
  -1   8  -6   47.52   15.50
   1  -8   6   32.26   21.60
  -1   8  -5   36.93   26.29
  -1   8  -5   24.36   20.55
   1  -8   5   11.78   15.93
  -1   8  -4  113.62   33.68
  -1   8  -4   81.60   27.12
   1  -8   4   33.40   19.35
  -1   8  -3   38.79   12.81
  -1   8  -3   77.08   33.19
  -1   8  -2    0.58    8.79
  -1   8  -2    0.20    9.66
  -1   8  -1   14.46    9.35
  -1   8  -1   29.13   24.35
  -1   8   0  149.28   29.50
  -1   8   0   85.47   16.95
  -1   8   1   23.04   20.61
   1  -8  -1   14.98   14.26
  -1   8   2   43.80   21.86
   1  -8  -2   41.84   20.05
   1  -8  -3  245.05   44.22
   1  -8  -4   65.00   21.69
  -1   7 -11   15.62   18.05
  -1   7 -11   10.01   19.24
   1  -7  11   12.60   13.45
  -1   7 -10   64.75   20.70
  -1   7 -10   52.85   30.32
   1  -7  10   52.90   35.50
  -1   7  -9  245.50   58.51
  -1   7  -9  297.93   62.43
   1  -7   9  253.78   51.13
  -1   7  -8    9.88   14.54
  -1   7  -8   13.35   15.61
   1  -7   8    6.95   15.11
  -1   7  -7  257.87   43.20
  -1   7  -7  191.33   35.11
   1  -7   7  185.17   47.73
  -1   7  -6   59.06   22.99
  -1   7  -6   69.84   21.71
   1  -7   6   53.03   19.00
  -1   7  -5   15.50   19.58
  -1   7  -5   20.66   24.54
   1  -7   5   14.03   18.97
  -1   7  -4   90.90   23.09
  -1   7  -4  120.05   42.39
   1  -7   4   66.73   28.63
  -1   7  -3 1274.70  177.71
  -1   7  -3  870.00  114.66
  -1   7  -2 2181.82  293.50
  -1   7  -2 1665.33  212.83
  -1   7  -1  287.25   67.66
  -1   7   0    5.43   15.23
  -1   7   0    1.57    8.52
   1  -7   0    6.84    9.56
  -1   7   1    6.91   21.61
  -1   7   1    1.46   11.76
   1  -7  -1    5.61   10.72
  -1   7   2   24.94   15.35
  -1   7   2   49.28   20.02
   1  -7  -2   71.80   29.44
  -1   7   3   87.71   36.43
   1  -7  -3  121.29   38.06
  -1   7   4   47.58   27.89
   1  -7  -4   68.69   31.72
  -1   7   5    0.06    8.12
   1  -7  -5   -0.08   10.17
   1  -7  -5    0.04   10.32
   1  -7  -6   52.20   18.23
  -1   6 -12    7.75   16.18
  -1   6 -12   12.64   10.18
   1  -6  12    8.61    9.53
  -1   6 -11  133.28   39.37
  -1   6 -11  101.60   27.02
   1  -6  11  110.22   40.73
  -1   6 -10  860.52  118.75
  -1   6 -10  711.05  116.11
   1  -6  10  774.15  117.60
  -1   6  -9  338.86   58.10
  -1   6  -9  389.75   73.29
   1  -6   9  312.00   56.31
  -1   6  -8   17.77   25.23
  -1   6  -8   26.36   18.41
   1  -6   8   16.23   28.17
  -1   6  -7  442.42   75.90
  -1   6  -7  410.56   63.70
   1  -6   7  346.30   68.29
  -1   6  -6   24.54   25.21
  -1   6  -6   17.97   13.18
   1  -6   6   22.67   17.72
  -1   6  -5   49.09   27.46
  -1   6  -5   64.43   22.65
  -1   6  -4  177.38   38.02
  -1   6  -4  149.85   30.78
   1  -6   4  138.43   31.26
  -1   6  -3    3.54   14.73
  -1   6  -3    6.71   17.54
   1  -6   3   -0.03    6.01
  -1   6  -2   16.17   23.78
  -1   6  -2   11.31   15.73
   1  -6   2   -0.01    9.93
   1  -6   2   13.77   13.98
  -1   6  -1  261.57   45.30
  -1   6  -1  356.09   64.20
   1  -6   1  296.48   49.47
  -1   6   0 1082.54  136.31
  -1   6   0 1321.58  182.15
   1  -6   0 1317.79  165.68
  -1   6   1  250.11   39.66
  -1   6   1  224.11   54.25
   1  -6  -1  283.53   56.78
  -1   6   2   44.15   22.50
  -1   6   2   29.08   22.08
   1  -6  -2   52.11   31.92
  -1   6   3  828.56  115.71
   1  -6  -3  930.55  139.07
   1  -6  -3 1003.97  126.38
  -1   6   4  500.46   74.24
   1  -6  -4  626.43   81.73
   1  -6  -4  573.45   95.84
   1  -6  -5    2.18   19.47
   1  -6  -5    2.82    8.05
  -1   6   6   -0.08   12.55
   1  -6  -6   10.92    8.60
   1  -6  -6   13.87   23.45
  -1   6   7   20.93   13.77
  -1   6   7   21.66   16.72
   1  -6  -7   48.20   18.46
   1  -6  -8   74.74   20.91
  -1   5 -13    2.01    7.12
  -1   5 -13   12.38    9.45
   1  -5  13   -0.05    8.81
  -1   5 -12  100.51   29.98
  -1   5 -12  163.81   39.02
   1  -5  12   98.45   27.62
  -1   5 -11    0.27    8.19
  -1   5 -11    0.50   15.48
   1  -5  11    0.47   15.37
  -1   5 -10    2.22   20.00
  -1   5 -10    6.84   23.86
   1  -5  10    3.65   14.89
  -1   5  -9 1692.47  220.70
  -1   5  -9 1545.01  208.32
   1  -5   9 1371.57  190.61
  -1   5  -8  796.21  119.50
  -1   5  -8  972.59  141.62
   1  -5   8  741.47  105.63
  -1   5  -7  337.89   51.68
  -1   5  -7  344.27   53.54
   1  -5   7  341.82   70.79
  -1   5  -6  746.44  109.46
  -1   5  -6  644.56   95.57
   1  -5   6  683.17  106.81
  -1   5  -5 1097.95  136.19
  -1   5  -5  822.67  102.38
   1  -5   5  765.98   97.41
  -1   5  -4 1923.53  221.03
  -1   5  -4 2137.66  266.45
  -1   5  -4 2502.67  311.78
   1  -5   4 1816.57  229.15
  -1   5  -3 1159.13  145.18
  -1   5  -3 1132.37  126.74
  -1   5  -3 1235.38  147.44
   1  -5   3  918.41  116.06
   1  -5   3  838.97   99.90
   1  -5   3 1045.78  122.57
  -1   5  -2   64.17   28.31
  -1   5  -2   51.64    9.02
  -1   5  -2   47.27   14.23
   1  -5   2   37.98   11.48
   1  -5   2   39.02    8.71
   1  -5   2   38.60   14.77
  -1   5  -1   16.09   19.58
  -1   5  -1   13.41   11.36
  -1   5  -1   13.84    7.66
   1  -5   1    9.99    7.09
   1  -5   1    9.75    9.20
   1  -5   1   15.78   10.23
  -1   5   0 1694.11  210.76
  -1   5   0 1247.33  155.34
  -1   5   0 1441.17  163.15
   1  -5   0 1490.22  182.25
   1  -5  -1  439.12   56.01
   1  -5  -1  558.37   72.30
   1  -5  -1  459.29   62.01
   1  -5  -2   34.36   14.96
   1  -5  -2   39.80   14.41
   1  -5  -2   29.83   11.50
  -1   5   3   -0.27   16.06
   1  -5  -3   12.02   12.36
   1  -5  -3    9.76   13.70
   1  -5  -3   17.78   10.54
  -1   5   4   38.99   24.64
   1  -5  -4   57.12   29.07
   1  -5  -4   48.50   19.22
   1  -5  -4   62.78   23.43
  -1   5   5  446.57   78.77
   1  -5  -5  454.54   66.15
   1  -5  -5  628.34   88.54
   1  -5  -5  592.56   95.16
  -1   5   6    3.79   19.26
   1  -5  -6    4.92   12.44
   1  -5  -6    1.61   14.27
  -1   5   7    1.83   10.91
   1  -5  -7    1.64   12.28
   1  -5  -7    2.08   18.18
  -1   5   8  109.96   39.70
   1  -5  -8  105.61   26.88
   1  -5  -8   99.42   26.26
  -1   5   9  344.57   56.80
   1  -5  -9  274.25   41.57
   1  -5  -9  332.05   54.38
  -1   5  10  187.71   38.86
   1  -5 -10  188.91   32.22
  -1   4 -14    3.71   12.86
  -1   4 -13   60.68   20.97
  -1   4 -13  220.99   43.87
  -1   4 -12 1007.52  132.40
  -1   4 -12  515.76   82.33
   1  -4  12  526.33   78.54
  -1   4 -11  184.14   42.91
  -1   4 -11  250.11   52.09
   1  -4  11  160.84   41.50
  -1   4 -10   33.25   17.81
  -1   4 -10   23.84   14.47
   1  -4  10   20.93   16.43
  -1   4  -9  121.08   28.68
  -1   4  -9  139.13   39.81
   1  -4   9  135.03   44.67
  -1   4  -8  288.94   45.56
  -1   4  -8  300.19   56.94
   1  -4   8  248.89   53.75
  -1   4  -7   64.69   28.00
  -1   4  -7   62.56   19.50
   1  -4   7   45.77   27.35
  -1   4  -6  864.19  112.74
   1  -4   6  930.17  130.71
  -1   4  -5  116.93   20.35
  -1   4  -5  125.76   15.11
  -1   4  -5  117.63   28.05
  -1   4  -5   92.99   20.25
   1  -4   5  103.98   18.73
   1  -4   5   98.59   15.56
   1  -4   5  103.47   20.52
  -1   4  -4   62.72    8.92
  -1   4  -4   68.61   17.08
  -1   4  -4   67.01   22.91
  -1   4  -4   75.27   23.70
   1  -4   4   57.01   13.20
   1  -4   4   54.93   20.69
   1  -4   4   62.20   14.18
  -1   4  -3  269.87   43.40
  -1   4  -3  271.86   41.93
  -1   4  -3  290.01   31.37
  -1   4  -3  277.88   44.71
   1  -4   3  255.47   32.53
   1  -4   3  282.22   34.23
   1  -4   3  186.98   27.10
  -1   4  -2 1575.78  194.61
  -1   4  -2 1492.47  175.37
  -1   4  -2 1709.47  187.71
  -1   4  -2 1505.28  177.12
   1  -4   2 1373.45  151.62
   1  -4   2 1462.60  174.44
  -1   4  -1  182.33   32.71
  -1   4  -1  120.07   22.29
  -1   4  -1  207.55   24.03
   1  -4   1  146.78   19.47
   1  -4   1  214.36   36.11
  -1   4   0    6.98    6.64
  -1   4   0   14.22    9.07
  -1   4   0   11.77   14.01
   1  -4   0   11.67    7.18
   1  -4   0   13.37    8.34
   1  -4   0   10.35    3.92
   1  -4   0    8.06    6.76
   1  -4   0   13.28    9.31
  -1   4   1 4733.19  565.36
  -1   4   1 4908.35  575.91
  -1   4   1 3973.09  477.24
   1  -4  -1 4802.27  579.95
   1  -4  -1 5033.83  600.15
   1  -4  -1 2701.26  322.97
   1  -4  -1 3415.63  399.05
   1  -4  -1 4236.52  512.43
  -1   4   2 2054.06  247.18
  -1   4   2 2821.00  335.69
  -1   4   2 2875.73  331.62
   1  -4  -2 2656.85  317.98
   1  -4  -2 2725.99  330.82
   1  -4  -2 2438.47  295.46
  -1   4   3 1315.05  161.45
  -1   4   3 1671.71  198.77
  -1   4   3 1742.22  207.90
   1  -4  -3 1613.12  191.46
   1  -4  -3 1733.99  218.75
   1  -4  -3 1562.85  192.60
  -1   4   4  436.87   66.16
   1  -4  -4  529.69   80.70
   1  -4  -4  499.16   68.81
   1  -4  -4  513.09   70.08
  -1   4   5    6.82   17.73
   1  -4  -5   12.41   21.41
   1  -4  -5   11.85   15.05
   1  -4  -5   11.14   13.84
  -1   4   6  231.48   50.14
   1  -4  -6  283.86   41.49
   1  -4  -6  267.83   44.53
   1  -4  -6  276.03   57.35
  -1   4   7  395.31   64.19
   1  -4  -7  407.25   61.59
   1  -4  -7  409.29   65.30
   1  -4  -7  451.85   62.06
  -1   4   8  359.55   74.14
   1  -4  -8  356.39   70.52
   1  -4  -8  400.22   64.19
  -1   4   9  241.32   48.43
   1  -4  -9  257.77   54.75
   1  -4  -9  275.78   41.73
  -1   4  10   92.38   27.50
   1  -4 -10   94.38   28.77
   1  -4 -10   83.84   21.43
  -1   4  11   -0.00   10.96
   1  -4 -11   -0.07    3.77
  -1   3 -14   16.56   17.70
  -1   3 -13   45.62   28.97
  -1   3 -12  135.89   30.64
  -1   3 -11   77.09   19.24
  -1   3 -11  148.39   30.91
  -1   3 -10   86.76   32.26
  -1   3 -10   56.62   22.29
   1  -3  10   50.87   17.99
  -1   3  -9  804.92  103.32
  -1   3  -9  679.18   96.37
   1  -3   9  632.71   96.04
  -1   3  -8  654.30   85.17
  -1   3  -8  655.74   86.24
   1  -3   8  617.62   95.16
  -1   3  -7  336.81   55.11
  -1   3  -7  314.46   39.40
  -1   3  -7  337.05   51.59
   1  -3   7  276.70   49.58
  -1   3  -6 1034.13  123.05
  -1   3  -6  691.91   81.20
  -1   3  -6  949.48  107.69
  -1   3  -6 1170.36  143.75
   1  -3   6 1428.59  169.61
   1  -3   6  823.75   92.49
   1  -3   6  846.68  112.92
  -1   3  -5   10.97    6.29
  -1   3  -5    7.59   17.28
  -1   3  -5    9.49    7.33
  -1   3  -5   10.93   13.94
   1  -3   5    7.93   12.35
   1  -3   5    8.99    5.06
   1  -3   5    8.75   19.11
  -1   3  -4  123.53   19.03
  -1   3  -4  146.79   23.50
  -1   3  -4  126.23   25.28
  -1   3  -4  119.95   27.37
   1  -3   4  116.38   20.09
   1  -3   4  122.68   20.62
  -1   3  -3 1185.22  142.76
  -1   3  -3 1538.56  168.72
  -1   3  -3 1165.59  130.54
  -1   3  -3 1045.61  122.57
  -1   3  -3 1237.04  146.94
   1  -3   3 1298.77  148.63
   1  -3   3 1003.22  122.18
  -1   3  -2 6881.46  851.48
  -1   3  -2 8020.34  956.56
  -1   3  -2 7430.80  917.09
  -1   3  -2 6040.17  747.59
  -1   3  -2 6560.54  797.39
   1  -3   2 5218.24  638.38
   1  -3   2 6482.10  798.15
  -1   3  -1 1096.61  122.32
  -1   3  -1 1060.47  112.80
  -1   3  -1 1136.37  127.30
  -1   3  -1  847.92   86.30
   1  -3   1  939.22  102.39
   1  -3   1 1186.75  132.34
   1  -3   1 1030.12  113.81
  -1   3   0 1491.68  164.93
  -1   3   0 1369.20  148.61
  -1   3   0 1525.44  177.96
   1  -3   0 1360.66  157.92
   1  -3   0 1468.09  163.85
   1  -3   0 1266.96  140.40
   1  -3   0 1464.37  152.35
   1  -3   0 1461.17  164.50
  -1   3   1 1915.75  222.88
  -1   3   1 2268.96  252.92
  -1   3   1 1903.57  211.77
   1  -3  -1 1894.35  216.57
   1  -3  -1 1582.02  169.69
   1  -3  -1 1886.80  221.26
   1  -3  -1 1931.88  225.29
   1  -3  -1 1696.40  184.10
  -1   3   2  292.89   33.32
  -1   3   2  295.12   37.07
  -1   3   2  307.81   39.31
   1  -3  -2  269.79   38.23
   1  -3  -2  193.89   19.50
   1  -3  -2  290.49   37.34
   1  -3  -2  267.31   33.81
  -1   3   3  191.29   23.98
  -1   3   3  197.48   27.54
  -1   3   3  171.95   25.00
  -1   3   3  192.56   30.50
   1  -3  -3  173.64   24.33
   1  -3  -3  196.24   28.19
   1  -3  -3  210.24   38.61
  -1   3   4  951.66  112.49
  -1   3   4  862.09  106.55
  -1   3   4  944.37  118.51
  -1   3   4 1019.00  118.05
   1  -3  -4  962.18  119.93
   1  -3  -4  621.98   83.09
   1  -3  -4  976.49  116.79
  -1   3   5  829.79  102.27
  -1   3   5  862.12  118.12
  -1   3   5  935.61  110.16
  -1   3   5  905.39  107.25
   1  -3  -5  952.64  119.75
   1  -3  -5  897.37  116.49
   1  -3  -5  994.76  126.10
  -1   3   6  267.93   42.83
   1  -3  -6  394.66   65.50
   1  -3  -6  440.26   63.28
   1  -3  -6  448.04   64.65
  -1   3   7   40.61   26.36
   1  -3  -7   97.38   27.04
   1  -3  -7   90.02   26.73
   1  -3  -7   71.81   29.85
  -1   3   8    1.07    9.95
   1  -3  -8    2.13    8.25
   1  -3  -8    2.06    8.06
   1  -3  -8    1.36   15.88
  -1   3   9  115.64   38.58
   1  -3  -9  121.63   31.02
   1  -3  -9  139.35   29.95
   1  -3  -9   88.47   23.38
  -1   3  10    1.39   18.79
   1  -3 -10    1.37   10.64
   1  -3 -10    1.22    7.40
  -1   3  11  131.96   43.28
   1  -3 -11   95.33   26.31
  -1   3  12  124.21   30.60
  -1   2 -14   37.07   13.67
  -1   2 -13   15.39   13.28
  -1   2 -12    0.45   16.71
  -1   2 -11   20.65   25.92
  -1   2 -10  143.77   31.16
  -1   2 -10  268.06   43.81
  -1   2  -9  402.47   54.36
  -1   2  -9  522.21   68.57
   1  -2   9  326.22   53.46
  -1   2  -8  450.81   52.72
  -1   2  -8  453.02   56.96
  -1   2  -8  461.21   60.97
  -1   2  -8  537.16   69.22
   1  -2   8  352.55   50.99
   1  -2   8  442.34   65.06
  -1   2  -7 1991.77  229.36
  -1   2  -7 1677.70  191.40
  -1   2  -7 1862.97  227.23
  -1   2  -7 1499.70  180.06
  -1   2  -7 1771.46  220.13
   1  -2   7 1697.68  215.77
   1  -2   7 1448.90  176.74
   1  -2   7 2673.33  330.85
  -1   2  -6  324.90   43.86
  -1   2  -6  257.91   32.82
  -1   2  -6  314.10   48.99
  -1   2  -6  298.77   36.01
   1  -2   6  262.43   31.38
   1  -2   6  270.27   43.10
   1  -2   6  189.69   26.95
   1  -2   6  231.52   30.13
   1  -2   6  427.25   64.45
  -1   2  -5   84.28   18.49
  -1   2  -5   71.13   15.56
  -1   2  -5   83.42   15.20
  -1   2  -5   85.14   17.90
   1  -2   5  100.06   20.20
   1  -2   5   63.65   11.52
   1  -2   5   80.93   23.31
   1  -2   5   70.47   13.97
   1  -2   5   52.71   11.38
  -1   2  -4 1291.30  136.52
  -1   2  -4 1129.07  135.09
  -1   2  -4 1158.69  127.45
  -1   2  -4 1270.25  144.43
   1  -2   4 1485.72  176.09
   1  -2   4 1341.21  158.12
   1  -2   4  948.28  102.94
   1  -2   4 1133.69  128.73
   1  -2   4 1093.36  116.45
  -1   2  -3  134.91   20.79
  -1   2  -3  130.99   24.17
  -1   2  -3  119.11   25.85
  -1   2  -3  149.49   26.13
   1  -2   3  148.01   29.69
   1  -2   3  172.35   26.35
   1  -2   3  105.36   12.24
   1  -2   3   94.57    9.69
   1  -2   3  104.10   15.76
  -1   2  -2  260.39   37.26
  -1   2  -2  225.41   29.01
  -1   2  -2  275.06   29.95
  -1   2  -2  293.61   43.42
   1  -2   2  315.63   39.31
   1  -2   2  165.18   25.05
  -1   2  -111863.36 1526.38
  -1   2  -113680.56 1767.55
  -1   2  -112636.29 1620.29
  -1   2  -114200.25 1801.90
   1  -2   115551.76 1990.07
   1  -2   112335.15 1602.23
   1  -2   111955.22 1533.02
  -1   2   0  174.02   27.69
  -1   2   0  175.04   25.10
  -1   2   0  200.08   23.85
  -1   2   0  219.95   24.86
   1  -2   0  148.32   20.76
   1  -2   0  171.72   24.52
   1  -2   0  168.08   25.19
   1  -2   0  129.68   16.28
  -1   2   1  749.51   83.51
  -1   2   1  871.35   85.93
  -1   2   1  717.49   79.70
  -1   2   1  724.16   77.25
  -1   2   1  890.23   93.83
   1  -2  -1  664.25   76.26
   1  -2  -1  970.85   97.41
   1  -2  -1  706.62   86.57
   1  -2  -1  728.99   88.25
  -1   2   2  162.97   32.25
  -1   2   2  145.26   18.41
  -1   2   2  128.94   21.79
  -1   2   2  152.71   24.33
   1  -2  -2  119.16   18.79
   1  -2  -2  138.21   21.59
   1  -2  -2  142.98   24.02
  -1   2   3  192.39   26.97
  -1   2   3  192.19   24.57
  -1   2   3  196.80   27.17
  -1   2   3  174.35   27.30
   1  -2  -3  177.79   25.45
   1  -2  -3  190.51   27.02
   1  -2  -3  175.58   27.45
  -1   2   4 1426.71  160.24
  -1   2   4 1241.93  146.98
  -1   2   4 1237.22  140.63
  -1   2   4 1447.71  163.09
   1  -2  -4 1267.56  154.65
   1  -2  -4 1103.71  131.36
   1  -2  -4 1190.21  144.09
  -1   2   5 1624.43  196.73
  -1   2   5 1787.90  206.44
  -1   2   5 1477.29  177.83
  -1   2   5 1530.79  181.95
   1  -2  -5 1371.11  160.93
   1  -2  -5 1351.19  168.27
   1  -2  -5 1550.54  180.46
  -1   2   6  357.66   46.27
  -1   2   6  366.00   47.03
  -1   2   6  353.26   44.04
  -1   2   6  433.67   58.85
   1  -2  -6  369.81   47.57
   1  -2  -6  313.25   51.01
   1  -2  -6  357.60   51.42
  -1   2   7   29.66   23.29
   1  -2  -7   32.88   11.55
   1  -2  -7   24.15   11.94
   1  -2  -7   33.75   17.89
  -1   2   8   21.69   25.45
   1  -2  -8   31.84   12.72
   1  -2  -8   20.55   18.56
   1  -2  -8   28.51   18.19
  -1   2   9  127.65   45.90
   1  -2  -9  139.91   34.88
   1  -2  -9  238.00   42.35
   1  -2  -9  211.94   34.13
  -1   2  10    0.37   16.79
   1  -2 -10    1.28   11.79
   1  -2 -10    1.15    7.15
  -1   2  11   42.85   30.40
   1  -2 -11   53.11   21.55
  -1   2  12    7.41   21.91
  -1   2  13    0.42    6.83
  -1   1 -14   48.54   21.96
  -1   1 -13  308.85   49.65
  -1   1 -12    2.74   19.17
  -1   1 -11  349.72   57.35
   1  -1  11   24.84   15.02
  -1   1 -10  233.60   34.16
  -1   1 -10  434.02   62.82
  -1   1  -9  474.23   66.14
  -1   1  -9  375.68   50.30
  -1   1  -8 1317.02  145.18
  -1   1  -8 1677.26  201.61
  -1   1  -8 1426.37  161.27
  -1   1  -8 1197.64  146.22
   1  -1   8 1272.35  161.59
   1  -1   8 1119.42  140.75
   1  -1   8  888.18  109.75
  -1   1  -7 1716.67  198.31
  -1   1  -7 1632.04  194.30
  -1   1  -7 1844.84  216.41
  -1   1  -7 1672.43  199.13
  -1   1  -7 1754.58  198.01
   1  -1   7 1404.21  178.68
   1  -1   7 1720.90  199.96
   1  -1   7 1433.59  171.82
   1  -1   7 1415.24  173.78
  -1   1  -6  185.31   24.19
  -1   1  -6  161.25   24.80
  -1   1  -6  201.97   31.59
  -1   1  -6  176.73   24.09
  -1   1  -6  134.44   18.29
   1  -1   6  134.19   23.94
   1  -1   6  152.63   21.45
   1  -1   6  196.70   27.88
   1  -1   6  173.25   25.72
   1  -1   6  208.89   38.16
  -1   1  -5  120.44   16.27
  -1   1  -5  110.07   18.68
  -1   1  -5  137.88   25.07
  -1   1  -5  169.36   24.47
   1  -1   5  109.76   15.01
   1  -1   5  111.72   19.55
   1  -1   5   90.17   18.68
   1  -1   5  110.08   14.30
   1  -1   5  174.97   24.93
   1  -1   5  125.72   25.37
  -1   1  -4 2562.14  290.92
  -1   1  -4 2878.04  319.99
  -1   1  -4 2423.51  279.49
  -1   1  -4 2622.56  298.66
   1  -1   4 2784.87  312.75
   1  -1   4 2414.18  271.46
   1  -1   4 2366.51  269.76
   1  -1   4 2409.00  280.33
   1  -1   4 2811.74  329.46
  -1   1  -3 8234.70 1019.65
  -1   1  -3 9966.50 1225.90
  -1   1  -3 8568.33 1049.40
  -1   1  -3 9807.40 1219.07
   1  -1   310435.84 1299.02
   1  -1   3 6145.36  772.35
   1  -1   3 8201.02 1016.49
   1  -1   3 8291.42 1013.65
   1  -1   3 9893.17 1197.94
  -1   1  -2 1253.78  136.75
  -1   1  -2 1313.84  145.83
  -1   1  -2 1420.87  153.78
  -1   1  -2 1235.72  139.74
   1  -1   2 1126.03  122.38
   1  -1   2 1014.60  112.64
   1  -1   2 1485.98  152.01
   1  -1   2 1273.15  132.22
   1  -1   2 1558.80  179.12
  -1   1  -1 1292.94  138.11
  -1   1  -1 1213.34  121.82
  -1   1  -1  961.85  113.61
   1  -1   1 1016.22  110.79
   1  -1   1 1249.90  136.37
   1  -1   1 1247.48  129.65
   1  -1   1  974.71  115.23
   1  -1   1 1233.88  133.95
  -1   1   0 1338.59  140.84
  -1   1   0 1151.78  123.06
  -1   1   0 1307.52  141.92
  -1   1   0 1386.23  144.97
  -1   1   0 1217.11  126.50
   1  -1   0 1340.73  138.85
   1  -1   0 1233.73  135.06
   1  -1   0 1278.12  142.03
   1  -1   0 1278.32  142.85
  -1   1   1 1112.17  114.23
  -1   1   1 1436.51  153.44
  -1   1   1 1281.47  145.54
  -1   1   1 1407.58  145.18
  -1   1   1 1319.93  138.92
   1  -1  -1 1308.04  139.25
   1  -1  -1 1213.42  139.80
   1  -1  -1 1337.85  138.92
   1  -1  -1 1060.37  108.68
   1  -1  -1 1389.82  150.46
  -1   1   2  785.50   78.23
  -1   1   2  650.21   72.13
  -1   1   2  667.06   72.01
  -1   1   2  781.64   87.19
  -1   1   2  678.28   72.23
   1  -1  -2  684.61   78.65
   1  -1  -2  659.74   74.11
   1  -1  -2  876.34   86.40
   1  -1  -2  684.05   72.44
   1  -1  -2  611.84   68.12
  -1   1   320595.52 2709.33
  -1   1   315655.90 2011.59
  -1   1   315622.68 2065.08
  -1   1   317579.09 2324.67
   1  -1  -317586.86 2329.73
   1  -1  -315425.82 2036.75
   1  -1  -315649.31 2088.67
   1  -1  -316952.33 2237.93
  -1   1   4 1224.18  133.65
  -1   1   4 1450.52  156.83
  -1   1   4 1207.11  139.91
   1  -1  -4 1320.01  153.21
   1  -1  -4 1110.60  127.88
   1  -1  -4 1306.94  147.36
   1  -1  -4  948.49  114.52
  -1   1   5  143.86   20.55
  -1   1   5  112.75   20.31
  -1   1   5  127.24   19.30
  -1   1   5  124.34   28.12
   1  -1  -5  137.60   28.63
   1  -1  -5  112.28   20.44
   1  -1  -5   63.77   16.54
   1  -1  -5  124.51   20.70
  -1   1   6  659.00   82.65
  -1   1   6  669.42   82.35
  -1   1   6  621.95   76.30
   1  -1  -6  396.94   53.01
   1  -1  -6  657.99   78.24
   1  -1  -6  608.66   75.84
   1  -1  -6  621.31   82.45
  -1   1   7   37.28   21.35
  -1   1   7   38.94   16.62
  -1   1   7   52.75   13.50
   1  -1  -7   42.26   10.87
   1  -1  -7   30.36   14.07
   1  -1  -7   43.09   19.16
   1  -1  -7   37.12   12.36
  -1   1   8   21.22   12.74
   1  -1  -8   27.25   15.53
   1  -1  -8   29.70   11.52
   1  -1  -8   16.60   12.98
   1  -1  -8   17.45   10.61
  -1   1   9  795.22  134.94
   1  -1  -9  901.05  124.24
   1  -1  -9 1030.38  130.94
  -1   1  10  243.04   65.18
   1  -1 -10  421.10   58.30
   1  -1 -10  329.31   54.77
  -1   1  11  213.26   64.80
   1  -1 -11  362.86   62.34
   1  -1 -11  516.31   71.46
  -1   1  12   39.77   19.00
   1  -1 -12   46.16   19.30
  -1   1  13    0.21   10.63
   1  -1 -13    0.23    3.87
  -1   0 -13    6.88    9.34
   1   0  13    1.02    6.42
  -1   0 -12  277.05   45.90
   1   0  12   23.10   15.38
  -1   0 -11  348.42   51.27
  -1   0 -11  793.66  116.41
  -1   0 -10  560.98   90.44
  -1   0 -10  316.38   46.71
  -1   0  -9   44.70   29.45
  -1   0  -9   29.53    9.06
   1   0   9   14.84   18.41
  -1   0  -8   68.16   15.66
  -1   0  -8   90.76   32.50
   1   0   8   45.70   21.31
  -1   0  -7   19.16   12.30
  -1   0  -7   13.27    5.69
  -1   0  -7   22.29   10.79
  -1   0  -7   17.55    6.56
   1   0   7   11.64    6.37
   1   0   7   14.31    8.53
   1   0   7   13.08    9.11
  -1   0  -6   12.54    5.64
  -1   0  -6   10.75    8.51
  -1   0  -6   12.16   10.20
  -1   0  -6    9.12    4.63
  -1   0  -6   14.38    7.99
   1   0   6   11.49    7.47
   1   0   6   10.47    7.65
   1   0   6   12.21    6.17
   1   0   6    9.66    6.32
   1   0   6   12.04    9.76
  -1   0  -5  119.74   27.91
  -1   0  -5  170.21   24.19
  -1   0  -5  125.12   17.27
  -1   0  -5  141.78   21.60
  -1   0  -5  136.26   21.80
   1   0   5  129.68   23.82
   1   0   5  117.36   25.03
   1   0   5  121.72   18.81
   1   0   5  134.01   24.21
   1   0   5  107.84   13.63
  -1   0  -4 2551.74  284.47
  -1   0  -4 2683.97  317.20
  -1   0  -4 2810.47  319.55
  -1   0  -4 2581.24  307.45
  -1   0  -4 2643.03  295.80
   1   0   4 2880.78  331.92
   1   0   4 2972.14  339.06
   1   0   4 2266.74  254.49
   1   0   4 2573.59  294.30
   1   0   4 2509.77  298.64
  -1   0  -3 8833.88 1105.17
  -1   0  -3 8655.06 1056.00
  -1   0  -3 9540.54 1181.44
  -1   0  -310366.89 1301.35
   1   0   3 9031.97 1107.10
   1   0   310566.69 1314.78
   1   0   3 8133.01 1013.47
   1   0   3 9069.05 1142.66
   1   0   3 8693.09 1081.23
   1   0   310248.90 1276.18
  -1   0  -2 1206.31  132.57
  -1   0  -2 1000.63  107.86
  -1   0  -2  888.24   98.16
  -1   0  -2  929.23   91.72
  -1   0  -2  759.14   90.31
   1   0   2  880.50  102.56
   1   0   2  946.86  110.83
   1   0   2  866.83   99.25
   1   0   2  852.41   91.11
  -1   0  -1 8396.52 1024.20
  -1   0  -1 6459.97  753.38
  -1   0  -1 7360.48  897.25
  -1   0  -1 8111.12  945.57
  -1   0  -1 6204.37  749.56
  -1   0  -1 7345.48  880.21
   1   0   1 7066.57  862.52
   1   0   1 6986.99  844.49
   1   0   1 6358.95  764.17
   1   0   1 8430.96 1015.03
  -1   0   0  396.37   44.94
  -1   0   0  298.52   31.40
  -1   0   0  361.51   41.97
  -1   0   0  346.78   45.66
  -1   0   0  366.99   38.07
   1   0   0  329.34   34.51
   1   0   0  329.52   44.65
   1   0   0  351.35   36.73
   1   0   0  325.95   35.66
   1   0   0  326.81   44.60
  -1   0   1   77.25   16.71
  -1   0   1   69.78   12.17
  -1   0   1   70.18   15.27
  -1   0   1   85.90   16.98
   1   0  -1   69.16   15.73
   1   0  -1   86.07   19.93
   1   0  -1   74.39   16.13
   1   0  -1   70.94    8.68
   1   0  -1   68.55    7.95
   1   0  -1   65.17   12.56
  -1   0   237931.59 5370.84
  -1   0   232434.64 4574.85
  -1   0   235567.53 5071.50
  -1   0   238617.24 5499.32
  -1   0   237482.18 5329.01
   1   0  -235667.63 5077.82
   1   0  -232820.73 4647.64
   1   0  -232681.78 4609.43
   1   0  -238469.02 5451.77
   1   0  -233640.04 4796.98
  -1   0   359193.28 8944.43
  -1   0   356379.13 8505.76
  -1   0   367937.7110217.08
  -1   0   353237.78 8008.07
  -1   0   361949.65 9271.28
   1   0  -354500.33 8210.63
   1   0  -354714.77 8288.32
   1   0  -352217.18 7839.34
   1   0  -358728.80 8834.45
   1   0  -355680.74 8367.27
  -1   0   4  956.42   99.67
  -1   0   4 1090.18  123.71
  -1   0   4 1074.55  123.76
  -1   0   4  996.07  120.08
  -1   0   4 1173.35  121.49
   1   0  -4  998.02  113.50
   1   0  -4  935.36  113.59
   1   0  -4  935.04  103.49
   1   0  -4  939.47  107.31
  -1   0   5  445.81   55.16
  -1   0   5  497.11   60.12
  -1   0   5  500.50   65.16
  -1   0   5  374.30   40.69
   1   0  -5  430.27   59.67
   1   0  -5  394.64   46.76
   1   0  -5  350.07   43.63
   1   0  -5  447.22   50.26
  -1   0   6  151.25   26.19
  -1   0   6  100.65   13.64
  -1   0   6  157.68   27.28
  -1   0   6  176.45   27.72
   1   0  -6  119.59   16.29
   1   0  -6  152.91   28.61
   1   0  -6  125.78   18.30
   1   0  -6  128.39   22.57
   1   0  -6  161.18   24.91
  -1   0   7  457.97   59.97
  -1   0   7  754.66   95.50
  -1   0   7  759.80   95.08
   1   0  -7  648.44   80.21
   1   0  -7  754.78   92.80
   1   0  -7  577.86   73.90
  -1   0   8   28.79   11.37
   1   0  -8   32.50   15.79
   1   0  -8   33.93   14.10
   1   0  -8   39.60   22.29
   1   0  -9  161.41   34.11
   1   0  -9  192.54   43.67
  -1   0  10   72.05   37.51
   1   0 -10   83.83   19.26
   1   0 -10  119.05   35.32
  -1   0  11   17.12   16.97
   1   0 -11   35.63   21.61
   1   0 -11   26.66   12.06
  -1   0  12    0.43   10.67
   1   0 -12    3.77    8.60
  -1   0  13   22.23   14.56
   1   0 -13   28.78   17.72
  -1   0  14    2.76   13.50
  -1  -1 -13  168.83   28.07
   1   1  13   66.41   16.10
  -1  -1 -12   15.74   13.68
  -1  -1 -12   34.92   22.89
   1   1  12   15.88   20.64
  -1  -1 -11    8.15    7.35
  -1  -1 -11   16.71   22.79
   1   1  11    3.38   18.60
  -1  -1 -10  554.89   89.90
   1   1  10  234.97   55.21
  -1  -1  -9  535.04   73.38
  -1  -1  -9  416.75   59.89
   1   1   9  329.79   66.76
  -1  -1  -8    2.01   10.29
  -1  -1  -8    2.13    5.62
   1   1   8    1.50    9.60
  -1  -1  -7  115.95   18.76
  -1  -1  -7  112.76   32.25
   1   1   7   89.98   30.93
  -1  -1  -6 1659.24  188.62
  -1  -1  -6 1710.84  202.42
  -1  -1  -6 1677.22  209.31
   1   1   6 1685.17  209.36
   1   1   6 1459.54  185.38
   1   1   6 1284.20  167.56
  -1  -1  -5 4896.88  580.14
  -1  -1  -5 4975.07  591.44
  -1  -1  -5 4575.30  559.31
  -1  -1  -5 4675.93  576.05
   1   1   5 4507.85  550.92
   1   1   5 3843.49  485.24
   1   1   5 4522.03  551.39
   1   1   5 3980.11  479.52
  -1  -1  -4 2491.40  288.43
  -1  -1  -4 2597.54  303.11
  -1  -1  -4 2057.38  225.30
  -1  -1  -4 2958.26  332.53
  -1  -1  -4 2688.29  302.13
   1   1   4 2785.15  334.14
   1   1   4 2733.17  319.15
   1   1   4 2593.41  305.55
   1   1   4 2683.29  303.84
   1   1   4 2164.00  238.13
  -1  -1  -3   89.73   23.76
  -1  -1  -3  111.40   18.60
  -1  -1  -3   85.71   21.56
  -1  -1  -3  104.88   19.56
  -1  -1  -3   96.27   13.83
   1   1   3   92.57   23.74
   1   1   3   95.82   18.75
   1   1   3   97.84   25.59
  -1  -1  -2  191.84   24.12
  -1  -1  -2  188.69   26.13
  -1  -1  -2  242.37   31.47
  -1  -1  -2  174.42   30.90
   1   1   2  182.69   31.17
   1   1   2  186.35   28.60
   1   1   2  205.45   37.07
  -1  -1  -1   69.75   14.07
  -1  -1  -1   68.74   13.65
  -1  -1  -1   72.87   20.92
  -1  -1  -1   73.27   14.47
   1   1   1   67.76   12.75
   1   1   1   68.63   18.69
   1   1   1   91.89   29.88
  -1  -1   0 6042.97  725.55
  -1  -1   0 6166.72  723.27
  -1  -1   0 6045.26  721.21
  -1  -1   0 7239.12  866.06
   1   1   0 5429.13  652.35
   1   1   0 6607.48  794.20
   1   1   0 5762.20  670.11
   1   1   0 6666.98  813.92
   1   1   0 5544.30  643.91
  -1  -1   1  134.63   13.62
  -1  -1   1  160.62   18.16
  -1  -1   1  145.24   31.18
  -1  -1   1  146.41   21.44
   1   1  -1  133.28   20.87
   1   1  -1  133.25   17.29
   1   1  -1  134.61   29.76
   1   1  -1  151.01   21.03
  -1  -1   2 4569.52  504.16
  -1  -1   2 3733.17  417.97
  -1  -1   2 4339.01  520.07
  -1  -1   2 4611.35  530.15
   1   1  -2 4095.03  474.37
   1   1  -2 4330.60  507.57
   1   1  -2 4043.45  475.00
   1   1  -2 3740.95  436.62
   1   1  -2 4178.09  488.74
  -1  -1   3 1712.80  202.97
  -1  -1   3 1806.80  207.86
   1   1  -3 1543.47  176.31
   1   1  -3 1620.20  173.19
   1   1  -3 1542.75  179.82
   1   1  -3 1509.86  170.64
   1   1  -3 1276.45  143.68
  -1  -1   4  930.33  108.32
  -1  -1   4 1447.44  167.96
  -1  -1   4 1454.85  164.39
   1   1  -4 1108.96  126.97
   1   1  -4 1153.64  136.90
   1   1  -4 1254.65  141.16
  -1  -1   5  609.79   69.41
  -1  -1   5  702.91   77.28
  -1  -1   5  706.60   87.18
  -1  -1   5  814.33   95.47
   1   1  -5  713.04   90.08
   1   1  -5  611.02   69.60
   1   1  -5  677.74   79.52
  -1  -1   6  106.94   22.38
  -1  -1   6   89.59   15.02
  -1  -1   6  127.02   20.42
  -1  -1   6  148.68   32.94
   1   1  -6  114.67   24.67
   1   1  -6   97.45   20.85
   1   1  -6  126.81   29.57
  -1  -1   7  683.55   84.27
  -1  -1   7  816.60  104.75
  -1  -1   7 1103.15  137.21
  -1  -1   7 1016.45  131.50
   1   1  -7  972.79  126.51
   1   1  -7  788.84  100.64
   1   1  -7  890.10  106.33
  -1  -1   8  217.13   40.18
   1   1  -8  264.41   41.00
   1   1  -8  333.69   56.82
   1   1  -8  273.00   45.66
   1   1  -9 1184.32  163.99
   1   1  -9  983.74  128.76
   1   1  -9 1000.89  128.20
   1   1 -10   28.21   17.87
   1   1 -10   42.28   29.69
   1   1 -10   37.31   17.63
  -1  -1  11   28.49   28.89
   1   1 -11   47.22   15.45
   1   1 -11   63.98   31.02
  -1  -1  12  100.33   31.66
   1   1 -12  273.01   44.12
  -1  -1  13   40.34   27.75
   1   1 -13  187.80   40.11
  -1  -1  14   11.03   15.09
   1   1 -14   20.29   10.25
  -1  -2 -12   13.62   14.11
  -1  -2 -12   19.24   10.99
   1   2  12   11.95   11.78
  -1  -2 -11   53.26   23.04
  -1  -2 -11   76.33   21.36
   1   2  11   51.18   21.57
  -1  -2 -10   52.73   15.84
  -1  -2 -10   79.50   22.26
   1   2  10   56.55   24.17
  -1  -2  -9   40.72   20.61
  -1  -2  -9   53.18   19.58
   1   2   9   30.44   19.25
  -1  -2  -8   33.02   12.03
  -1  -2  -8   44.91   27.69
   1   2   8   26.80   27.91
  -1  -2  -7   94.01   22.49
  -1  -2  -7   95.87   18.60
   1   2   7   73.37   32.62
  -1  -2  -6   50.86   16.24
  -1  -2  -6   50.16   12.42
   1   2   6   40.27   17.00
  -1  -2  -5  126.51   23.35
  -1  -2  -5  144.38   25.69
  -1  -2  -5  126.27   28.44
   1   2   5  140.07   24.95
   1   2   5  110.81   20.38
   1   2   5  116.61   24.16
  -1  -2  -4  133.41   16.66
  -1  -2  -4  130.94   22.67
  -1  -2  -4  134.32   19.09
  -1  -2  -4  123.40   20.29
   1   2   4  135.12   33.03
   1   2   4  129.86   15.29
   1   2   4  117.36   19.51
   1   2   4  137.07   30.18
  -1  -2  -3 2643.63  303.79
  -1  -2  -3 2816.52  322.75
  -1  -2  -3 2491.18  301.22
  -1  -2  -3 2240.24  267.18
   1   2   3 2584.61  291.73
   1   2   3 2917.54  346.82
   1   2   3 2749.54  322.83
  -1  -2  -2  850.26  106.36
  -1  -2  -2 1090.23  127.34
  -1  -2  -2  885.02   95.41
  -1  -2  -2 1179.90  141.68
   1   2   2  981.78  105.38
   1   2   2  937.23  109.12
   1   2   2 1160.94  137.18
  -1  -2  -1   66.91   15.06
  -1  -2  -1   69.17   12.96
  -1  -2  -1   67.66   19.24
  -1  -2  -1   62.64    9.32
   1   2   1   64.04   13.84
   1   2   1   87.91   31.05
   1   2   1   52.18    8.64
  -1  -2   0 8104.95  979.23
  -1  -2   0 7796.53  959.43
  -1  -2   0 7921.98  972.45
  -1  -2   0 7677.47  943.99
   1   2   0 7152.62  874.29
   1   2   0 6824.62  831.43
   1   2   0 8827.74 1103.78
   1   2   0 5837.21  710.07
   1   2   0 7237.26  889.18
  -1  -2   1 4625.04  523.56
  -1  -2   1 4121.17  481.32
  -1  -2   1 3656.70  435.71
  -1  -2   1 4057.76  485.78
   1   2  -1 3589.12  412.32
   1   2  -1 4349.97  525.50
   1   2  -1 3712.53  425.74
   1   2  -1 3862.39  459.59
   1   2  -1 3495.32  408.52
  -1  -2   2    4.68    2.42
  -1  -2   2    0.03    7.88
  -1  -2   2    9.31    6.55
  -1  -2   2    6.33    8.20
   1   2  -2    4.78    5.79
   1   2  -2    5.94    8.17
   1   2  -2    6.72    8.91
   1   2  -2    4.21    4.21
   1   2  -2    2.29    7.38
  -1  -2   3  901.90  102.63
  -1  -2   3 1013.51  112.82
  -1  -2   3  977.26  111.34
   1   2  -3  803.90   95.63
   1   2  -3  943.92  108.27
   1   2  -3  968.66  110.93
   1   2  -3  849.43   91.28
   1   2  -3  860.07  102.51
  -1  -2   4    1.53    4.45
  -1  -2   4   11.28   12.52
  -1  -2   4    4.18   11.49
   1   2  -4    7.15    8.81
   1   2  -4    3.92   12.62
   1   2  -4    5.58    6.43
   1   2  -4    3.95   11.36
  -1  -2   5  591.33   68.17
  -1  -2   5  694.47   88.83
  -1  -2   5  733.10   85.30
   1   2  -5  602.79   77.83
   1   2  -5  535.36   61.99
   1   2  -5  657.86   85.48
   1   2  -5  590.83   75.39
  -1  -2   6  324.51   38.77
  -1  -2   6  434.01   61.83
  -1  -2   6  461.48   57.71
   1   2  -6  312.49   45.87
   1   2  -6  363.78   49.26
   1   2  -6  437.98   61.54
   1   2  -6  395.51   59.09
  -1  -2   7  120.17   19.20
  -1  -2   7  174.67   28.29
  -1  -2   7  208.92   32.89
   1   2  -7  161.12   29.46
   1   2  -7  174.51   33.31
   1   2  -7  173.64   37.56
   1   2  -7  142.85   29.72
  -1  -2   8   28.80    9.79
   1   2  -8   39.68   12.55
   1   2  -8   44.15   14.04
   1   2  -8   45.83   16.95
   1   2  -9    3.07   12.41
   1   2  -9    1.05   12.69
   1   2  -9    4.22   10.69
   1   2 -10  133.12   26.31
   1   2 -10  156.82   32.74
   1   2 -10  115.30   28.11
  -1  -2  11    0.09    6.88
   1   2 -11    1.02    6.37
   1   2 -11    1.83   11.07
  -1  -2  12   12.38   13.38
   1   2 -12   29.95   18.00
   1   2 -12   47.55   28.59
  -1  -2  13   -0.00    4.56
   1   2 -13    0.26   10.06
  -1  -2  14   40.39   12.85
   1   2 -14   98.42   28.40
  -1  -3 -11   60.36   25.10
  -1  -3 -11   67.11   24.15
   1   3  11   51.19   18.61
  -1  -3 -10   99.00   32.72
  -1  -3 -10   88.63   34.01
   1   3  10   74.01   37.07
  -1  -3  -9  159.41   42.61
  -1  -3  -9  170.13   44.01
   1   3   9  140.56   38.40
  -1  -3  -8  357.94   56.98
  -1  -3  -8  291.64   55.94
   1   3   8  287.96   73.03
  -1  -3  -7 1702.59  220.82
  -1  -3  -7 1498.93  202.25
   1   3   7 1479.28  211.65
  -1  -3  -6  941.82  135.13
  -1  -3  -6  807.74  102.53
   1   3   6  805.80  119.24
  -1  -3  -5   24.35   24.02
  -1  -3  -5   24.57   16.63
   1   3   5   23.41   18.89
  -1  -3  -4    1.43    5.95
  -1  -3  -4    2.22    9.18
   1   3   4    0.97   11.92
  -1  -3  -3  232.17   28.43
  -1  -3  -3  240.98   30.92
  -1  -3  -3  242.52   45.14
   1   3   3  206.87   22.95
   1   3   3  235.95   42.00
   1   3   3  204.21   30.26
   1   3   3  253.03   54.36
  -1  -3  -2   10.08    9.25
  -1  -3  -2   11.45   14.96
  -1  -3  -2   10.89    9.90
  -1  -3  -2   10.03    6.60
   1   3   2   12.52   10.16
   1   3   2    9.53    6.16
   1   3   2    7.99   22.85
  -1  -3  -1  972.17  113.11
  -1  -3  -1  771.95   92.55
  -1  -3  -1  869.95   95.76
  -1  -3  -1  835.65   96.23
   1   3   1  811.43   88.01
   1   3   1  787.16   94.00
   1   3   1  852.71  113.37
  -1  -3   0 1670.28  196.90
  -1  -3   0 1513.39  165.85
  -1  -3   0 1724.65  195.21
  -1  -3   0 1786.76  201.03
   1   3   0 1101.14  125.78
   1   3   0 1624.56  192.11
   1   3   0 1147.25  129.41
   1   3   0 1827.93  211.81
   1   3   0 1732.82  192.13
  -1  -3   1    1.62   12.71
  -1  -3   1    1.74    4.52
  -1  -3   1    1.42    6.01
  -1  -3   1    1.29   11.05
   1   3  -1    0.75    5.02
   1   3  -1    2.90    9.92
   1   3  -1    1.87    8.65
   1   3  -1   17.33    5.07
   1   3  -1    0.44    3.29
  -1  -3   2  889.98  101.10
  -1  -3   2  819.16   99.63
  -1  -3   2  536.86   58.55
   1   3  -2  665.43   79.26
   1   3  -2  659.48   83.87
   1   3  -2  755.14   92.09
   1   3  -2  732.41   79.46
   1   3  -2  872.62  101.70
   1   3  -2  745.50   86.04
  -1  -3   3    8.24   14.98
  -1  -3   3    7.02   14.70
   1   3  -3    5.56    8.30
   1   3  -3    5.87    7.72
   1   3  -3    5.96    6.82
   1   3  -3    6.71    8.46
   1   3  -3    7.57    6.60
   1   3  -3    3.25    7.91
  -1  -3   4  864.65  103.01
  -1  -3   4  696.38   83.91
  -1  -3   4  763.92   93.31
   1   3  -4  654.66   85.53
   1   3  -4  665.67   88.82
   1   3  -4  739.57   88.59
   1   3  -4  663.30   85.32
   1   3  -4  835.34   98.68
  -1  -3   5 3422.61  424.09
  -1  -3   5 4626.55  572.80
  -1  -3   5 4200.99  524.52
   1   3  -5 3551.80  454.16
   1   3  -5 3451.62  423.82
   1   3  -5 3417.10  437.67
   1   3  -5 3349.84  417.33
  -1  -3   6   22.94    8.81
  -1  -3   6   35.96   26.13
  -1  -3   6   27.94   11.07
   1   3  -6   39.16   10.76
   1   3  -6   23.53   17.85
   1   3  -6   27.57   20.48
   1   3  -6   30.34   16.71
  -1  -3   7  823.36  109.55
   1   3  -7 1186.96  159.25
   1   3  -7 1146.40  137.35
   1   3  -7 1119.38  144.69
  -1  -3   8  413.37   55.88
   1   3  -8  616.50   77.85
   1   3  -8  623.01   88.56
   1   3  -8  659.74   99.22
  -1  -3   9   78.99   18.78
   1   3  -9   99.03   26.04
   1   3  -9  121.92   25.13
   1   3  -9  133.17   41.25
   1   3 -10    1.32   10.41
   1   3 -10    0.94   12.41
   1   3 -10    1.55    7.12
   1   3 -11   39.86   19.01
   1   3 -11   28.69   17.90
   1   3 -11   35.20   13.67
  -1  -3  12   -0.13   16.83
   1   3 -12   32.75   11.96
   1   3 -12   58.40   30.97
  -1  -3  13    4.92   11.70
   1   3 -13   72.67   27.85
   1   3 -14   20.14   18.31
  -1  -4 -10    0.95   10.14
  -1  -4 -10    0.74    7.08
   1   4  10    0.00    8.66
  -1  -4  -9   15.38   19.50
  -1  -4  -9   11.46   22.61
   1   4   9    9.61   14.78
  -1  -4  -8    9.12   21.21
  -1  -4  -8    9.55   24.20
   1   4   8    7.89   27.83
  -1  -4  -7    5.45   21.39
  -1  -4  -7    4.61   12.52
   1   4   7    4.69   15.92
  -1  -4  -6  107.11   24.87
  -1  -4  -6  132.24   30.21
   1   4   6  108.50   33.49
  -1  -4  -5  763.20  103.02
  -1  -4  -5  641.16   95.81
   1   4   5  623.87   97.11
  -1  -4  -4  700.66   98.79
  -1  -4  -4  868.52  112.44
   1   4   4  719.06  106.33
  -1  -4  -3 1836.75  234.38
  -1  -4  -3 2317.77  297.04
   1   4   3 1932.66  272.08
  -1  -4  -2 1143.84  143.91
  -1  -4  -2 1385.84  163.11
  -1  -4  -2 1559.76  198.45
   1   4   2 1196.49  156.34
   1   4   2 1205.59  135.41
  -1  -4  -1  677.51   80.41
  -1  -4  -1  696.91   86.14
  -1  -4  -1  515.06   62.92
   1   4   1  595.03   79.58
   1   4   1  619.01   69.11
  -1  -4   0  210.89   31.17
  -1  -4   0  128.22   23.94
  -1  -4   0  235.24   33.97
  -1  -4   0  167.64   35.26
   1   4   0  165.46   21.53
   1   4   0  154.04   27.37
  -1  -4   1  318.48   47.08
  -1  -4   1  281.92   45.34
  -1  -4   1  308.62   45.44
   1   4  -1  313.60   52.64
   1   4  -1  290.82   39.35
  -1  -4   2  684.69   77.47
  -1  -4   2  708.38   83.06
  -1  -4   2  753.16   96.04
   1   4  -2  862.29  121.10
   1   4  -2  483.98   62.83
   1   4  -2  636.72   82.42
   1   4  -2  455.06   60.43
   1   4  -2  802.32   97.66
  -1  -4   3 2761.64  332.89
  -1  -4   3 3330.22  414.75
  -1  -4   3 3213.07  396.71
   1   4  -3 3177.59  391.43
   1   4  -3 2964.13  361.12
   1   4  -3 2113.54  260.07
   1   4  -3 2260.54  282.72
   1   4  -3 3211.12  387.12
  -1  -4   4 1068.87  130.26
  -1  -4   4 1299.04  154.09
   1   4  -4 1125.92  140.22
   1   4  -4 1302.22  154.99
   1   4  -4  849.94  109.28
   1   4  -4 1301.00  162.48
   1   4  -4 1035.53  131.86
  -1  -4   5  331.57   48.95
  -1  -4   5  415.50   53.78
   1   4  -5  245.22   40.68
   1   4  -5  319.91   46.06
   1   4  -5  322.19   41.53
  -1  -4   6    4.61   11.01
   1   4  -6    4.76   14.25
   1   4  -6    3.17    9.81
   1   4  -6    4.71    6.74
  -1  -4   7  101.21   29.42
   1   4  -7  121.57   33.63
   1   4  -7  104.78   25.00
   1   4  -7  118.68   27.23
  -1  -4   8  202.79   34.00
   1   4  -8  281.32   44.30
   1   4  -8  251.35   44.33
   1   4  -8  252.05   43.12
  -1  -4   9   11.98   17.98
   1   4  -9   17.35   20.69
   1   4  -9   15.43   14.92
   1   4  -9   12.03    8.52
  -1  -4  10   94.13   22.71
   1   4 -10  123.27   22.91
   1   4 -10  164.09   36.71
  -1  -4  11   76.34   19.64
   1   4 -11  140.74   41.96
   1   4 -11  112.95   24.14
   1   4 -12   18.83   10.41
   1   4 -12   26.86   26.61
   1   4 -13    7.01   11.06
  -1  -5  -8    5.53   16.23
  -1  -5  -8    7.67   10.93
   1   5   8    8.88   12.19
  -1  -5  -7   59.26   18.34
  -1  -5  -7   52.26   29.06
   1   5   7   47.49   32.82
  -1  -5  -6   99.95   34.71
  -1  -5  -6   84.19   35.47
   1   5   6   79.44   26.89
  -1  -5  -5  559.72   90.83
  -1  -5  -5  480.96   72.73
   1   5   5  451.63   74.56
  -1  -5  -4  851.17  117.42
  -1  -5  -4 1040.45  148.58
   1   5   4  808.10  118.65
  -1  -5  -3  179.05   32.99
  -1  -5  -3  227.93   39.60
   1   5   3  168.29   48.25
  -1  -5  -2    2.27    7.80
  -1  -5  -2    1.99   18.32
   1   5   2    1.25   10.06
  -1  -5  -1  130.99   28.56
  -1  -5  -1   75.89   22.78
   1   5   1   85.81   33.40
  -1  -5   0  247.79   35.17
  -1  -5   0  348.79   49.18
   1   5   0  276.30   53.60
  -1  -5   1  179.46   29.38
   1   5  -1  245.58   47.56
   1   5  -1  193.08   34.40
  -1  -5   2  322.29   41.26
   1   5  -2  337.21   49.55
   1   5  -2  354.64   65.20
  -1  -5   3  110.68   23.72
   1   5  -3  101.23   21.21
   1   5  -3  138.00   43.17
  -1  -5   4    8.33    7.64
   1   5  -4    6.65   11.59
   1   5  -4    2.66   11.26
   1   5  -4    5.23   13.42
  -1  -5   5 1156.53  151.83
   1   5  -5  935.40  128.63
   1   5  -5  892.75  125.17
   1   5  -5 1148.15  144.28
  -1  -5   6  128.17   32.30
   1   5  -6  188.93   46.56
   1   5  -6  130.57   35.67
   1   5  -6  154.40   24.87
  -1  -5   7   59.30   26.68
   1   5  -7   71.16   20.90
   1   5  -7   56.29   19.73
  -1  -5   8  236.27   52.88
   1   5  -8  259.81   53.21
   1   5  -8  215.96   41.77
  -1  -5   9  344.68   67.89
   1   5  -9  366.32   64.20
   1   5  -9  411.26   62.69
  -1  -5  10  107.14   26.55
   1   5 -10  154.94   31.98
   1   5 -10  149.87   36.92
  -1  -5  11  103.02   24.34
   1   5 -11  135.13   40.81
   1   5 -11  124.18   32.29
  -1  -5  12   25.80   13.65
   1   5 -12   54.02   27.77
   1   5 -12   38.69   12.59
   1   5 -13  127.87   32.69
  -1  -6  -6    1.57   10.17
   1   6   6   -0.11   11.61
   1   6   6    1.45    6.73
  -1  -6  -5  284.30   42.25
  -1  -6  -5  186.38   31.18
   1   6   5  177.12   43.23
  -1  -6  -4  263.44   40.98
  -1  -6  -4  165.06   29.05
   1   6   4  190.07   47.00
  -1  -6  -3   61.44   21.27
  -1  -6  -3  116.40   23.84
   1   6   3   78.09   29.42
   1   6   3    0.41   22.95
   1   6   2  100.17   24.41
   1   6   2  104.55   35.97
   1   6   1  106.83   35.67
   1   6   1   74.02   30.60
   1   6   0    1.18   12.05
   1   6   0    1.34   14.56
  -1  -6   1  279.39   37.81
   1   6  -1  466.49   84.50
   1   6  -1  246.65   49.47
  -1  -6   2  405.68   54.23
   1   6  -2  385.33   65.68
   1   6  -2  673.61  116.40
  -1  -6   3   78.92   16.93
   1   6  -3   71.78   23.45
   1   6  -3   48.64   14.97
  -1  -6   4   29.59   21.02
   1   6  -4   32.39   19.57
  -1  -6   5  472.84   66.52
   1   6  -5  240.23   47.51
   1   6  -5  612.37   97.93
  -1  -6   6  574.08   89.70
   1   6  -6  695.44  107.37
   1   6  -6  363.19   57.31
  -1  -6   7   10.71   19.83
   1   6  -7   12.27   19.18
   1   6  -7   -0.01    9.51
  -1  -6   8   78.46   33.24
   1   6  -8  100.99   33.23
   1   6  -8   61.20   30.01
  -1  -6   9   47.42   26.84
   1   6  -9   40.67   29.29
   1   6  -9   55.84   25.46
  -1  -6  10   12.21   13.73
   1   6 -10   12.67   10.74
   1   6 -10    7.69   18.34
  -1  -6  11    8.36   15.07
   1   6 -11    6.95    9.55
   1   6 -11   10.34    7.48
   1   6 -12    8.10   15.12
   1   7   4    0.24    6.87
   1   7   3    1.18    7.99
   1   7   3    0.02    4.08
   1   7   2    1.35    8.48
   1   7   2   -0.06    4.38
   1   7   1    1.80   15.39
   1   7   1   -0.13    8.58
   1   7   0  137.46   35.49
   1   7  -1  137.79   42.14
  -1  -7   2   65.36   19.85
   1   7  -2  108.48   37.55
  -1  -7   3  217.75   41.98
   1   7  -3  351.54   66.10
  -1  -7   4    1.86   12.83
   1   7  -4    3.04   18.51
  -1  -7   5    8.83   10.61
   1   7  -5   14.86   23.01
  -1  -7   6   46.87   25.91
   1   7  -6   63.49   30.69
  -1  -7   7  371.19   62.86
   1   7  -7  455.38   69.36
  -1  -7   8  414.70   68.69
   1   7  -8  557.91   90.63
   1   7  -8  219.79   42.51
  -1  -7   9  106.55   27.15
   1   7  -9   45.05   15.36
   1   7  -9   97.18   22.64
  -1  -7  10    7.33    8.81
   1   7 -10    3.09    6.01
   1   8  -1  132.89   25.54
   1   8  -2   57.60   28.67
   1   8  -3  151.55   40.16
  -1  -8   4   10.38    7.36
   1   8  -4   15.02   15.47
  -1  -8   5    0.01    9.99
   1   8  -5    3.69   12.13
  -1  -8   6   12.01    9.58
   1   8  -6   16.74   13.98
  -1  -8   7    9.86   14.81
   1   8  -7   10.35    6.11
  -2   9  -6  105.65   20.51
  -2   9  -5  113.58   19.00
  -2   9  -5   79.97   17.01
  -2   9  -4   91.62   27.91
  -2   9  -4  119.53   27.12
  -2   9  -3  393.93   62.95
  -2   9  -3  482.86   67.00
  -2   9  -2  127.38   28.32
  -2   9  -1  101.34   17.14
  -2   8  -9  179.58   28.66
  -2   8  -9  148.82   27.68
   2  -8   9  141.25   35.07
  -2   8  -8  154.10   35.38
  -2   8  -8  122.98   34.80
   2  -8   8  108.37   24.31
  -2   8  -7  169.36   36.90
  -2   8  -7  118.46   24.73
   2  -8   7  123.05   37.43
  -2   8  -6   88.79   23.23
  -2   8  -6  110.43   31.36
   2  -8   6   57.10   19.67
  -2   8  -5  694.19   95.03
  -2   8  -5  543.74   75.81
  -2   8  -4   50.88   25.52
  -2   8  -4   40.78   17.93
  -2   8  -3    1.76   14.26
  -2   8  -3    2.18   15.17
  -2   8  -2   85.59   18.69
  -2   8  -2  115.28   31.13
  -2   8  -1    0.19    9.47
  -2   8  -1   -0.25    5.72
   2  -8   1   -0.09    4.35
  -2   8   0   27.70   18.26
  -2   8   0   26.03   17.17
   2  -8   0   28.96   19.33
  -2   8   1    0.87   13.38
   2  -8  -1   13.88   16.66
  -2   8   2   50.14   19.81
   2  -8  -2  115.24   30.14
  -2   8   3   27.61   11.26
   2  -8  -3   41.07   15.10
   2  -8  -4   13.42   16.97
  -2   7 -11   -0.07    4.18
  -2   7 -11   -0.06    8.04
   2  -7  11   -0.07   10.70
  -2   7 -10  174.58   39.28
  -2   7 -10  201.83   40.39
   2  -7  10  168.39   40.99
  -2   7  -9    2.39   10.30
  -2   7  -9    4.03   16.92
   2  -7   9    2.82   21.35
  -2   7  -8    0.31   12.75
  -2   7  -8    0.55    8.84
   2  -7   8   -0.09   18.11
  -2   7  -7  265.35   45.80
  -2   7  -7  309.08   57.40
   2  -7   7  242.83   47.54
  -2   7  -6  294.01   55.40
  -2   7  -6  213.55   37.21
   2  -7   6  204.48   41.84
  -2   7  -5  179.52   45.06
   2  -7   5  123.29   39.88
  -2   7  -4   71.58   26.29
  -2   7  -4   62.46   29.26
   2  -7   4   27.74   24.10
  -2   7  -3   94.30   31.45
  -2   7  -3   67.51   29.55
   2  -7   3   61.89   14.94
  -2   7  -2   35.58   26.23
  -2   7  -2   35.96   24.66
   2  -7   2   30.34   21.20
  -2   7  -1  207.43   46.13
  -2   7  -1  195.89   34.55
   2  -7   1  223.45   45.60
  -2   7   0 1312.76  184.60
  -2   7   0 1115.92  147.18
   2  -7   0 1561.32  213.70
  -2   7   1  775.14  107.36
   2  -7  -1  925.01  129.40
  -2   7   2    4.35   21.73
   2  -7  -2   11.52   25.43
  -2   7   3    7.63   19.40
   2  -7  -3   10.26   15.15
  -2   7   4   25.34   19.90
   2  -7  -4   27.14   18.32
  -2   7   5  103.70   19.10
   2  -7  -5  152.08   33.11
  -2   7   6    3.23    3.46
   2  -7  -6    7.23   19.54
  -2   6 -12  242.37   43.58
   2  -6  12  205.33   39.71
  -2   6 -11  212.43   33.38
  -2   6 -11  103.21   28.53
   2  -6  11  224.59   39.83
  -2   6 -10   45.44   24.75
  -2   6 -10   35.82   22.22
   2  -6  10   36.99   17.58
  -2   6  -9   54.81   30.10
  -2   6  -9   44.96   26.91
   2  -6   9   48.25   23.10
  -2   6  -8  218.85   38.10
  -2   6  -8  311.91   50.15
   2  -6   8  249.03   50.33
  -2   6  -7 1798.54  251.07
  -2   6  -7 2030.31  268.10
   2  -6   7 1723.70  252.66
  -2   6  -6    7.90   20.42
  -2   6  -6   11.69   13.78
   2  -6   6   15.07   17.38
  -2   6  -5  294.06   54.27
  -2   6  -5  233.40   47.66
   2  -6   5  224.47   42.15
  -2   6  -4  260.92   52.62
  -2   6  -4  233.49   35.74
   2  -6   4  167.34   33.69
   2  -6   4  218.98   38.38
  -2   6  -3  139.70   26.32
  -2   6  -3  115.18   32.76
   2  -6   3   69.03   19.73
   2  -6   3  119.89   21.46
  -2   6  -2    2.71    8.83
  -2   6  -2    6.49   10.68
   2  -6   2    1.10   12.58
   2  -6   2    5.58   15.74
  -2   6  -1    7.69   10.36
  -2   6  -1   13.06   14.66
   2  -6   1   15.43   20.74
  -2   6   0   16.45   11.15
  -2   6   0   41.34   29.17
   2  -6   0   47.98   25.95
  -2   6   1   11.49   10.90
  -2   6   1    3.69   15.12
   2  -6  -1   11.05   24.19
   2  -6  -2  652.11   97.34
   2  -6  -2  810.53  115.84
   2  -6  -3  940.37  151.05
   2  -6  -3 1132.39  170.15
   2  -6  -4   21.37   31.55
   2  -6  -4   19.52   22.62
   2  -6  -5   64.55   38.75
   2  -6  -5   62.92   27.25
   2  -6  -6  292.73   67.51
   2  -6  -6  331.75   62.57
  -2   6   7  155.58   28.09
   2  -6  -7  224.26   42.51
  -2   6   8    8.14    5.50
   2  -6  -8    8.79   11.05
  -2   5 -13   22.43   18.62
  -2   5 -12   30.63   13.78
   2  -5  12   24.45   11.70
  -2   5 -11   51.94   22.96
  -2   5 -11   19.45   10.94
   2  -5  11   51.66   28.99
  -2   5 -10  188.96   33.45
  -2   5 -10  121.01   24.30
   2  -5  10  149.17   31.61
  -2   5  -9  217.01   37.79
  -2   5  -9  275.56   44.65
   2  -5   9  229.26   44.68
  -2   5  -8    3.96   19.34
  -2   5  -8    2.33    8.75
   2  -5   8    2.88   23.15
  -2   5  -7  437.45   71.77
  -2   5  -7  402.46   68.33
   2  -5   7  366.27   76.39
  -2   5  -6 1667.87  208.76
  -2   5  -6 1977.35  242.10
   2  -5   6 1461.28  196.33
   2  -5   6 1543.48  186.18
  -2   5  -5 1280.99  161.10
  -2   5  -5 1094.35  145.07
   2  -5   5  886.15  122.55
   2  -5   5 1425.60  172.77
  -2   5  -4  108.63   22.86
  -2   5  -4  126.61   30.42
   2  -5   4   59.93   31.24
   2  -5   4  129.41   28.28
  -2   5  -3 1190.05  139.79
  -2   5  -3 1039.47  135.44
   2  -5   3  650.31   95.67
   2  -5   3  776.81   95.41
  -2   5  -2  996.10  123.52
  -2   5  -2 1538.49  188.32
   2  -5   2 1113.01  136.95
   2  -5   2 1110.99  130.20
   2  -5   2 1695.07  197.63
  -2   5  -1 1180.42  145.09
  -2   5  -1 1374.35  168.17
   2  -5   1  795.90  104.96
   2  -5   1  846.47   98.45
   2  -5   1 1704.99  199.28
  -2   5   0  437.92   65.85
   2  -5   0  644.79   93.88
   2  -5   0  657.54   96.58
  -2   5   1    3.34    7.44
   2  -5  -1    9.31   12.75
   2  -5  -1    4.63   18.42
   2  -5  -2    3.38   11.95
   2  -5  -2    0.87    9.50
   2  -5  -3 1404.95  203.04
   2  -5  -3 1533.83  205.78
   2  -5  -4    0.26   18.44
   2  -5  -4    0.30    8.16
   2  -5  -5   52.94   36.21
   2  -5  -5   64.31   19.36
   2  -5  -6   -0.15   14.11
   2  -5  -6    0.08    6.10
   2  -5  -7   27.81   17.95
   2  -5  -7   32.73   14.40
  -2   5   8   11.76   19.43
   2  -5  -8   97.42   32.70
   2  -5  -8   98.24   19.45
  -2   5   9    1.25   11.31
   2  -5  -9    1.00   12.99
   2  -5  -9    2.42    8.77
  -2   4 -13  265.19   52.04
  -2   4 -12   85.46   19.94
   2  -4  12   13.02   10.60
  -2   4 -11   23.14   24.23
   2  -4  11   14.58   20.38
  -2   4 -10  533.78   74.74
   2  -4  10  531.09   81.27
  -2   4  -9 1421.87  184.11
  -2   4  -9 2422.45  298.90
   2  -4   9 1903.55  248.03
  -2   4  -8    0.85   15.67
  -2   4  -8    1.34    7.18
   2  -4   8    1.60   11.40
  -2   4  -7   64.60   17.07
  -2   4  -7   76.59   29.12
   2  -4   7   59.79   10.97
   2  -4   7   58.89   21.76
  -2   4  -6  270.61   39.42
  -2   4  -6  241.71   41.78
   2  -4   6  241.89   31.06
   2  -4   6  222.39   51.23
  -2   4  -5    2.93    8.18
  -2   4  -5    1.72   11.16
  -2   4  -5    3.78    9.05
   2  -4   5    0.87   11.29
   2  -4   5    3.62    5.67
  -2   4  -4   35.73   19.17
  -2   4  -4   42.88   10.75
  -2   4  -4   36.78   16.69
  -2   4  -4   40.07   10.03
   2  -4   4   32.87   16.11
   2  -4   4   44.96   13.26
  -2   4  -3  363.16   45.12
  -2   4  -3  372.60   55.80
  -2   4  -3  406.70   46.53
  -2   4  -3  488.94   56.95
   2  -4   3  358.19   50.42
   2  -4   3  397.21   55.79
  -2   4  -2   24.21    9.60
  -2   4  -2   24.88   14.46
  -2   4  -2   30.59    9.66
  -2   4  -2   25.10   13.20
   2  -4   2   24.42   11.32
   2  -4   2   28.02   19.08
  -2   4  -1   22.39    8.33
  -2   4  -1   18.00    7.92
  -2   4  -1   17.89    7.77
   2  -4   1   13.92    8.67
   2  -4   1   24.33   12.68
   2  -4   1   23.66   18.50
  -2   4   0  837.95  101.95
  -2   4   0  902.10  107.40
  -2   4   0 1048.26  122.56
   2  -4   0  730.82   85.50
   2  -4   0  688.81   75.90
   2  -4   0 1025.31  131.74
   2  -4   0  990.79  116.33
  -2   4   1  408.90   55.11
  -2   4   1  627.24   87.05
  -2   4   1  605.77   74.42
   2  -4  -1  614.39   88.21
   2  -4  -1  587.46   79.57
  -2   4   2   83.85   21.30
  -2   4   2   78.39   15.18
   2  -4  -2   71.92   31.13
   2  -4  -2   64.84   23.88
   2  -4  -3  799.90  106.30
   2  -4  -3  759.76   95.21
   2  -4  -4 1157.63  153.59
   2  -4  -4 1071.55  154.70
  -2   4   5  793.04  108.90
   2  -4  -5 1197.38  168.97
   2  -4  -5 1466.22  186.84
  -2   4   6  132.13   25.92
   2  -4  -6  197.17   47.86
   2  -4  -6  272.05   48.29
  -2   4   7   74.50   27.52
   2  -4  -7  116.05   27.58
  -2   4   8    9.53   11.53
   2  -4  -8   17.88   21.53
   2  -4  -8   24.87   12.51
  -2   4   9   31.49   16.80
   2  -4  -9   45.90   15.92
   2  -4  -9   65.66   23.11
  -2   4  10   66.21   21.29
   2  -4 -10   61.71   21.65
   2  -4 -10  130.07   27.76
  -2   4  11   74.15   21.14
  -2   3 -13    4.54   16.21
  -2   3 -12  151.48   32.23
  -2   3 -11    1.56   16.02
   2  -3  11    0.38    6.59
  -2   3 -10   86.51   34.89
   2  -3  10   59.79   28.02
  -2   3  -9    0.70    3.40
  -2   3  -9    0.29   13.79
   2  -3   9    1.09   10.68
  -2   3  -8   99.58   15.25
  -2   3  -8  108.69   23.09
   2  -3   8   91.93   32.70
  -2   3  -7  740.74   91.20
  -2   3  -7  524.58   70.66
   2  -3   7  650.16   98.26
   2  -3   7  635.41   71.93
  -2   3  -6 1001.44  121.19
  -2   3  -6 1196.14  138.66
  -2   3  -6  839.83  107.33
   2  -3   6 1058.68  134.80
   2  -3   6  823.62  107.28
   2  -3   6  830.41   99.97
  -2   3  -5 1332.16  158.21
  -2   3  -5 1754.45  196.73
  -2   3  -5 1611.89  186.26
  -2   3  -5 1062.06  130.29
   2  -3   5 1448.58  172.27
   2  -3   5 1227.82  161.60
   2  -3   5 1250.03  149.59
  -2   3  -4  731.71   85.58
  -2   3  -4  695.28   87.30
  -2   3  -4  787.39   90.72
  -2   3  -4  917.02  109.00
   2  -3   4  735.79   91.63
   2  -3   4  664.62   83.37
  -2   3  -3  526.95   59.80
  -2   3  -3  398.81   51.27
  -2   3  -3  405.58   55.16
  -2   3  -3  454.28   59.27
   2  -3   3  439.49   61.16
   2  -3   3  457.96   58.40
  -2   3  -2   15.60    7.14
  -2   3  -2   11.46    9.51
  -2   3  -2   14.27    8.12
  -2   3  -2    0.47    8.74
   2  -3   2   13.48   14.51
   2  -3   2   13.41   15.81
  -2   3  -1   33.21    8.00
  -2   3  -1   46.36    9.19
  -2   3  -1   40.93   17.42
   2  -3   1   40.16   11.81
   2  -3   1   35.57   12.97
   2  -3   1   39.01   11.37
  -2   3   0  877.59   97.08
  -2   3   0 1238.02  135.18
  -2   3   0 1147.07  129.56
   2  -3   0  921.07  105.09
   2  -3   0 1070.07  135.03
   2  -3   0 1106.95  133.94
  -2   3   1 5070.57  607.84
  -2   3   1 4657.23  550.97
  -2   3   1 5531.19  671.48
  -2   3   1 4442.89  531.79
  -2   3   1 3919.36  468.69
   2  -3  -1 4538.02  547.62
   2  -3  -1 5737.84  702.24
   2  -3  -1 5758.05  696.22
  -2   3   2   65.96   13.87
  -2   3   2   85.78   29.65
  -2   3   2   61.62   11.55
  -2   3   2   70.92   13.70
  -2   3   2   71.85   15.81
   2  -3  -2   71.27   18.39
   2  -3  -2   67.22   22.88
  -2   3   3 1181.20  133.80
  -2   3   3  859.70  107.22
  -2   3   3 1067.10  128.76
   2  -3  -3  871.68  110.03
   2  -3  -3 1008.49  121.84
  -2   3   4  544.36   67.52
  -2   3   4  289.01   47.84
  -2   3   4  562.38   79.34
   2  -3  -4  368.06   61.18
   2  -3  -4  486.23   61.99
  -2   3   5    0.90    9.27
   2  -3  -5    4.20   14.30
   2  -3  -5   13.22   10.82
  -2   3   6   12.11   18.89
   2  -3  -6   11.24   16.60
   2  -3  -6   33.57   14.61
  -2   3   7    0.00   13.45
   2  -3  -7    0.91    8.65
   2  -3  -7   -0.01   11.46
  -2   3   8  165.61   42.91
   2  -3  -8  292.08   44.76
   2  -3  -8  605.49   88.93
  -2   3   9    1.05   12.16
   2  -3  -9   10.37   15.20
   2  -3  -9   24.25   14.30
  -2   3  10    0.94    8.84
   2  -3 -10    1.90   12.85
  -2   3  11    0.52   13.05
   2  -3 -11    1.58   10.29
  -2   3  12   14.28   17.80
   2  -3 -12   17.54   10.76
  -2   2 -13  222.19   36.19
  -2   2 -12  465.95   79.90
  -2   2 -11  125.77   42.50
  -2   2 -10  309.38   47.18
  -2   2 -10  190.48   25.99
   2  -2  10   90.55   29.70
  -2   2  -9   62.14   11.97
  -2   2  -9   78.85   21.47
   2  -2   9   58.19   17.56
  -2   2  -8   23.12   14.10
  -2   2  -8   19.98   11.10
   2  -2   8   17.76   12.99
  -2   2  -7  233.87   30.05
  -2   2  -7  307.72   48.26
   2  -2   7  331.27   60.23
  -2   2  -6 2044.60  236.40
  -2   2  -6 1653.27  206.00
  -2   2  -6 2033.32  242.68
   2  -2   6 2278.56  283.00
   2  -2   6 1816.64  239.60
   2  -2   6 1512.30  175.97
  -2   2  -5   46.71   11.96
  -2   2  -5   44.59   13.79
  -2   2  -5   36.64   16.63
  -2   2  -5   31.07   11.54
   2  -2   5   53.05   20.58
   2  -2   5   33.49    9.36
   2  -2   5   37.43   14.42
  -2   2  -4 6013.29  711.45
  -2   2  -4 4631.92  564.74
  -2   2  -4 4124.03  491.55
  -2   2  -4 5895.87  718.96
   2  -2   4 3575.83  437.90
   2  -2   4 4402.33  535.43
   2  -2   4 5230.47  635.67
  -2   2  -3    2.05    6.29
  -2   2  -3    0.08    5.18
  -2   2  -3    0.04    2.84
  -2   2  -3    0.31    9.73
   2  -2   3    0.94    5.94
   2  -2   3    1.06    3.36
   2  -2   3    6.51    7.77
   2  -2   3   -0.03    1.24
   2  -2   3   -0.02    1.41
  -2   2  -2  678.02   76.75
  -2   2  -2  921.34  106.78
  -2   2  -2  840.53  104.35
  -2   2  -2  587.50   67.11
   2  -2   2  528.52   59.10
   2  -2   2  627.83   73.71
   2  -2   2  685.83   78.98
  -2   2  -1  626.86   75.24
  -2   2  -1  513.54   61.58
  -2   2  -1  458.70   44.86
  -2   2  -1  445.82   48.97
   2  -2   1  573.63   67.20
   2  -2   1  445.79   54.18
   2  -2   1  502.16   61.03
   2  -2   1  505.65   49.24
  -2   2   0  268.12   28.07
  -2   2   0  391.25   48.30
  -2   2   0  342.13   42.98
  -2   2   0  357.83   38.69
   2  -2   0  318.92   37.78
   2  -2   0  325.15   42.81
   2  -2   0  325.26   39.07
   2  -2   0  325.27   33.76
  -2   2   1  673.00   75.05
  -2   2   1  622.87   73.05
  -2   2   1  609.62   70.40
  -2   2   1  598.20   68.02
  -2   2   1  429.30   41.32
   2  -2  -1  508.82   56.07
   2  -2  -1  599.59   69.22
   2  -2  -1  593.11   80.98
   2  -2  -1  538.52   58.62
  -2   2   2 1489.33  179.72
  -2   2   2 1617.04  171.98
  -2   2   2 1375.55  159.39
  -2   2   2 1184.66  138.00
   2  -2  -2 1315.87  144.64
   2  -2  -2 1358.15  147.10
   2  -2  -2 1268.75  153.64
   2  -2  -2 1254.97  147.28
  -2   2   3 1132.81  116.16
  -2   2   3 1261.76  143.07
  -2   2   3 1355.02  155.27
   2  -2  -3  849.11   96.55
   2  -2  -3  801.48   84.56
   2  -2  -3 1176.76  144.10
   2  -2  -3 1030.17  120.58
  -2   2   4   13.94    9.10
  -2   2   4    3.10   13.60
   2  -2  -4    2.92    8.61
   2  -2  -4    1.88    7.03
   2  -2  -4    1.88    6.06
  -2   2   5  291.82   34.32
  -2   2   5  336.98   43.74
   2  -2  -5  285.85   38.20
   2  -2  -5  329.63   52.25
   2  -2  -5  170.06   31.93
  -2   2   6   81.42   13.16
   2  -2  -6  113.64   30.42
   2  -2  -6   68.16   21.09
   2  -2  -6  102.37   27.72
  -2   2   7  145.54   28.00
   2  -2  -7  235.65   45.96
   2  -2  -7  122.22   27.61
  -2   2   8  276.93   66.27
   2  -2  -8  379.60   56.92
  -2   2   9   38.10   33.51
   2  -2  -9   68.67   29.09
  -2   2  10   18.92   28.01
   2  -2 -10   41.91   24.08
  -2   2  11   33.16   20.31
   2  -2 -11  115.02   24.06
  -2   2  12    0.21   13.06
   2  -2 -12    1.01   11.45
  -2   2  13    1.14    7.23
  -2   1 -13    1.06    6.86
  -2   1 -12   15.35    8.93
  -2   1 -12   35.31   21.23
  -2   1 -11  339.43   52.34
  -2   1 -11  215.11   36.34
  -2   1 -10  237.73   41.58
  -2   1 -10  202.64   30.37
  -2   1  -9  110.82   24.24
  -2   1  -9  132.79   29.64
  -2   1  -8  564.29   86.58
  -2   1  -8  500.51   60.66
   2  -1   8  417.12   66.99
  -2   1  -7 1348.39  157.97
  -2   1  -7 1428.98  179.79
   2  -1   7 1073.19  140.34
   2  -1   7  792.57  104.76
  -2   1  -6 1194.58  140.60
  -2   1  -6 1077.72  128.22
  -2   1  -6 1060.79  119.50
   2  -1   6 1115.35  135.67
   2  -1   6  971.98  119.90
   2  -1   6  695.85   83.73
  -2   1  -5 2866.44  324.61
  -2   1  -5 2283.61  276.28
  -2   1  -5 2164.10  260.28
   2  -1   5 2295.26  280.54
   2  -1   5 1690.75  199.29
   2  -1   5 1321.97  163.62
   2  -1   5 2033.30  238.88
   2  -1   5 2504.48  298.41
  -2   1  -4 2613.84  304.81
  -2   1  -4 2254.90  261.47
  -2   1  -4 2346.26  275.43
   2  -1   4 2507.58  296.07
   2  -1   4 2391.99  292.40
   2  -1   4 1754.72  210.32
   2  -1   4 2165.74  247.76
   2  -1   4 2027.51  233.59
  -2   1  -3   67.74   11.63
  -2   1  -3   53.16    8.78
  -2   1  -3   73.53   23.64
  -2   1  -3   62.64    9.35
  -2   1  -3   89.32   22.52
   2  -1   3   75.38   16.62
   2  -1   3   82.77   25.57
   2  -1   3   68.03    9.55
   2  -1   3   67.52   18.55
   2  -1   3   55.35   10.34
  -2   1  -2   54.36   12.42
  -2   1  -2   48.89    7.05
  -2   1  -2   45.02    8.75
  -2   1  -2   66.48   12.94
  -2   1  -2   62.77   23.98
  -2   1  -2   52.90   12.01
   2  -1   2   60.73   15.43
   2  -1   2   51.23   13.12
   2  -1   2   49.32   17.18
   2  -1   2   57.38   12.64
  -2   1  -1 6989.08  850.78
  -2   1  -1 6855.37  851.09
  -2   1  -1 7166.11  865.98
  -2   1  -1 5898.59  706.75
  -2   1  -1 5830.26  702.75
   2  -1   1 6203.37  743.11
   2  -1   1 6314.03  759.01
   2  -1   1 7116.46  882.08
   2  -1   1 6407.42  781.06
   2  -1   1 6767.57  825.42
  -2   1   0  646.30   72.96
  -2   1   0  760.67   86.69
  -2   1   0  730.61   85.22
  -2   1   0  829.76   94.75
   2  -1   0  807.19  101.20
   2  -1   0  583.62   66.62
   2  -1   0  649.79   75.34
   2  -1   0  645.47   74.31
  -2   1   1 1208.76  142.20
  -2   1   1 1101.68  124.06
  -2   1   1 1210.30  140.56
  -2   1   1 1199.85  139.04
   2  -1  -1 1073.45  118.79
   2  -1  -1 1024.12  121.53
   2  -1  -1  979.61  114.83
   2  -1  -1 1111.26  135.33
  -2   1   2  921.65  102.05
  -2   1   2  894.97   99.15
  -2   1   2  887.90  108.06
  -2   1   2  823.74   93.27
   2  -1  -2  856.90   94.05
   2  -1  -2  808.89   92.82
   2  -1  -2  777.52   95.74
   2  -1  -2  814.55   92.08
  -2   1   3  289.01   36.53
  -2   1   3  262.63   29.52
  -2   1   3  256.66   32.91
  -2   1   3  265.28   34.74
   2  -1  -3  255.42   34.28
   2  -1  -3  260.92   27.72
   2  -1  -3  215.96   32.37
   2  -1  -3  253.07   36.90
  -2   1   4 1528.14  169.88
  -2   1   4 1387.47  154.82
  -2   1   4 1409.42  170.96
  -2   1   4 1436.73  169.40
   2  -1  -4 1396.02  170.89
   2  -1  -4 1270.67  135.91
   2  -1  -4 1207.82  143.46
   2  -1  -4 1394.97  168.27
  -2   1   5  886.69  117.28
  -2   1   5  831.03  114.78
  -2   1   5  657.84   74.98
   2  -1  -5  776.85   96.65
   2  -1  -5  620.55   77.97
   2  -1  -5  792.16  104.74
  -2   1   6 2381.48  287.35
  -2   1   6 4120.86  505.57
   2  -1  -6 3984.89  482.43
   2  -1  -6 2175.05  266.05
   2  -1  -6 4047.02  490.77
   2  -1  -7   82.89   30.09
   2  -1  -7   90.04   22.98
   2  -1  -8  234.26   39.56
   2  -1  -8  211.18   47.07
  -2   1   9    0.83   12.58
   2  -1  -9   31.57   22.17
  -2   1  10    2.86   29.28
   2  -1 -10   20.45   14.95
  -2   1  11   31.94   21.89
   2  -1 -11   62.27   20.71
  -2   1  12   73.03   40.57
   2  -1 -12  171.88   31.89
  -2   1  13  139.63   32.49
   2  -1 -13  192.31   41.48
  -2   0 -12   34.05   19.98
  -2   0 -12   16.03   10.16
  -2   0 -11   69.24   20.40
  -2   0 -11   43.94   11.39
  -2   0 -10    0.93    8.40
  -2   0 -10    0.63    8.63
   2   0  10    0.13   11.68
  -2   0  -9  831.53  123.40
  -2   0  -9  822.21  103.60
  -2   0  -8 1612.01  205.31
  -2   0  -8 1706.42  230.10
  -2   0  -7   37.73   11.20
  -2   0  -7   37.64   15.11
   2   0   7   22.59    9.69
   2   0   7   14.80   12.15
  -2   0  -6  144.56   21.00
  -2   0  -6  124.79   22.72
   2   0   6   97.89   17.42
   2   0   6   77.44   18.45
  -2   0  -5  289.91   34.85
  -2   0  -5  281.14   43.73
  -2   0  -5  324.10   43.67
  -2   0  -5  313.05   42.81
   2   0   5  201.33   31.19
   2   0   5  259.64   39.68
   2   0   5  233.53   35.41
   2   0   5  165.66   33.47
  -2   0  -4   67.32   12.60
  -2   0  -4  126.87   19.63
  -2   0  -4   93.34   21.49
  -2   0  -4  103.59   20.29
   2   0   4  122.02   28.44
   2   0   4   63.54   14.88
   2   0   4   85.95   17.52
  -2   0  -3   23.95   13.42
  -2   0  -3   28.26   15.17
  -2   0  -3   23.06   11.27
  -2   0  -3   20.80    7.57
   2   0   3   27.86   19.38
   2   0   3   22.80   10.35
   2   0   3   21.31   13.21
   2   0   3   21.63    7.35
  -2   0  -2 1162.02  133.96
  -2   0  -2 1850.37  205.91
  -2   0  -2 1459.34  166.69
   2   0   2 1298.44  149.88
   2   0   2 1375.65  158.22
   2   0   2 1475.60  179.27
   2   0   2 1452.25  162.11
  -2   0  -1 5487.35  662.46
  -2   0  -1 6692.86  812.26
  -2   0  -1 6594.96  817.92
   2   0   1 5097.66  612.60
   2   0   1 6322.56  782.14
   2   0   1 5520.85  689.59
   2   0   1 5699.29  688.20
  -2   0   0 1894.63  202.71
  -2   0   0 1688.92  182.36
  -2   0   0 2169.65  247.85
  -2   0   0 2171.04  246.16
   2   0   0 1666.06  180.57
   2   0   0 2127.56  249.60
   2   0   0 1972.26  212.25
   2   0   0 1737.00  206.98
   2   0   0 1800.58  207.91
  -2   0   1  132.16   23.46
  -2   0   1   98.69   14.99
  -2   0   1   92.03   18.58
  -2   0   1  115.66   27.78
   2   0  -1  105.97   17.72
   2   0  -1   91.28   15.46
   2   0  -1   85.29   15.41
   2   0  -1   87.34   12.68
  -2   0   2  314.66   39.14
  -2   0   2  312.14   39.37
  -2   0   2  297.17   36.97
  -2   0   2  318.43   49.47
   2   0  -2  254.82   34.55
   2   0  -2  302.52   35.41
   2   0  -2  289.25   36.46
   2   0  -2  323.85   49.73
  -2   0   3   46.18   15.12
  -2   0   3   44.01   15.34
  -2   0   3   38.11    7.81
  -2   0   3   44.90   22.27
   2   0  -3   40.26   15.44
   2   0  -3   39.20    7.29
   2   0  -3   41.69   10.36
   2   0  -3   45.41   19.16
  -2   0   4  568.33   66.09
  -2   0   4  465.51   48.62
  -2   0   4  529.97   61.27
  -2   0   4  587.76   84.83
   2   0  -4  527.06   64.16
   2   0  -4  522.06   58.27
   2   0  -4  507.91   56.52
   2   0  -4  539.06   74.60
  -2   0   5 8635.61 1118.31
  -2   0   512361.41 1609.57
  -2   0   510715.91 1448.85
   2   0  -5 9908.69 1302.20
   2   0  -5 9445.27 1219.74
   2   0  -5 9293.76 1222.89
  -2   0   6 8879.61 1187.32
  -2   0   6 8691.16 1157.28
   2   0  -6 8304.46 1095.10
   2   0  -6 7384.10 1003.41
   2   0  -7    3.01   18.87
   2   0  -7    2.53    9.79
   2   0  -8  150.66   31.02
   2   0  -8  140.90   38.51
   2   0  -9  506.21   88.38
   2   0  -9  523.72   88.24
   2   0 -10    0.45   10.14
   2   0 -10    0.29   15.08
  -2   0  11   16.03   25.12
   2   0 -11   34.67   17.49
  -2   0  12    1.71   22.65
   2   0 -12   12.64   20.46
  -2   0  13    0.51   16.09
   2   0 -13    4.17   13.53
  -2  -1 -12    2.07   11.68
  -2  -1 -12    1.25    8.15
  -2  -1 -11   94.00   29.23
  -2  -1 -11   62.51   18.86
   2   1  11   31.99   20.39
  -2  -1 -10  112.77   20.43
  -2  -1 -10  146.41   37.78
   2   1  10   53.04   29.01
  -2  -1  -9    6.67   18.92
  -2  -1  -9    5.31   12.94
   2   1   9    1.27   18.03
  -2  -1  -8   10.79   13.36
  -2  -1  -8   11.44   15.13
   2   1   8    4.42   13.54
  -2  -1  -7 1162.19  144.66
  -2  -1  -7 1268.35  170.09
   2   1   7  839.39  119.43
  -2  -1  -6  514.00   74.57
  -2  -1  -6  576.97   68.46
   2   1   6  440.32   59.55
   2   1   6  423.26   64.52
  -2  -1  -5   87.63   15.15
  -2  -1  -5   90.92   19.52
  -2  -1  -5   79.61   23.34
   2   1   5   83.84   15.23
   2   1   5   72.82   21.19
  -2  -1  -4  463.58   65.48
  -2  -1  -4  507.01   63.47
  -2  -1  -4  438.01   56.95
   2   1   4  471.47   65.34
   2   1   4  470.88   61.45
   2   1   4  419.66   71.19
   2   1   4  411.42   57.94
  -2  -1  -3 5152.88  640.69
  -2  -1  -3 6083.49  752.78
  -2  -1  -3 7680.38  970.98
  -2  -1  -3 5482.02  676.68
   2   1   3 4956.54  628.71
   2   1   3 5241.70  655.89
   2   1   3 5043.27  645.33
  -2  -1  -2 1722.52  199.66
  -2  -1  -2 1846.15  224.41
  -2  -1  -2 2252.21  272.90
  -2  -1  -2 1551.74  180.90
   2   1   2 1653.87  197.91
   2   1   2 1698.94  215.45
   2   1   2 1761.09  203.40
  -2  -1  -1 2439.41  276.31
  -2  -1  -1 2225.63  264.46
  -2  -1  -1 2787.65  327.54
  -2  -1  -1 2491.53  292.10
   2   1   1 2027.80  235.04
   2   1   1 2369.22  283.00
   2   1   1 2335.47  289.91
  -2  -1   0  301.43   49.13
  -2  -1   0  319.73   42.38
   2   1   0  239.93   30.16
   2   1   0  288.58   42.83
   2   1   0  281.12   47.30
  -2  -1   1    2.45    8.25
  -2  -1   1    1.00   12.58
  -2  -1   1    3.09    2.88
   2   1  -1    0.91    2.57
   2   1  -1    0.72    3.15
   2   1  -1    1.72    8.37
   2   1  -1    0.88    7.64
   2   1  -1    1.41    2.42
  -2  -1   2  752.30   83.74
  -2  -1   2  757.67   80.18
  -2  -1   2  933.76  119.48
   2   1  -2  735.99   80.34
   2   1  -2  729.80   79.89
   2   1  -2  741.50   81.20
   2   1  -2  782.38   92.55
   2   1  -2  688.08   74.04
   2   1  -2  654.07   69.19
  -2  -1   3  108.19   12.93
  -2  -1   3  113.34   19.46
  -2  -1   3  109.04   21.13
   2   1  -3   69.26    8.51
   2   1  -3   88.48   13.30
   2   1  -3   83.88   10.84
   2   1  -3  113.24   19.94
   2   1  -3  121.04   22.53
  -2  -1   4   41.55   10.49
  -2  -1   4   38.13   15.89
   2   1  -4   33.52    9.74
   2   1  -4   35.81   11.67
   2   1  -4   34.66   13.18
  -2  -1   5 1235.08  143.89
  -2  -1   5 1192.33  145.78
   2   1  -5  981.06  118.51
   2   1  -5  796.59   95.08
   2   1  -5 1084.84  131.81
  -2  -1   6   27.39    9.27
  -2  -1   6   50.49   22.06
  -2  -1   6   46.83   27.99
   2   1  -6   39.87   20.96
   2   1  -6   35.54   20.19
   2   1  -7   67.39   28.81
   2   1  -7   61.91   17.39
   2   1  -8  313.68   62.23
   2   1  -8  272.62   51.72
   2   1  -9   22.37   16.61
   2   1  -9   17.83   14.37
   2   1 -10  116.11   30.88
   2   1 -10  105.15   38.63
   2   1 -11  300.90   56.20
   2   1 -11  286.55   63.70
  -2  -1  12   40.98   28.64
   2   1 -12   98.59   26.64
  -2  -1  13    0.97   10.40
   2   1 -13    9.62   10.77
  -2  -1  14    2.30    9.39
   2   1 -14   30.83   11.19
  -2  -2 -11   68.35   16.03
  -2  -2 -11   60.49   20.61
   2   2  11   11.61   11.90
  -2  -2 -10  158.35   29.95
  -2  -2 -10  124.58   30.42
   2   2  10  104.70   38.31
  -2  -2  -9   24.73   15.77
   2   2   9   13.31   15.91
  -2  -2  -8   49.10   28.22
  -2  -2  -8   45.97   20.88
   2   2   8   34.10   32.43
  -2  -2  -7  137.95   28.75
  -2  -2  -7  124.74   29.40
   2   2   7  100.82   30.24
  -2  -2  -6    0.25    7.01
  -2  -2  -6   -0.31    8.26
   2   2   6    0.27    9.11
  -2  -2  -5   11.38    8.61
  -2  -2  -5   11.29   11.38
   2   2   5    6.72    6.95
   2   2   5   10.56   15.47
  -2  -2  -4  674.62   78.91
  -2  -2  -4  697.18   87.96
   2   2   4  671.00   77.17
   2   2   4  621.23  102.72
  -2  -2  -3  126.19   26.69
  -2  -2  -3  117.13   28.92
  -2  -2  -3  106.46   20.27
   2   2   3   93.69   19.15
   2   2   3  108.21   16.46
   2   2   3   97.06   24.90
  -2  -2  -2   85.15   13.06
  -2  -2  -2   96.93   24.31
  -2  -2  -2   83.16   22.14
  -2  -2  -2  112.04   22.99
   2   2   2   81.44   15.65
   2   2   2   86.10   14.10
   2   2   2   84.04   33.17
  -2  -2  -1  836.39   95.47
  -2  -2  -1 1117.62  132.82
  -2  -2  -1 1054.25  135.59
  -2  -2  -1  844.47   99.66
   2   2   1  821.79  101.55
   2   2   1  885.36  105.52
   2   2   1  885.61  110.98
  -2  -2   0  295.41   34.33
  -2  -2   0  259.81   35.91
  -2  -2   0  362.89   54.17
  -2  -2   0  356.76   55.32
   2   2   0  308.75   37.97
   2   2   0  265.21   31.67
   2   2   0  326.54   46.22
  -2  -2   1   59.18    9.30
  -2  -2   1   54.30    9.93
  -2  -2   1   74.49   25.14
  -2  -2   1   78.34   25.95
   2   2  -1   58.83   13.83
   2   2  -1   59.36   10.86
   2   2  -1   71.73   26.78
  -2  -2   2  441.96   67.41
  -2  -2   2  370.09   48.97
   2   2  -2  267.28   36.53
   2   2  -2  178.46   33.89
   2   2  -2  315.34   39.77
   2   2  -2  327.92   38.11
   2   2  -2  391.97   62.62
   2   2  -2  210.68   43.84
  -2  -2   3 2250.71  265.94
  -2  -2   3 3144.49  391.38
   2   2  -3 1965.37  236.25
   2   2  -3 2003.05  239.38
   2   2  -3 2873.93  331.76
   2   2  -3 2934.27  354.73
   2   2  -3 2109.29  257.65
  -2  -2   4  869.45  102.41
  -2  -2   4 1045.30  139.15
   2   2  -4  780.90   94.95
   2   2  -4 1108.61  133.32
   2   2  -4  970.91  119.19
   2   2  -4  833.64  106.87
  -2  -2   5    0.01    9.41
  -2  -2   5    2.34   14.87
   2   2  -5    0.62    9.55
   2   2  -5    5.26    6.12
   2   2  -5    2.40   13.61
  -2  -2   6   76.68   16.97
   2   2  -6   85.71   18.17
   2   2  -6  101.02   20.95
  -2  -2   7   87.67   19.54
   2   2  -7  114.27   30.98
   2   2  -7  129.25   24.01
  -2  -2   8    0.50    7.48
   2   2  -8    0.72    8.35
   2   2  -8    1.23   13.22
   2   2  -9  267.56   49.30
   2   2  -9  253.53   42.55
   2   2 -10    3.97   20.23
   2   2 -10    1.61   16.66
   2   2 -11    0.07   24.94
   2   2 -11   13.14   13.07
  -2  -2  12    1.45    8.53
   2   2 -12    0.02   17.17
  -2  -2  13    0.22   15.57
   2   2 -13    8.23   11.05
  -2  -3 -10  172.54   35.30
  -2  -3 -10  175.72   32.06
   2   3  10   86.44   33.05
  -2  -3  -9  208.29   44.72
  -2  -3  -9  194.38   43.79
   2   3   9  170.04   49.71
  -2  -3  -8  181.38   33.97
  -2  -3  -8  141.64   34.80
   2   3   8  139.97   36.47
  -2  -3  -7  106.55   35.33
  -2  -3  -7   91.78   28.74
   2   3   7   82.12   42.58
  -2  -3  -6  400.89   70.25
  -2  -3  -6  331.06   47.40
   2   3   6  312.47   73.51
  -2  -3  -5  870.80  124.40
  -2  -3  -5  747.05  101.53
   2   3   5  664.17  118.33
  -2  -3  -4 1212.28  163.43
  -2  -3  -4 1035.51  127.52
   2   3   4 1007.51  162.33
  -2  -3  -3 1230.66  153.15
  -2  -3  -3 1399.44  174.00
   2   3   3 1297.86  149.30
   2   3   3 1189.68  163.99
  -2  -3  -2  194.29   30.58
  -2  -3  -2  165.14   27.12
   2   3   2  191.30   24.64
   2   3   2  174.03   46.22
  -2  -3  -1   40.28   12.08
  -2  -3  -1   48.20   12.67
   2   3   1   52.72   10.26
   2   3   1   49.98   27.77
  -2  -3   0   70.26   14.14
  -2  -3   0   60.85   13.16
   2   3   0   82.73   16.36
   2   3   0   78.99   16.91
   2   3   0   91.08   34.17
  -2  -3   1  310.93   39.12
   2   3  -1  396.07   54.49
   2   3  -1  417.24   48.69
   2   3  -1  481.43   76.73
   2   3  -2   22.10   10.59
   2   3  -2   44.47   10.71
   2   3  -2   56.56   11.99
   2   3  -2   58.87   19.19
   2   3  -3  335.89   51.86
   2   3  -3  423.09   56.07
   2   3  -3  599.57   76.02
   2   3  -3  602.67   87.97
   2   3  -4  169.83   30.32
   2   3  -4  176.47   27.58
   2   3  -4  348.07   51.86
   2   3  -4  295.65   51.90
   2   3  -4  175.33   25.03
   2   3  -4  115.89   25.60
  -2  -3   5   33.32   10.71
   2   3  -5   32.80   13.31
   2   3  -5   16.07   15.14
  -2  -3   6  219.35   31.00
   2   3  -6  276.56   49.88
   2   3  -6  173.26   31.02
  -2  -3   7  364.77   57.43
   2   3  -7  330.04   58.48
   2   3  -7  555.54   76.94
  -2  -3   8  353.32   57.29
   2   3  -8  433.05   74.61
   2   3  -8  592.91   90.66
  -2  -3   9   53.20   14.35
   2   3  -9   78.41   22.51
   2   3  -9   91.68   28.88
   2   3 -10  168.84   38.38
   2   3 -10  155.93   32.04
   2   3 -11  185.73   40.32
   2   3 -11  198.59   47.71
  -2  -3  12   -0.08    9.00
   2   3 -12   26.01   12.50
   2   3 -12   26.44   15.23
  -2  -3  13    1.00   10.95
   2   3 -13    4.00   14.65
  -2  -4  -8   29.80   19.08
  -2  -4  -8   27.41   14.41
   2   4   8   20.81   16.04
  -2  -4  -7    9.26   11.28
  -2  -4  -7   10.42   11.11
   2   4   7    6.89   14.69
  -2  -4  -6   43.32   16.48
  -2  -4  -6   33.73   21.03
   2   4   6   33.28   21.36
  -2  -4  -5    2.18    9.71
  -2  -4  -5    1.36   12.69
   2   4   5    2.03   13.47
  -2  -4  -4    3.44    9.89
  -2  -4  -4    0.77   11.60
   2   4   4    2.27   13.34
  -2  -4  -3    0.66   14.21
  -2  -4  -3    0.89    5.59
   2   4   3    0.21   19.59
  -2  -4  -2  551.92   72.97
  -2  -4  -2  348.10   51.61
   2   4   2  425.98   50.16
   2   4   2  475.96   74.25
  -2  -4  -1 1976.05  258.19
   2   4   1 1663.52  246.39
   2   4   1 1583.49  189.99
  -2  -4   0 1181.29  155.30
   2   4   0 1289.57  154.03
   2   4   0 1330.42  196.42
   2   4  -1  475.69   85.40
   2   4  -1  781.73   99.04
   2   4  -1  871.31  133.43
   2   4  -2  221.74   48.53
   2   4  -2  525.37   66.65
   2   4  -2  404.92   69.81
  -2  -4   3   12.47    9.36
   2   4  -3   23.79   20.16
   2   4  -3   39.37   16.56
  -2  -4   4  328.99   45.34
   2   4  -4  243.99   46.21
   2   4  -4  374.26   66.31
  -2  -4   5  644.46   84.33
   2   4  -5  714.32   95.00
  -2  -4   6  410.12   56.90
   2   4  -6  476.32   74.68
   2   4  -6  213.11   39.71
  -2  -4   7  362.11   61.17
   2   4  -7  251.05   51.84
   2   4  -7  589.06   81.96
  -2  -4   8   -0.29   10.32
   2   4  -8    0.24   10.12
   2   4  -8    0.55   10.66
  -2  -4   9    4.17   12.16
   2   4  -9    2.29    9.34
   2   4  -9    5.35    8.52
  -2  -4  10   30.81   12.73
   2   4 -10   38.30   18.02
   2   4 -10   40.42   19.87
   2   4 -11    0.02    9.21
   2   4 -11    3.77   10.47
  -2  -4  12    2.60    6.91
   2   4 -12   17.38   12.38
   2   4 -13   26.02   19.65
  -2  -5  -6   92.02   25.65
  -2  -5  -6   74.14   25.00
   2   5   6   65.22   20.35
  -2  -5  -5   96.07   31.74
  -2  -5  -5   60.55   17.41
   2   5   5   57.05   20.25
  -2  -5  -4    1.74   16.78
  -2  -5  -4    2.19   11.78
   2   5   4    1.54   10.94
  -2  -5  -3  318.67   55.65
   2   5   3  252.16   47.94
  -2  -5  -2  476.20   67.14
   2   5   2  389.30   80.39
  -2  -5  -1  215.10   28.63
   2   5   1  192.11   43.63
   2   5   1  285.32   51.00
  -2  -5   0   72.70   17.67
   2   5   0   46.51   32.68
   2   5   0   91.39   39.48
  -2  -5   1   33.41   14.14
   2   5  -1   21.10   25.28
   2   5  -1   32.34   27.75
  -2  -5   2   28.57   10.14
   2   5  -2   14.40   16.05
   2   5  -2   85.42   32.43
  -2  -5   3  434.74   63.74
   2   5  -3  335.32   52.27
   2   5  -3  549.54   90.47
  -2  -5   4   59.98   16.83
   2   5  -4   37.18   24.87
   2   5  -4   58.31   18.25
  -2  -5   5  142.24   33.84
   2   5  -5  112.07   34.51
   2   5  -5  145.31   35.45
  -2  -5   6   23.77   18.53
   2   5  -6   29.02   13.51
  -2  -5   7   29.62   20.24
  -2  -5   7   33.22   24.10
   2   5  -7   43.01   24.22
  -2  -5   8  249.09   50.67
   2   5  -8  113.86   32.26
   2   5  -8  296.61   46.76
  -2  -5   9   88.81   23.36
   2   5  -9   46.49   22.62
   2   5  -9   80.64   25.49
  -2  -5  10   20.40   16.84
   2   5 -10   16.48   17.24
   2   5 -10   17.55   12.68
  -2  -5  11   23.76   15.77
   2   5 -11   11.86   11.24
   2   5 -11   10.36   16.46
   2   5 -12   25.36   20.22
   2   6   4   28.50   20.63
   2   6   4   28.51   21.45
   2   6   3   90.27   31.25
   2   6   3   99.59   34.28
   2   6   2  227.46   50.92
   2   6   2  226.68   53.38
   2   6   1  151.77   32.34
   2   6   1  145.64   31.62
  -2  -6   0   65.04   12.79
   2   6   0   90.35   32.12
   2   6   0  101.14   36.49
  -2  -6   1   19.92   11.37
   2   6  -1   22.77   24.15
   2   6  -1   23.15   14.72
  -2  -6   2   73.51   20.15
   2   6  -2   69.56   27.64
   2   6  -2   89.55   23.46
  -2  -6   3   10.86   12.72
   2   6  -3    0.50   17.04
   2   6  -3    9.09    9.66
  -2  -6   4  105.90   22.06
   2   6  -4   63.43   21.99
   2   6  -4   96.58   29.52
  -2  -6   5  296.12   54.84
   2   6  -5  192.79   49.09
   2   6  -5  311.70   53.69
  -2  -6   6   10.62   11.39
   2   6  -6   11.04    9.69
  -2  -6   7    5.67    9.47
   2   6  -7    4.04   10.69
  -2  -6   8  254.61   48.08
  -2  -6   9   58.31   18.97
  -2  -6  10   21.70   19.16
   2   7   0    1.21    9.87
   2   7   0    1.41    7.60
   2   7  -1    3.81    6.71
   2   7  -1    1.23    5.12
  -2  -7   2   55.03   14.33
   2   7  -2   81.01   26.12
   2   7  -2   45.22   18.19
  -2  -7   3   41.25   16.82
   2   7  -3   33.55   16.71
   2   7  -3   30.27   13.99
  -2  -7   4  107.66   26.78
   2   7  -4   64.53   15.82
   2   7  -4   37.70   16.22
  -2  -7   5   80.03   19.36
   2   7  -5   42.07   14.10
  -2  -7   6   31.17   18.86
  -2  -7   7    2.12    6.84
  -3   8  -8  448.93   64.96
   3  -8   8  446.28   58.61
  -3   8  -7   72.82   23.94
   3  -8   7   61.93   20.79
  -3   8  -6  169.41   29.91
   3  -8   6  108.14   25.01
  -3   8  -5  133.58   23.84
   3  -8   5   65.20   14.03
  -3   8  -4   25.22   13.75
   3  -8   4   14.47    6.64
  -3   8  -3  256.89   40.03
   3  -8   3  200.99   28.93
  -3   8  -2  158.04   28.94
   3  -8   2  166.36   34.49
   3  -8   1    1.83   13.02
  -3   8   0    9.84   11.01
   3  -8   0   11.17   10.05
  -3   8   1   32.46   20.81
   3  -8  -1   33.72   20.39
  -3   8   2    1.41   12.01
   3  -8  -2    2.16    7.71
  -3   8   3   39.23   18.89
   3  -8  -3   48.00   15.14
   3  -7  10   11.45   16.62
  -3   7  -9    2.26    8.78
  -3   7  -9    1.11    9.03
   3  -7   9    4.01   14.78
  -3   7  -8   70.31   19.37
  -3   7  -8   61.80   22.06
   3  -7   8   72.71   20.05
  -3   7  -7   87.02   26.49
  -3   7  -7   97.56   18.29
   3  -7   7  108.63   37.20
  -3   7  -6   29.86   13.23
   3  -7   6   34.18   25.87
  -3   7  -5    1.30   14.81
   3  -7   5    0.78   14.11
   3  -7   5    0.49    7.80
  -3   7  -4  548.80   82.04
   3  -7   4  221.86   44.62
   3  -7   4  469.81   58.37
  -3   7  -3  287.59   63.54
   3  -7   3  331.61   59.81
  -3   7  -2   30.72   25.46
   3  -7   2   35.24   25.21
  -3   7  -1   63.05   28.40
   3  -7   1   75.03   29.98
  -3   7   0    9.30   13.41
   3  -7   0    7.74   20.21
  -3   7   1   18.05   28.82
   3  -7  -1   16.25   16.42
  -3   7   2  534.58   84.16
   3  -7  -2  546.76   99.15
  -3   7   3  649.71  111.85
   3  -7  -3  610.30  105.46
  -3   7   4  302.57   65.84
   3  -7  -4  280.66   62.75
  -3   7   5    7.95   12.28
   3  -7  -5    7.63   21.92
  -3   7   6   48.04   19.71
   3  -7  -6   57.22   18.17
  -3   6 -11   41.81   13.57
   3  -6  11   31.68   21.73
  -3   6 -10  343.69   45.86
   3  -6  10  373.73   55.54
  -3   6  -9  139.12   30.31
   3  -6   9  143.76   30.58
  -3   6  -8  182.36   30.28
  -3   6  -8  270.15   43.50
   3  -6   8  281.39   57.11
  -3   6  -7   11.92   16.94
  -3   6  -7   13.05    9.39
   3  -6   7   13.16   16.61
   3  -6   7   11.34    6.24
  -3   6  -6   18.34   17.66
   3  -6   6   18.47   16.92
   3  -6   6   20.20   13.34
  -3   6  -5  833.02  108.21
   3  -6   5  652.20  108.21
   3  -6   5  947.82  120.64
  -3   6  -4  512.70   79.24
   3  -6   4  410.96   63.59
   3  -6   4  697.75   96.29
  -3   6  -3   26.14   22.71
   3  -6   3   17.68   13.83
   3  -6   3   38.71   16.99
  -3   6  -2  308.60   49.82
   3  -6   2  385.09   56.86
  -3   6  -1  246.40   45.81
   3  -6   1  237.84   40.88
  -3   6   0   19.77   19.79
   3  -6   0   25.28   17.86
  -3   6   1    0.13   13.60
   3  -6  -1    3.69   19.23
   3  -6  -2   46.87   34.69
   3  -6  -2   62.26   28.18
   3  -6  -3    1.11   22.20
   3  -6  -3    1.35   20.35
   3  -6  -4  127.33   48.39
   3  -6  -4  148.51   34.36
   3  -6  -5  191.48   55.76
   3  -6  -5  232.63   43.46
   3  -6  -6  337.02   69.86
   3  -6  -6  447.94   79.14
   3  -6  -7    8.20   11.19
   3  -6  -7   12.27   21.80
  -3   6   8   16.98   11.40
   3  -6  -8   16.69   10.21
  -3   5 -11    0.77    9.62
   3  -5  11    0.54   14.39
  -3   5 -10  128.40   29.55
   3  -5  10  132.99   39.16
  -3   5  -9    0.83    6.83
   3  -5   9   -0.01   17.40
  -3   5  -8    1.04    6.22
   3  -5   8    0.95    4.38
   3  -5   8    1.72   11.44
  -3   5  -7  131.07   23.47
   3  -5   7  125.92   47.79
   3  -5   7  152.24   22.80
  -3   5  -6  434.03   63.22
   3  -5   6  361.53   61.71
   3  -5   6  577.74   76.08
  -3   5  -5    2.19    7.54
   3  -5   5    2.27   20.73
   3  -5   5    3.22    7.43
  -3   5  -4  517.79   71.62
   3  -5   4  436.56   77.93
   3  -5   4  693.48   96.12
  -3   5  -3 1550.04  207.41
   3  -5   3 1634.65  211.10
   3  -5   3 2431.80  298.25
  -3   5  -2  379.95   57.16
   3  -5   2  260.12   46.16
   3  -5   2  446.50   62.73
  -3   5  -1  139.71   31.44
   3  -5   1  140.39   39.91
   3  -5   0 1606.92  211.66
   3  -5   0 2044.54  283.35
   3  -5  -1  524.54   77.88
   3  -5  -1  562.66   92.25
   3  -5  -2  886.07  138.75
   3  -5  -2  892.54  122.25
   3  -5  -3   63.67   25.47
   3  -5  -3   72.15   36.33
   3  -5  -4    4.16   22.86
   3  -5  -4    2.39   12.34
   3  -5  -5  110.42   44.09
   3  -5  -5  152.80   32.74
   3  -5  -6   84.83   39.13
   3  -5  -6  131.68   30.05
   3  -5  -7    6.47   12.74
   3  -5  -7    9.92   13.01
   3  -5  -8   20.76   12.34
   3  -5  -8   35.18   21.68
   3  -5  -9    8.16   10.70
   3  -5  -9    9.46   14.58
  -3   4 -12   94.65   24.06
  -3   4 -11   38.42   18.42
   3  -4  11   22.23   17.99
  -3   4 -10  349.21   45.51
  -3   4 -10  551.88   78.73
   3  -4  10  454.48   78.09
  -3   4  -9    7.82    8.95
  -3   4  -9    8.48    9.29
   3  -4   9    7.07   22.92
  -3   4  -8   36.67   10.68
  -3   4  -8   41.59   14.31
   3  -4   8   39.60   31.50
  -3   4  -7 1483.51  188.36
   3  -4   7 1523.55  203.96
   3  -4   7 1945.05  236.34
   3  -4   6  909.71  137.74
   3  -4   6 1148.01  135.91
   3  -4   5    6.10   24.89
   3  -4   5    9.21   14.10
  -3   4  -4   31.14   17.06
   3  -4   4   53.24   29.64
   3  -4   4   51.25   13.82
  -3   4  -3   45.94   19.01
   3  -4   3   53.39   27.44
   3  -4   3   57.41   16.68
  -3   4  -2    9.43   16.37
   3  -4   2    8.73    8.94
   3  -4   2    1.50   19.04
   3  -4   1    0.07    8.85
   3  -4   1    1.55   13.92
   3  -4   1    0.75    7.83
  -3   4   0   58.59    9.54
   3  -4   0   39.38   11.07
   3  -4   0   88.70   22.40
   3  -4   0   80.47   25.18
   3  -4  -1  101.95   35.18
   3  -4  -1  107.52   22.99
   3  -4  -2  204.67   47.97
   3  -4  -2  227.95   45.51
   3  -4  -3  145.89   32.53
   3  -4  -3  173.26   40.60
   3  -4  -4  331.54   68.53
   3  -4  -4  522.01   71.61
   3  -4  -5   20.23   25.24
   3  -4  -5   57.73   19.18
   3  -4  -6  198.60   50.19
   3  -4  -6  374.15   67.78
   3  -4  -7  336.62   56.85
   3  -4  -7  551.74   78.46
   3  -4  -8  168.20   42.37
   3  -4  -8  292.41   46.65
  -3   4   9   13.49   16.07
   3  -4  -9   63.89   24.14
  -3   4  10   12.31    8.54
   3  -4 -10   68.65   21.32
  -3   3 -12   14.38   12.59
  -3   3 -11    0.22    4.92
  -3   3 -11   -0.01    2.75
   3  -3  11    0.10    4.00
  -3   3 -10   36.18    8.86
  -3   3 -10   39.46   21.44
   3  -3  10   27.55   20.50
  -3   3  -9   64.51   13.12
  -3   3  -9   63.94   25.89
   3  -3   9   63.23   35.04
  -3   3  -8   80.19   21.15
  -3   3  -8   67.28   24.49
   3  -3   8   68.06   33.87
  -3   3  -7   94.92   19.32
   3  -3   7   98.47   26.95
   3  -3   7  133.23   22.52
  -3   3  -6    5.46   11.88
   3  -3   6    5.86   22.32
   3  -3   6    7.30   14.40
   3  -3   5  397.69   50.72
   3  -3   5  380.09   68.87
   3  -3   4  658.60   99.58
   3  -3   4  686.39   90.47
  -3   3  -3  669.11   79.85
   3  -3   3  991.89  132.61
   3  -3   3  964.89  113.19
  -3   3  -2 1978.53  237.68
  -3   3  -2 1277.66  162.14
   3  -3   2 1278.69  159.92
   3  -3   2 1456.53  185.17
  -3   3  -1   22.31    9.44
   3  -3   1   16.46   15.80
   3  -3   1   18.05   20.51
   3  -3   1   13.75   12.05
  -3   3   0  585.01   69.29
  -3   3   0  700.44   85.94
   3  -3   0  551.87   76.36
   3  -3   0  565.43   82.04
   3  -3   0  523.32   71.12
  -3   3   1  137.99   22.49
   3  -3  -1  105.66   21.51
   3  -3  -1  157.95   38.78
   3  -3  -1  146.85   23.77
   3  -3  -2    7.09   18.62
   3  -3  -2   10.05   15.72
   3  -3  -3 1196.45  147.78
   3  -3  -3 1073.30  147.90
   3  -3  -4  301.40   57.33
   3  -3  -4  231.84   48.95
   3  -3  -5    4.40   11.95
   3  -3  -5    3.07    9.80
  -3   3   6   45.84   26.61
   3  -3  -6  188.24   34.49
   3  -3  -6   96.38   22.52
  -3   3   7    1.71   21.03
   3  -3  -7   42.29   19.44
  -3   3   8   -0.08   14.93
   3  -3  -8    3.15   12.02
  -3   3   9    0.19   11.67
   3  -3  -9    0.41   13.46
  -3   3  10   -0.17   16.00
  -3   3  10   16.27   17.06
   3  -3 -10   33.89   20.79
  -3   3  11   33.38   13.43
   3  -3 -11   81.04   17.85
  -3   2 -12  253.28   41.71
  -3   2 -11   35.31    9.43
  -3   2 -10  584.00   70.64
  -3   2 -10  578.09   83.28
   3  -2  10  302.22   50.77
  -3   2  -9  711.11   85.59
  -3   2  -9  649.63   93.82
   3  -2   9  494.30   76.87
  -3   2  -8   34.76   20.46
  -3   2  -8   42.87   17.50
   3  -2   8   36.96   29.20
  -3   2  -7  143.01   22.92
  -3   2  -7  118.29   23.07
   3  -2   7  129.03   31.27
  -3   2  -6   76.75   22.49
   3  -2   6   84.50   33.56
   3  -2   6  105.25   20.36
   3  -2   5    0.09    8.15
   3  -2   5    0.34   10.51
   3  -2   4  944.91  120.46
   3  -2   4  851.26  103.01
   3  -2   3  400.39   59.42
   3  -2   3  473.37   64.13
  -3   2  -2  926.86  122.92
  -3   2  -2  886.38  124.05
   3  -2   2  801.88  113.15
  -3   2  -1 2142.43  250.63
  -3   2  -1 1889.65  237.39
   3  -2   1 2241.41  268.73
   3  -2   1 1315.83  159.49
   3  -2   1 1730.67  216.62
  -3   2   0  126.94   25.69
  -3   2   0  121.51   21.79
   3  -2   0  117.64   20.06
   3  -2   0  111.42   21.58
   3  -2   0   95.30   15.36
  -3   2   1    4.46    9.35
  -3   2   1    4.39   13.12
   3  -2  -1    2.22   10.73
   3  -2  -1    5.34    5.91
   3  -2  -1    5.00    8.53
  -3   2   2 1121.75  133.37
  -3   2   2 1250.54  153.49
  -3   2   2 1074.40  131.80
   3  -2  -2 1189.84  142.97
   3  -2  -2  969.33  125.51
   3  -2  -2 1104.35  134.75
  -3   2   3  116.98   23.33
  -3   2   3  123.06   28.52
  -3   2   3  105.35   19.48
   3  -2  -3  120.24   29.34
   3  -2  -3  117.05   30.26
   3  -2  -3   88.22   18.81
  -3   2   4  301.64   42.46
   3  -2  -4  352.86   57.53
   3  -2  -4  314.36   51.58
   3  -2  -4  267.34   41.05
   3  -2  -5  465.44   63.03
   3  -2  -5  358.26   55.60
   3  -2  -5  400.79   59.94
   3  -2  -6  108.83   24.47
   3  -2  -6   88.86   25.69
   3  -2  -7   22.00   20.00
   3  -2  -7   29.41   15.90
  -3   2   8   79.75   23.19
   3  -2  -8  172.82   32.83
  -3   2   9   -0.11   11.56
   3  -2  -9    5.65   18.56
  -3   2  10   48.79   23.72
   3  -2 -10  137.62   39.47
  -3   2  11    1.99   19.90
   3  -2 -11   20.23   13.62
  -3   2  12    1.82    7.13
   3  -2 -12    5.74   12.06
  -3   1 -11    0.06    8.35
  -3   1 -11    0.18    3.62
  -3   1 -10   86.56   28.23
  -3   1 -10   98.03   24.81
  -3   1  -9   76.83   21.35
  -3   1  -9   59.73   22.40
   3  -1   9   31.33   11.63
  -3   1  -8  592.18   72.36
  -3   1  -8  455.44   68.49
   3  -1   8  391.93   62.23
  -3   1  -7  310.36   41.43
  -3   1  -7  237.75   42.84
   3  -1   7  220.70   36.65
  -3   1  -6   84.38   17.64
  -3   1  -6  106.84   25.96
   3  -1   6   83.52   29.29
   3  -1   5 1223.96  153.86
   3  -1   4 2110.35  262.82
   3  -1   4 2340.00  280.86
   3  -1   3  372.26   51.55
   3  -1   3  398.40   52.03
  -3   1  -2 3352.07  410.69
  -3   1  -2 1872.67  231.02
  -3   1  -2 2920.37  363.97
   3  -1   2 1862.83  228.09
   3  -1   2 2771.23  325.79
   3  -1   2 2990.48  367.15
  -3   1  -1  348.86   46.19
  -3   1  -1  299.79   39.95
  -3   1  -1  381.50   60.24
   3  -1   1  382.86   50.55
   3  -1   1  284.06   35.74
   3  -1   1  329.97   48.37
  -3   1   0  124.50   21.50
  -3   1   0  120.55   21.01
  -3   1   0  126.34   19.01
   3  -1   0  130.24   29.80
   3  -1   0  103.46   20.39
   3  -1   0  104.56   22.51
  -3   1   1  437.77   59.53
  -3   1   1  396.69   45.09
  -3   1   1  428.39   57.36
  -3   1   1  430.21   56.85
   3  -1  -1  474.85   58.18
   3  -1  -1  332.77   41.01
   3  -1  -1  269.25   39.50
   3  -1  -1  408.86   49.94
  -3   1   2  764.57   97.81
  -3   1   2  689.90   81.34
  -3   1   2  656.74   80.59
  -3   1   2  742.03   97.35
   3  -1  -2  620.40   81.05
   3  -1  -2  610.28   72.18
   3  -1  -2  625.03   75.00
   3  -1  -2  634.45   81.69
  -3   1   3  336.56   48.48
  -3   1   3  318.09   40.62
  -3   1   3  261.62   34.95
  -3   1   3  300.04   41.50
   3  -1  -3  309.34   40.91
   3  -1  -3  284.44   42.88
   3  -1  -3  281.25   36.89
   3  -1  -3  303.94   40.41
  -3   1   4    3.33   12.24
  -3   1   4    3.17    8.38
   3  -1  -4    3.32    7.89
   3  -1  -4    1.77   10.76
   3  -1  -5   93.77   27.80
   3  -1  -5   81.25   23.91
   3  -1  -6  378.92   64.24
   3  -1  -6  334.54   49.53
   3  -1  -7    1.36   16.92
   3  -1  -7    0.76   15.29
   3  -1  -8  679.73  117.36
   3  -1  -8  563.96   99.89
   3  -1  -9  516.93   81.67
   3  -1  -9  611.93   93.82
  -3   1  10   49.88   21.24
   3  -1 -10   81.08   32.23
  -3   1  11   -0.35   16.55
   3  -1 -11    1.09   13.62
  -3   1  12   13.52   14.70
   3  -1 -12   42.31   21.66
  -3   0 -11  151.23   33.88
  -3   0 -10  110.29   28.81
  -3   0 -10  124.04   21.36
  -3   0  -9   99.81   29.81
  -3   0  -9  125.52   29.35
  -3   0  -8    1.99    6.32
  -3   0  -8    1.01    7.72
   3   0   8    0.01    9.31
  -3   0  -7   28.37   16.78
  -3   0  -7   21.93   18.41
   3   0   7   19.79   16.63
  -3   0  -6 1541.97  200.95
  -3   0  -6 1919.05  237.98
   3   0   6 1521.86  192.16
  -3   0  -5  648.43   86.80
  -3   0  -5  493.42   70.53
   3   0   5  566.05   83.19
  -3   0  -4   28.30   16.44
   3   0   4   25.66   12.99
   3   0   4   10.84   17.41
  -3   0  -3   38.80   11.23
   3   0   3   29.52   17.92
   3   0   3   55.23   15.37
  -3   0  -2   41.70   12.94
   3   0   2   46.95   21.49
   3   0   2   45.55   16.26
   3   0   2   29.28   17.13
  -3   0  -1    1.19    9.50
   3   0   1    1.85    7.30
   3   0   1    1.02    9.64
   3   0   1    0.93    4.62
  -3   0   0  443.65   67.84
  -3   0   0  406.72   57.88
   3   0   0  434.30   62.80
   3   0   0  254.66   36.37
   3   0   0  358.26   43.02
  -3   0   1 1051.54  141.42
  -3   0   1  934.10  123.53
   3   0  -1  883.40  113.67
   3   0  -1  880.19  117.75
   3   0  -1  748.03   90.93
  -3   0   2 1822.50  218.39
  -3   0   2 2349.37  289.75
   3   0  -2 2046.70  243.50
   3   0  -2 1984.80  244.51
   3   0  -2 1588.64  187.73
  -3   0   3  444.81   71.06
  -3   0   3  374.54   47.90
   3   0  -3  365.96   48.72
   3   0  -3  384.13   51.82
   3   0  -3  381.27   59.84
  -3   0   4   13.30   11.10
   3   0  -4   13.16   12.60
   3   0  -4   11.39    5.31
   3   0  -4   13.47   10.27
   3   0  -5  174.13   27.84
   3   0  -5  150.17   22.74
   3   0  -5  166.80   35.52
   3   0  -6  119.24   24.46
   3   0  -6  122.18   25.40
   3   0  -7  176.86   34.52
   3   0  -7  172.17   44.71
   3   0  -8 2881.53  395.05
   3   0  -8 2828.95  419.35
   3   0  -9  464.41   89.80
   3   0  -9  474.89   81.61
   3   0 -10    0.01    9.92
   3   0 -10    2.37   16.74
  -3   0  11    0.72    9.22
   3   0 -11    1.06    9.62
  -3   0  12   24.72   28.58
   3   0 -12   36.47   14.83
  -3  -1 -10  119.05   24.12
  -3  -1 -10  152.25   29.91
  -3  -1  -9    8.25    8.89
  -3  -1  -9   11.04   13.17
   3   1   9    0.09   12.98
  -3  -1  -8  126.59   32.71
  -3  -1  -8  142.98   23.79
   3   1   8    3.62   23.80
  -3  -1  -7  376.49   52.21
  -3  -1  -7  307.74   48.26
  -3  -1  -6    8.89    7.71
  -3  -1  -6    4.05   15.54
   3   1   6    2.41   10.06
   3   1   6    1.82   11.09
  -3  -1  -5   31.97   13.31
  -3  -1  -5   36.73   11.90
   3   1   5   33.53   11.72
   3   1   5   16.54   23.75
  -3  -1  -4 2211.12  261.32
   3   1   4 2060.84  248.15
   3   1   4 1334.99  196.93
  -3  -1  -3    8.60   11.48
   3   1   3    4.36   11.52
   3   1   3    7.44   14.13
  -3  -1  -2    3.75    8.62
   3   1   2    3.58    7.31
   3   1   2    1.25    9.01
  -3  -1  -1  701.29   81.18
   3   1   1  750.16   90.44
   3   1   1  608.89   82.92
  -3  -1   0 1480.31  176.12
   3   1   0 1638.21  203.57
   3   1   0 1562.77  199.01
   3   1  -1  778.24   98.94
   3   1  -1  849.74  118.35
   3   1  -2  135.07   26.96
   3   1  -2  162.03   41.86
   3   1  -3   79.12   19.36
   3   1  -3   79.12   20.20
   3   1  -4  102.82   16.61
   3   1  -4   97.72   30.87
   3   1  -5   10.00    7.67
   3   1  -5   13.46    9.83
   3   1  -5   16.04   12.37
  -3  -1   6    1.83    4.56
   3   1  -6    1.98    6.94
   3   1  -6    4.47   18.04
   3   1  -7    1.52    8.07
   3   1  -7    2.30    9.93
   3   1  -8   27.21   15.06
   3   1  -8   34.75   27.58
   3   1  -9    2.61   18.48
   3   1  -9    3.68   19.71
   3   1 -10  119.56   29.13
   3   1 -10  131.76   34.06
   3   1 -11   37.25   28.76
   3   1 -11   34.00   17.14
  -3  -1  12    2.06   11.11
   3   1 -12   10.99   11.23
  -3  -2  -9    0.77    7.25
  -3  -2  -9    0.27    8.10
   3   2   9    0.06    7.98
  -3  -2  -8  133.39   23.20
  -3  -2  -8  147.97   29.16
   3   2   8   25.08   24.85
  -3  -2  -7   10.20   15.64
  -3  -2  -7   13.41    9.46
   3   2   7    2.57   13.07
  -3  -2  -6   23.27   16.28
  -3  -2  -6   18.50   11.36
   3   2   6   11.64   15.92
  -3  -2  -5   55.84   15.85
  -3  -2  -5   69.53   21.52
   3   2   5   56.15   11.85
   3   2   5   42.01   21.36
  -3  -2  -4   60.57   14.37
   3   2   4   56.08   16.65
   3   2   4   42.23   21.18
  -3  -2  -3    8.79   10.19
   3   2   3   10.45   11.41
   3   2   3    4.25   23.39
  -3  -2  -2  321.66   40.79
   3   2   2  404.92   55.75
   3   2   2  346.16   55.04
  -3  -2  -1  205.46   29.78
   3   2   1  264.17   44.97
   3   2   0  193.15   28.13
   3   2   0  190.21   36.59
   3   2  -1  116.93   25.82
   3   2  -1  107.45   25.37
   3   2  -2  292.37   39.27
   3   2  -2  294.25   49.20
   3   2  -3  139.13   23.00
   3   2  -3  147.19   43.82
   3   2  -4    2.16   11.64
   3   2  -4    4.46   10.73
   3   2  -5  221.63   41.80
   3   2  -5  190.24   35.89
  -3  -2   6  910.43  124.21
   3   2  -6 1120.88  165.48
  -3  -2   7    4.44    9.84
   3   2  -7    3.13   13.29
   3   2  -7    7.65   11.43
   3   2  -8   23.14   19.50
   3   2  -8   52.29   27.23
   3   2  -9   12.50   11.98
   3   2  -9   23.20   14.24
   3   2 -10    0.26   12.46
   3   2 -10    0.25   13.22
   3   2 -11    0.00   15.02
   3   2 -11    3.05    9.73
  -3  -2  12    8.29   11.04
   3   2 -12   13.46   17.19
  -3  -3  -8   86.31   18.19
   3   3   8   25.18   18.55
  -3  -3  -7  141.19   27.59
  -3  -3  -7  204.14   36.89
   3   3   7  106.67   35.43
  -3  -3  -6  307.65   44.10
  -3  -3  -6  276.12   46.10
   3   3   6  224.15   44.62
  -3  -3  -5    8.46   13.03
  -3  -3  -5    9.06   11.84
   3   3   5    6.64   13.39
  -3  -3  -4  260.42   38.97
  -3  -3  -4  265.77   42.75
   3   3   4  263.47   49.25
   3   3   4  278.73   38.54
  -3  -3  -3  185.82   32.75
   3   3   3  242.55   31.46
   3   3   3  206.25   54.50
   3   3   2  497.85   61.78
   3   3   2  446.56   87.35
   3   3   1 1084.40  133.12
   3   3   1  996.37  160.80
   3   3   0  203.87   30.50
   3   3   0  194.68   42.53
   3   3  -1   71.08   22.91
   3   3  -1   57.16   22.73
   3   3  -2   46.24   14.66
   3   3  -2   41.57   21.27
   3   3  -3   94.45   20.77
   3   3  -3   91.26   42.29
   3   3  -4  152.84   38.27
   3   3  -4  124.01   41.49
  -3  -3   5    4.35    8.16
   3   3  -5    6.42   20.00
  -3  -3   6   47.68   13.97
   3   3  -6   59.37   20.46
  -3  -3   7   28.28   16.57
   3   3  -7   42.50   28.71
  -3  -3   8   78.02   18.33
   3   3  -8  151.77   30.73
   3   3  -9   23.36   12.58
   3   3  -9   64.72   26.98
   3   3 -10   82.84   32.42
   3   3 -10  161.25   33.82
   3   3 -11   59.98   27.27
   3   3 -11   98.67   32.02
  -3  -3  12    0.89    6.94
   3   3 -12    3.83   11.04
  -3  -4  -6   13.17   12.83
   3   4   6   11.10   11.09
  -3  -4  -5   11.09   12.69
   3   4   5    6.10    9.14
   3   4   5    8.12   19.93
  -3  -4  -4   17.33    8.35
   3   4   4   -0.01   10.46
   3   4   4   25.79   23.99
  -3  -4  -3    1.56    3.86
   3   4   3    1.01   19.30
   3   4   2   24.16   18.75
   3   4   2   28.18    9.41
   3   4   1    4.88   11.79
   3   4   1    2.73   24.65
   3   4   0   12.65   16.91
   3   4   0   12.25   16.34
   3   4  -1 1121.74  149.69
   3   4  -1  745.87  174.11
   3   4  -2 1314.04  180.53
   3   4  -2 1198.57  203.76
  -3  -4   3  479.51   69.68
   3   4  -3  495.20   98.97
  -3  -4   4  414.91   70.75
   3   4  -4  392.98   63.55
  -3  -4   5   14.45   10.13
   3   4  -5   17.67   14.46
  -3  -4   6  133.38   27.12
   3   4  -6  151.84   32.29
  -3  -4   7   63.85   23.79
   3   4  -7   87.45   31.35
  -3  -4   8  102.19   26.38
   3   4  -8  157.92   32.03
  -3  -4   9   61.64   21.78
   3   4  -9  122.35   33.76
  -3  -4  10    8.47   10.16
   3   4 -10   22.30   10.90
   3   4 -11    0.67    5.10
   3   5   4  132.41   36.52
   3   5   3   65.03   28.69
   3   5   2    4.28   17.69
  -3  -5  -1   21.25    7.06
   3   5   1   29.79   17.78
  -3  -5   0  186.85   31.50
   3   5   0  227.40   57.96
  -3  -5   1   81.12   21.08
   3   5  -1   94.94   30.20
  -3  -5   2  192.52   36.78
   3   5  -2  199.50   51.48
  -3  -5   3    4.49    7.70
   3   5  -3    3.17   19.00
  -3  -5   4   25.73   17.41
   3   5  -4   25.85   21.69
  -3  -5   5    7.35    8.48
   3   5  -5    8.18   17.65
  -3  -5   6   28.08   12.97
   3   5  -6   37.86   16.23
  -3  -5   7   23.52   13.08
   3   5  -7   30.82   18.74
  -3  -5   8   52.02   16.34
   3   5  -8   73.52   17.52
  -3  -5   9    1.90    9.95
   3   5  -9    2.21    9.27
   3   6   0   60.02   25.29
  -3  -6   1   67.14   24.11
   3   6  -1  114.26   26.49
  -3  -6   2   81.86   20.59
   3   6  -2   91.80   27.10
  -3  -6   3    1.92    8.81
   3   6  -3   10.69   13.74
  -3  -6   4   61.49   16.68
   3   6  -4   60.80   22.64
  -3  -6   5    4.36   11.74
   3   6  -5    4.56   12.25
  -3  -6   6    0.68    5.50
   3   6  -6    1.48    7.78
  -4   8  -4   74.50   19.84
   4  -8   4   57.43   15.73
  -4   8  -3   63.35   21.74
   4  -8   3   51.03   12.72
  -4   8  -2   54.29   20.15
   4  -8   2   53.95   13.29
  -4   8  -1   24.14   16.46
   4  -8   1   28.36   14.89
  -4   8   0   69.64   15.14
   4  -8   0   76.27   21.53
  -4   8   1   29.03   18.33
   4  -8  -1   36.39   18.52
   4  -7   8   72.05   16.95
  -4   7  -7   14.13    5.16
   4  -7   7   13.66   18.35
  -4   7  -6    0.06    5.08
   4  -7   6    0.20   10.23
   4  -7   6    0.35    4.94
  -4   7  -5   86.59   22.52
   4  -7   5  107.77   17.37
   4  -7   5   15.40   20.25
  -4   7  -4  124.07   23.20
   4  -7   4  142.43   23.23
  -4   7  -3    1.12   10.03
   4  -7   3    0.08   10.13
  -4   7  -2   66.37   24.21
   4  -7   2   80.48   18.73
  -4   7  -1  488.36   83.02
   4  -7   1  644.45   90.20
  -4   7   0   31.72   16.94
   4  -7   0   53.35   30.38
  -4   7   1   19.18   13.50
   4  -7  -1   21.67   14.70
  -4   7   2    1.38    9.47
   4  -7  -2    2.29   15.38
  -4   7   3   -0.03   12.43
   4  -7  -3    0.56   11.65
  -4   7   4   14.96   18.88
   4  -7  -4   11.69   17.11
   4  -6   9   50.31   15.98
  -4   6  -8  166.85   25.52
   4  -6   8  162.10   45.48
   4  -6   7  151.50   34.63
   4  -6   7  199.73   32.38
   4  -6   6  183.60   50.70
   4  -6   6  339.27   43.87
   4  -6   5   27.77   26.42
   4  -6   5   67.54   14.95
  -4   6  -4    2.75    9.62
   4  -6   4    0.80    8.65
   4  -6   4   -0.00   12.33
  -4   6  -3   83.21   17.00
   4  -6   3   13.83   21.45
   4  -6   3  113.21   29.27
  -4   6  -2  300.51   53.97
   4  -6   2  481.26   73.86
  -4   6  -1  116.16   36.05
   4  -6   1  140.88   42.13
  -4   6   0  104.40   41.32
   4  -6   0  110.96   29.10
  -4   6   1  400.74   80.01
   4  -6  -1  406.36   76.37
  -4   6   2   22.22   19.12
   4  -6  -2   20.25   15.86
  -4   6   3   47.07   23.51
   4  -6  -3   77.59   31.25
  -4   6   4   -0.49   12.54
   4  -6  -4    1.98   15.20
   4  -6  -4    3.39   13.18
   4  -6  -5   16.59   12.19
   4  -6  -5   39.15   20.49
  -4   6   6    0.14   11.70
   4  -6  -6    5.88   11.43
   4  -5  10   74.20   24.50
  -4   5  -9    5.92    6.97
   4  -5   9    5.64   10.14
  -4   5  -8    0.70    7.46
   4  -5   8    0.20   18.11
   4  -5   7  172.04   40.44
   4  -5   7  268.33   36.99
   4  -5   6    0.07    9.71
   4  -5   6    0.35   15.76
   4  -5   5    0.41   15.58
   4  -5   5    0.19    6.03
   4  -5   4  378.40   75.83
   4  -5   4  592.89   76.72
   4  -5   3  233.44   43.77
   4  -5   3  365.41   61.03
  -4   5  -2    0.68    5.96
   4  -5   2    0.28   10.47
   4  -5   2    1.45   13.98
  -4   5  -1  882.40  130.61
   4  -5   1  983.21  131.83
  -4   5   0  601.91  102.93
   4  -5   0  668.21   97.37
   4  -5  -1  149.85   46.22
   4  -5  -1  164.02   34.83
   4  -5  -2  201.50   39.40
   4  -5  -2  223.91   50.86
   4  -5  -3  237.07   55.65
   4  -5  -3  392.89   71.33
   4  -5  -4  148.35   42.86
   4  -5  -4  390.20   70.08
   4  -5  -5   31.27   23.60
   4  -5  -5   75.47   22.05
   4  -5  -6    3.11    7.71
   4  -5  -6    3.53   10.87
   4  -5  -7    1.09    8.00
   4  -5  -7    0.86   14.29
   4  -5  -8   20.75   11.97
  -4   4 -10  134.77   17.24
   4  -4  10  135.85   24.20
  -4   4  -9   37.21   12.13
   4  -4   9   33.53   14.96
  -4   4  -8  272.27   36.43
   4  -4   8  180.63   35.76
  -4   4  -7  184.62   29.26
   4  -4   7  183.62   47.76
   4  -4   6    4.86   27.57
   4  -4   6    9.00   10.01
   4  -4   5  203.61   43.66
   4  -4   5  252.55   49.24
   4  -4   4 1321.27  185.92
   4  -4   4 1389.81  187.13
   4  -4   3  507.76   91.48
   4  -4   3  530.61   81.92
   4  -4   2   18.22   12.74
   4  -4   2   24.30   20.44
   4  -4   1    1.76   12.49
   4  -4   1    1.17   14.31
  -4   4   0   86.80   21.54
   4  -4   0  129.77   36.80
   4  -4  -1  135.37   29.36
   4  -4  -1   97.78   20.95
   4  -4  -2    6.09   20.03
   4  -4  -2    7.38    9.82
   4  -4  -3    8.83   11.95
   4  -4  -3    4.47   18.92
   4  -4  -4    3.78    9.90
   4  -4  -4    2.37   10.78
   4  -4  -5   35.18   14.68
   4  -4  -5   61.00   28.41
   4  -4  -6  179.34   45.04
   4  -4  -7  117.15   36.66
   4  -4  -8   19.48   20.71
   4  -4  -9  211.93   45.70
  -4   3 -10   -0.04    4.66
   4  -3  10   -0.15    6.29
  -4   3  -9   79.70   18.44
   4  -3   9   63.84   16.90
  -4   3  -8    9.54    7.57
   4  -3   8    7.36   19.05
  -4   3  -7   56.09   22.00
   4  -3   7   38.66   29.70
   4  -3   6  235.45   55.45
   4  -3   6  333.50   47.56
   4  -3   5   15.36   12.22
   4  -3   5   12.96   14.86
   4  -3   4  126.42   29.15
   4  -3   4  163.05   39.01
   4  -3   3  161.98   42.64
   4  -3   3  175.72   39.04
   4  -3   2  105.61   34.94
   4  -3   2  107.87   32.56
   4  -3   1  857.26  125.63
   4  -3   1  846.25  117.96
   4  -3   0  654.35   95.90
   4  -3   0  699.56   91.14
   4  -3  -1  147.98   28.53
   4  -3  -2   75.03   26.56
   4  -3  -2   61.58   21.61
   4  -3  -3    7.46    8.90
   4  -3  -3    8.53   10.25
   4  -3  -4    0.25   14.39
   4  -3  -4    3.82    8.34
   4  -3  -5   54.40   17.82
   4  -3  -6  162.47   31.84
   4  -3  -7   25.92   22.97
   4  -3  -8    0.37    7.45
   4  -3  -9   15.91   18.40
   4  -3 -10   25.55   11.34
  -4   2 -10  314.48   47.15
  -4   2  -9  202.07   32.45
   4  -2   9  112.88   21.22
  -4   2  -8  197.29   28.23
   4  -2   8  132.39   26.34
  -4   2  -7  881.76  108.44
   4  -2   7  642.70   90.29
  -4   2  -6  244.22   44.71
   4  -2   6  190.21   47.44
  -4   2  -5   31.64   14.47
   4  -2   5  104.90   34.33
   4  -2   4   88.68   35.28
   4  -2   4   97.92   29.89
   4  -2   3   33.73   26.88
   4  -2   3   41.90   24.19
   4  -2   2   68.21   20.31
   4  -2   2   62.62   25.75
   4  -2   1   47.99   26.24
   4  -2   1   46.43   23.52
   4  -2   0  141.93   36.36
   4  -2   0  119.85   30.68
   4  -2  -1  829.38  114.80
   4  -2  -1  679.29   87.33
   4  -2  -2  347.18   49.40
   4  -2  -2  350.25   52.61
   4  -2  -4   87.05   24.88
   4  -2  -5  285.96   43.56
   4  -2  -6   28.26   20.98
   4  -2  -7   96.57   20.38
   4  -2  -7  194.95   44.49
  -4   2   8    5.86    8.90
   4  -2  -8   23.41   18.95
  -4   2   9   18.72   22.58
   4  -2  -9   63.97   18.13
   4  -2 -10    3.26   13.99
  -4   1  -9   24.56   13.73
   4  -1   9    5.19    6.20
  -4   1  -8  117.14   20.02
   4  -1   8   66.07   15.08
  -4   1  -7  106.97   25.75
   4  -1   7   77.75   19.62
  -4   1  -6  149.73   32.03
   4  -1   6  119.05   34.92
  -4   1  -5  766.21   96.41
   4  -1   5  703.77   96.55
  -4   1  -4   38.88   13.49
   4  -1   4   37.49   17.01
   4  -1   3  598.62   83.14
   4  -1   2 1234.18  172.86
   4  -1   2 1103.31  146.66
   4  -1   1  844.10  110.38
   4  -1   1  651.98   89.40
   4  -1   0  542.47   83.03
   4  -1   0  405.72   53.95
   4  -1  -1  520.63   75.68
   4  -1  -1  377.11   54.30
   4  -1  -2  176.17   30.78
   4  -1  -3   64.30   12.71
   4  -1  -3   57.45   19.22
   4  -1  -4   28.07   16.88
   4  -1  -5  113.54   29.48
   4  -1  -6   10.63   16.41
   4  -1  -6    7.97   15.92
   4  -1  -7   12.48   17.55
   4  -1  -7   11.41   11.36
   4  -1  -8    7.67   17.25
   4  -1  -8    8.25    9.76
  -4   1   9   -0.04    8.88
   4  -1  -9    8.23    9.90
  -4   1  10    1.15   17.99
   4  -1 -10    5.22   15.57
  -4   1  11   90.43   49.31
   4  -1 -11  234.87   41.86
  -4   0  -9  358.62   53.01
  -4   0  -8  141.20   20.99
   4   0   8   36.84    8.61
  -4   0  -7  195.67   35.97
   4   0   7   84.96   19.03
  -4   0  -6    9.61   12.63
   4   0   6    3.99   12.33
  -4   0  -5    1.39    9.53
   4   0   5    0.14   11.64
  -4   0  -4  223.52   39.63
   4   0   4  223.62   36.04
  -4   0  -3  758.47  102.36
   4   0   3  819.32  107.37
  -4   0  -2  277.72   39.33
   4   0   2  316.64   48.74
  -4   0  -1  217.14   35.36
   4   0   1  276.81   50.58
   4   0   1  157.82   37.11
   4   0   0    0.82    6.92
   4   0   0    0.65    6.48
   4   0  -1   25.88   15.29
   4   0  -1   22.21   12.05
   4   0  -2   76.52   21.94
   4   0  -2   63.95   17.74
   4   0  -3  236.10   34.53
   4   0  -3  220.35   45.40
   4   0  -4  357.67   52.43
   4   0  -4  408.40   71.65
   4   0  -5  542.95   87.50
   4   0  -6    0.94    7.78
   4   0  -7   45.52   20.72
   4   0  -7   73.04   20.78
   4   0  -8   17.74   16.87
   4   0  -8   32.31   23.04
   4   0  -9   12.43   10.03
   4   0  -9   16.26   19.54
   4   0 -10  141.82   30.95
   4   0 -10  107.20   33.32
  -4   0  11  243.94   75.59
   4   0 -11  238.80   57.66
  -4  -1  -8  223.66   32.15
  -4  -1  -7  187.15   25.80
   4   1   7   36.96   13.90
  -4  -1  -6    3.51    6.29
   4   1   6    1.43    7.28
  -4  -1  -5  489.22   65.05
   4   1   5  412.64   59.61
  -4  -1  -4   79.03   15.69
   4   1   4   87.53   21.90
  -4  -1  -3    8.56    9.90
   4   1   3   11.32    7.97
   4   1   3    1.97   14.08
  -4  -1  -2  145.35   22.29
   4   1   2  204.43   29.97
   4   1   2  105.94   33.91
   4   1   1  600.44   83.59
   4   1   1  422.57   75.74
   4   1   0   18.51   16.92
   4   1   0   15.04   14.23
   4   1  -1    8.17   14.12
   4   1  -1    6.05   11.11
   4   1  -2  311.54   44.66
   4   1  -2  269.17   47.11
   4   1  -3  606.42   81.23
   4   1  -3  536.64   81.43
   4   1  -4   77.78   17.56
   4   1  -4   71.99   22.22
   4   1  -5    9.88   13.13
   4   1  -5   10.51   21.42
   4   1  -6    0.16   11.61
   4   1  -7    1.63    8.87
   4   1  -8   10.42   12.00
   4   1  -9    5.13    6.84
   4   1  -9   15.20   19.71
   4   1 -10    0.30    6.28
   4   1 -10   -0.07    6.17
  -4  -1  11    2.02    8.35
  -4  -2  -6    1.41    6.47
   4   2   6    0.10    4.27
  -4  -2  -5   19.55    7.44
   4   2   5    0.47   13.13
   4   2   5   17.56    8.91
  -4  -2  -4   10.94    6.98
   4   2   4   18.29    7.22
   4   2   4    3.86   15.57
   4   2   3  178.83   31.09
   4   2   3   68.06   29.01
   4   2   2    2.29    9.88
   4   2   2    0.90    9.51
   4   2   1   27.39   16.95
   4   2   1   20.29   24.98
   4   2   0   54.96   21.37
   4   2   0   48.37   21.90
   4   2  -1  295.25   43.66
   4   2  -1  228.24   56.50
   4   2  -2  227.16   44.89
   4   2  -2  169.06   49.76
   4   2  -3  112.84   30.86
   4   2  -3   85.96   36.21
   4   2  -4   13.03   15.11
   4   2  -4   14.62   23.36
  -4  -2   5  171.84   29.79
   4   2  -5  236.50   54.77
  -4  -2   6    0.05    3.98
   4   2  -6    0.95    7.35
  -4  -2   7    0.00    7.55
   4   2  -7    6.12    9.70
   4   2  -8  133.21   39.09
   4   2  -9   82.96   23.41
   4   2 -10    0.07   10.00
   4   3   5   74.91   13.83
  -4  -3  -4   39.76   10.88
   4   3   4  143.32   32.03
   4   3   3   55.45   28.45
   4   3   3   73.52   16.44
   4   3   2   69.19   14.24
   4   3   2   53.24   31.21
   4   3   1  186.14   34.60
   4   3   1  157.18   38.27
   4   3   0  136.78   24.94
   4   3   0  116.19   48.90
   4   3  -1  459.47   66.49
   4   3  -1  370.04   66.49
   4   3  -2  374.04   68.57
   4   3  -2  249.87   63.52
   4   3  -3   53.01   18.60
   4   3  -3   37.57   30.54
  -4  -3   4   26.58   12.63
   4   3  -4   25.33   25.23
  -4  -3   5   12.59    9.07
   4   3  -5   15.29   23.39
  -4  -3   6   18.05    9.75
   4   3  -6   21.46   13.05
  -4  -3   7   51.83   20.10
   4   3  -7   98.45   23.39
  -4  -3   8    0.37    5.49
   4   3  -8   -0.02   11.11
   4   3  -9    4.14    8.15
   4   4   2   47.81   17.32
  -4  -4  -1    7.38    8.04
   4   4   1    4.48   10.05
  -4  -4   0   20.12   13.08
   4   4   0   16.44   20.52
  -4  -4   1   13.65   13.27
   4   4  -1    9.99   12.04
  -4  -4   2   19.33   14.51
   4   4  -2   33.20   24.96
  -4  -4   3  126.99   24.16
   4   4  -3  163.90   46.22
  -4  -4   4  313.52   52.25
   4   4  -4  289.90   53.49
  -4  -4   5  401.22   71.04
   4   4  -5  426.02   73.70
  -4  -4   6   74.55   25.75
   4   4  -6   98.63   32.09
  -4  -4   7   10.68    9.36
   4   4  -7   28.00   17.28
   5  -7   2  115.12   20.04
   5  -7   1   10.98   12.89
   5  -6   5   41.63   16.37
   5  -6   5  126.34   25.79
   5  -6   4   47.45   16.10
   5  -6   4  180.97   31.27
   5  -6   3   97.97   26.77
   5  -6   2   12.52   14.67
   5  -6   1   10.61    9.52
   5  -6   0   21.64   17.02
   5  -6  -1  208.10   33.76
   5  -6  -2    1.33    5.81
   5  -6  -3   50.42   12.57
  -5   5  -6   18.31    8.45
   5  -5   6    5.99    8.90
   5  -5   5   21.69   11.79
   5  -5   5   79.87   16.89
   5  -5   4   77.96   18.65
   5  -5   4  202.37   30.81
   5  -5   3    8.31   13.66
   5  -5   3   22.57   12.05
   5  -5   2   89.63   20.68
   5  -5   1  399.95   68.52
   5  -5   0   56.51   24.58
   5  -5  -1   21.66   17.39
   5  -5  -2  102.78   21.00
   5  -5  -3  129.54   22.63
   5  -5  -4   11.65    9.87
  -5   4  -7  140.14   20.45
   5  -4   7   74.15   17.92
  -5   4  -6   65.69   14.42
   5  -4   6   30.82   21.06
  -5   4  -5   98.68   19.56
   5  -4   5   69.36   19.49
   5  -4   4   90.54   22.40
   5  -4   4  153.43   34.63
   5  -4   3   10.12   16.14
   5  -4   3   10.58   16.42
   5  -4   2   57.36   16.91
   5  -4   2  100.56   33.10
   5  -4   1  420.86   61.21
   5  -4   1  918.40  116.19
   5  -4   0   22.92   20.58
   5  -4  -1    9.47    9.32
   5  -4  -2    1.23    9.89
   5  -4  -3    0.59    7.69
   5  -4  -5    0.89    5.87
   5  -4  -6    3.06   11.32
  -5   3  -7   45.88   10.13
   5  -3   7   28.27   10.66
  -5   3  -6   69.35   14.63
   5  -3   6   47.37   23.58
  -5   3  -5    2.83   10.97
   5  -3   5    1.27    8.55
  -5   3  -4  281.22   41.76
   5  -3   4  212.49   39.69
   5  -3   3   77.43   21.49
   5  -3   3   96.78   21.33
   5  -3   2    1.77   15.15
   5  -3   2    4.52    8.15
   5  -3   1    3.21    7.53
   5  -3   1    8.37   14.42
   5  -3   0    5.58    6.68
   5  -3   0   11.17    8.85
   5  -3  -1  188.21   35.76
   5  -3  -2  208.95   31.29
   5  -3  -6    0.79    6.51
   5  -3  -7    1.42    6.39
  -5   2  -7  199.75   27.02
   5  -2   7  132.91   26.97
  -5   2  -6  203.42   33.26
   5  -2   6  138.53   30.10
  -5   2  -5  183.47   33.26
   5  -2   5  141.15   26.45
  -5   2  -4  352.83   54.90
   5  -2   4  293.91   46.18
  -5   2  -3   91.01   25.23
   5  -2   3   80.44   21.03
  -5   2  -2  303.70   43.08
   5  -2   2  295.52   54.57
   5  -2   1    0.67    4.82
   5  -2   1    0.08    5.85
   5  -2   0   10.42   11.10
   5  -2   0    9.89   11.34
   5  -2  -1    0.89    7.46
  -5   1  -6   19.72   11.48
   5  -1   6   14.99   11.35
  -5   1  -5   66.31   17.66
   5  -1   5   54.77   12.91
  -5   1  -4  107.12   22.32
   5  -1   4  102.35   24.67
  -5   1  -3  104.56   22.43
   5  -1   3  127.42   31.28
  -5   1  -2  114.96   19.39
   5  -1   2  124.19   28.58
  -5   1  -1  118.67   23.94
   5  -1   1  154.00   26.21
   5  -1   0  245.17   45.14
   5  -1  -1  433.87   67.22
   5  -1  -2  173.67   32.10
  -5   0  -5   63.18   15.08
   5   0   5   85.76   15.05
  -5   0  -4    4.04    4.77
   5   0   4    3.61   10.03
  -5   0  -3   11.02    8.16
   5   0   3   20.84    9.33
   5   0   2    4.83    7.17
   5   0   1  137.50   31.78
   5   0   0  390.43   56.24
   5   0  -1    0.37   10.05
   5   0  -2   82.32   22.39
   5   0  -3    4.55    9.63
   5   0  -4    7.47    6.05
   5   0  -4    5.87   10.06
   5   0  -5    7.45   11.02
   5   0  -6   67.09   21.70
   5   0  -7   57.56   20.30
   5   1   4   33.62    8.67
   5   1   3   31.31   13.50
   5   1   2  174.33   27.19
   5   1   1   35.14   11.28
   5   1   0    4.40   10.62
   5   1   0    1.10    8.74
   5   1  -1  101.59   20.00
   5   1  -1   36.28   13.66
   5   1  -2  266.90   45.17
   5   1  -2  123.38   29.76
   5   1  -3    0.81   10.00
   5   1  -3    0.76    8.47
  -5  -1   4    0.17    3.50
   5   1  -4   -0.58    4.29
   5   1  -5   99.31   21.59
   5   1  -6   23.38   16.01
   5   1  -7   12.60   13.57
   5   2   1   13.23   12.16
   5   2   0   59.97   18.34
   5   2   0   17.26   13.96
   5   2  -1   -0.07    4.08
   5   2  -1    0.09    5.62
  -5  -2   2    0.09    5.55
   5   2  -2    2.47    9.41
  -5  -2   3   18.51    8.85
   5   2  -3   11.08    8.11
  -5  -2   4  142.77   27.88
   5   2  -4  127.43   26.44
   5   2  -5   27.58   10.51
   5   2  -6    0.01    3.36
;
_shelx_hkl_checksum              92863
loop_
_space_group_symop_id
_space_group_symop_operation_xyz
1 +X,+Y,+Z
2 -X,-Y,-Z
loop_
_atom_site_label
_atom_site_type_symbol
_atom_site_fract_x
_atom_site_fract_y
_atom_site_fract_z
_atom_site_U_iso_or_equiv
_atom_site_adp_type
_atom_site_occupancy
_atom_site_site_symmetry_order
_atom_site_calc_flag
_atom_site_refinement_flags_posn
_atom_site_refinement_flags_adp
S1 S 0.44761(16) 0.76200(9) 0.47246(6) 0.0462(3) Uani 1 1 d . .
O1 O 0.0355(5) 0.9547(3) 0.3127(2) 0.0625(7) Uani 1 1 d . .
O2 O -0.4113(5) 0.6339(3) 0.17129(19) 0.0595(7) Uani 1 1 d . .
N1 N -0.1835(5) 0.4617(3) 0.2537(2) 0.0425(7) Uani 1 1 d . .
C1 C -0.2266(7) 0.6237(4) 0.2337(3) 0.0467(8) Uani 1 1 d . .
C2 C 0.0107(7) 0.7930(4) 0.3116(3) 0.0464(8) Uani 1 1 d . .
C3 C 0.1647(6) 0.7036(4) 0.3717(3) 0.0430(8) Uani 1 1 d . .
C4 C 0.0478(6) 0.5121(4) 0.3356(2) 0.0390(7) Uani 1 1 d . .
C5 C 0.1796(6) 0.4077(4) 0.3869(2) 0.0383(7) Uani 1 1 d . .
H5 H 0.124485 0.275962 0.371102 0.046 Uiso 1 1 calc R U
C6 C 0.4046(6) 0.5264(4) 0.4650(2) 0.0399(7) Uani 1 1 d . .
C7 C -0.3547(6) 0.2696(4) 0.1983(3) 0.0487(8) Uani 1 1 d . .
H7A H -0.524556 0.274524 0.156728 0.058 Uiso 1 1 calc R U
H7B H -0.415539 0.201341 0.256473 0.058 Uiso 1 1 calc R U
C8 C -0.2003(7) 0.1620(4) 0.1174(3) 0.0500(9) Uani 1 1 d . .
H8A H -0.326390 0.035265 0.084454 0.060 Uiso 1 1 calc R U
H8B H -0.036966 0.150166 0.159790 0.060 Uiso 1 1 calc R U
C9 C -0.0987(8) 0.2552(5) 0.0220(3) 0.0636(10) Uani 1 1 d . .
H9A H -0.001938 0.180311 -0.026798 0.076 Uiso 1 1 calc R U
H9B H -0.259616 0.264780 -0.021604 0.076 Uiso 1 1 calc R U
H9C H 0.029981 0.379749 0.053777 0.076 Uiso 1 1 calc R U
loop_
_atom_site_aniso_label
_atom_site_aniso_U_11
_atom_site_aniso_U_22
_atom_site_aniso_U_33
_atom_site_aniso_U_23
_atom_site_aniso_U_13
_atom_site_aniso_U_12
S1 0.0488(6) 0.0353(5) 0.0521(6) 0.0094(4) -0.0098(4) 0.0119(4)
O1 0.0750(18) 0.0433(14) 0.0701(16) 0.0168(12) -0.0158(13) 0.0200(12)
O2 0.0575(15) 0.0610(15) 0.0610(15) 0.0149(12) -0.0136(12) 0.0221(12)
N1 0.0415(15) 0.0388(14) 0.0446(15) 0.0057(11) -0.0067(12) 0.0130(11)
C1 0.048(2) 0.0509(19) 0.0461(19) 0.0152(15) 0.0011(15) 0.0204(15)
C2 0.050(2) 0.0428(18) 0.0483(19) 0.0139(15) -0.0022(15) 0.0151(15)
C3 0.0416(17) 0.0363(17) 0.0494(18) 0.0097(14) -0.0049(14) 0.0109(13)
C4 0.0390(17) 0.0364(16) 0.0421(17) 0.0083(13) 0.0044(13) 0.0132(13)
C5 0.0396(17) 0.0332(15) 0.0427(18) 0.0081(13) 0.0017(13) 0.0130(13)
C6 0.0421(18) 0.0352(16) 0.0428(18) 0.0094(13) 0.0009(14) 0.0130(13)
C7 0.0428(19) 0.0442(19) 0.0522(19) 0.0073(15) -0.0050(15) 0.0069(15)
C8 0.053(2) 0.0418(18) 0.051(2) 0.0053(15) -0.0084(16) 0.0140(15)
C9 0.074(3) 0.061(2) 0.059(2) 0.0119(18) 0.0088(18) 0.0261(19)
loop_
_atom_type_symbol
_atom_type_description
_atom_type_scat_dispersion_real
_atom_type_scat_dispersion_imag
_atom_type_scat_source
C C 0.0181 0.0091
;
International Tables for Crystallography
(Vol. C, Tables 4.2.6.8 and 6.1.1.4)
;
H H 0.0000 0.0000
;
International Tables for Crystallography
(Vol. C, Table 6.1.1.4)
;
O O 0.0492 0.0322
;
International Tables for Crystallography
(Vol. C, Tables 4.2.6.8 and 6.1.1.4)
;
N N 0.0311 0.0180
;
International Tables for Crystallography
(Vol. C, Tables 4.2.6.8 and 6.1.1.4)
;
S S 0.3331 0.5567
;
International Tables for Crystallography
(Vol. C, Tables 4.2.6.8 and 6.1.1.4)
;
loop_
_geom_angle_atom_site_label_1
_geom_angle_atom_site_label_2
_geom_angle_atom_site_label_3
_geom_angle
_geom_angle_site_symmetry_1
_geom_angle_site_symmetry_3
C3 S1 C6 90.66(13) . .
C1 N1 C4 108.7(2) . .
C1 N1 C7 125.4(3) . .
C4 N1 C7 125.9(2) . .
O2 C1 N1 127.0(3) . .
O2 C1 C2 126.5(3) . .
N1 C1 C2 106.5(2) . .
O1 C2 C3 133.3(3) . .
O1 C2 C1 123.1(3) . .
C3 C2 C1 103.5(2) . .
C4 C3 C2 108.9(3) . .
C4 C3 S1 111.5(2) . .
C2 C3 S1 139.6(2) . .
C3 C4 C5 114.8(3) . .
C3 C4 N1 112.3(3) . .
C5 C4 N1 132.8(3) . .
C4 C5 C6 110.3(3) . .
C4 C5 H5 124.8 . .
C6 C5 H5 124.8 . .
C5 C6 C6 127.6(3) . 2_666
C5 C6 S1 112.7(2) . .
C6 C6 S1 119.7(3) 2_666 .
N1 C7 C8 113.6(3) . .
N1 C7 H7A 108.9 . .
C8 C7 H7A 108.9 . .
N1 C7 H7B 108.9 . .
C8 C7 H7B 108.9 . .
H7A C7 H7B 107.7 . .
C7 C8 C9 113.3(3) . .
C7 C8 H8A 108.9 . .
C9 C8 H8A 108.9 . .
C7 C8 H8B 108.9 . .
C9 C8 H8B 108.9 . .
H8A C8 H8B 107.7 . .
C8 C9 H9A 109.5 . .
C8 C9 H9B 109.5 . .
H9A C9 H9B 109.5 . .
C8 C9 H9C 109.5 . .
H9A C9 H9C 109.5 . .
H9B C9 H9C 109.5 . .
loop_
_geom_bond_atom_site_label_1
_geom_bond_atom_site_label_2
_geom_bond_distance
_geom_bond_site_symmetry_2
S1 C3 1.716(3) .
S1 C6 1.736(3) .
O1 C2 1.206(3) .
O2 C1 1.198(3) .
N1 C1 1.386(4) .
N1 C4 1.397(3) .
N1 C7 1.467(3) .
C1 C2 1.573(4) .
C2 C3 1.435(4) .
C3 C4 1.377(4) .
C4 C5 1.392(4) .
C5 C6 1.393(4) .
C5 H5 0.9400 .
C6 C6 1.446(5) 2_666
C7 C8 1.516(4) .
C7 H7A 0.9800 .
C7 H7B 0.9800 .
C8 C9 1.527(4) .
C8 H8A 0.9800 .
C8 H8B 0.9800 .
C9 H9A 0.9700 .
C9 H9B 0.9700 .
C9 H9C 0.9700 .
loop_
_geom_torsion_atom_site_label_1
_geom_torsion_atom_site_label_2
_geom_torsion_atom_site_label_3
_geom_torsion_atom_site_label_4
_geom_torsion
_geom_torsion_site_symmetry_4
C4 N1 C1 O2 -177.6(3) .
C7 N1 C1 O2 2.0(5) .
C4 N1 C1 C2 1.0(3) .
C7 N1 C1 C2 -179.4(3) .
O2 C1 C2 O1 -2.9(6) .
N1 C1 C2 O1 178.6(3) .
O2 C1 C2 C3 177.2(3) .
N1 C1 C2 C3 -1.4(3) .
O1 C2 C3 C4 -178.7(4) .
C1 C2 C3 C4 1.2(4) .
O1 C2 C3 S1 0.5(7) .
C1 C2 C3 S1 -179.5(3) .
C6 S1 C3 C4 -0.1(2) .
C6 S1 C3 C2 -179.4(4) .
C2 C3 C4 C5 179.5(3) .
S1 C3 C4 C5 0.1(4) .
C2 C3 C4 N1 -0.7(4) .
S1 C3 C4 N1 179.83(19) .
C1 N1 C4 C3 -0.3(3) .
C7 N1 C4 C3 -179.8(3) .
C1 N1 C4 C5 179.5(3) .
C7 N1 C4 C5 -0.1(5) .
C3 C4 C5 C6 0.1(4) .
N1 C4 C5 C6 -179.6(3) .
C4 C5 C6 C6 -179.5(4) 2_666
C4 C5 C6 S1 -0.2(3) .
C3 S1 C6 C5 0.2(2) .
C3 S1 C6 C6 179.6(4) 2_666
C1 N1 C7 C8 110.4(3) .
C4 N1 C7 C8 -70.1(4) .
N1 C7 C8 C9 -59.3(3) .
