#------------------------------------------------------------------------------
#$Date: 2019-11-22 21:45:16 +0200 (Fri, 22 Nov 2019) $
#$Revision: 231376 $
#$URL: file:///home/coder/svn-repositories/cod/cif/4/51/65/4516551.cif $
#------------------------------------------------------------------------------
#
# This file is available in the Crystallography Open Database (COD),
# http://www.crystallography.net/
#
# All data on this site have been placed in the public domain by the
# contributors.
#
data_4516551
loop_
_publ_author_name
'Carlotto, Silvia'
'Casarin, Maurizio'
'Lanza, Arianna'
'Nestola, Fabrizio'
'Pandolfo, Luciano'
'Pettinari, Claudio'
'Scatena, Rebecca'
_publ_section_title
;
 Reaction of Copper(II) Chloroacetate with Pyrazole. Synthesis of a
 One-Dimensional Coordination Polymer and Unexpected Dehydrochlorination
 Reaction
;
_journal_issue                   12
_journal_name_full               'Crystal Growth &amp; Design'
_journal_page_first              5910
_journal_paper_doi               10.1021/acs.cgd.5b01365
_journal_volume                  15
_journal_year                    2015
_chemical_formula_moiety         'C10 H12 Cl2 Cu N4 O4'
_chemical_formula_sum            'C10 H12 Cl2 Cu N4 O4'
_chemical_formula_weight         386.69
_space_group_crystal_system      triclinic
_space_group_IT_number           2
_space_group_name_Hall           '-P 1'
_space_group_name_H-M_alt        'P -1'
_atom_sites_solution_hydrogens   geom
_atom_sites_solution_primary     direct
_atom_sites_solution_secondary   difmap
_audit_creation_method           SHELXL-2014/7
_cell_angle_alpha                73.150(4)
_cell_angle_beta                 83.485(4)
_cell_angle_gamma                77.841(4)
_cell_formula_units_Z            1
_cell_length_a                   5.0783(2)
_cell_length_b                   7.5176(4)
_cell_length_c                   9.9479(4)
_cell_measurement_reflns_used    5834
_cell_measurement_temperature    296(2)
_cell_measurement_theta_max      31.5770
_cell_measurement_theta_min      2.1190
_cell_volume                     354.76(3)
_computing_cell_refinement
;
CrysAlisPro, Agilent Technologies,
Version 1.171.37.35 (release 13-08-2014 CrysAlis171 .NET)
(compiled Aug 13 2014,18:06:01)
;
_computing_data_collection
;
CrysAlisPro, Agilent Technologies,
Version 1.171.37.35 (release 13-08-2014 CrysAlis171 .NET)
(compiled Aug 13 2014,18:06:01)
;
_computing_data_reduction
;
CrysAlisPro, Agilent Technologies,
Version 1.171.37.35 (release 13-08-2014 CrysAlis171 .NET)
(compiled Aug 13 2014,18:06:01)
;
_computing_structure_refinement  'SHELXL-2014/7 (Sheldrick, 2014)'
_computing_structure_solution    SIR-92
_diffrn_ambient_temperature      296(2)
_diffrn_detector                 'CCD plate'
_diffrn_detector_type            'Pilatus 200/300K'
_diffrn_measured_fraction_theta_full 1.000
_diffrn_measured_fraction_theta_max 0.924
_diffrn_measurement_device       'four-circle diffractometer'
_diffrn_measurement_device_type
'SuperNova, Single source at offset, Pilatus 200/300K'
_diffrn_radiation_monochromator  mirror
_diffrn_radiation_probe          x-ray
_diffrn_radiation_type           'Mo K\a'
_diffrn_radiation_wavelength     0.71073
_diffrn_reflns_av_R_equivalents  0.0277
_diffrn_reflns_av_unetI/netI     0.0261
_diffrn_reflns_Laue_measured_fraction_full 1.000
_diffrn_reflns_Laue_measured_fraction_max 0.924
_diffrn_reflns_limit_h_max       7
_diffrn_reflns_limit_h_min       -7
_diffrn_reflns_limit_k_max       11
_diffrn_reflns_limit_k_min       -11
_diffrn_reflns_limit_l_max       14
_diffrn_reflns_limit_l_min       -14
_diffrn_reflns_number            8910
_diffrn_reflns_point_group_measured_fraction_full 1.000
_diffrn_reflns_point_group_measured_fraction_max 0.924
_diffrn_reflns_theta_full        25.242
_diffrn_reflns_theta_max         32.020
_diffrn_reflns_theta_min         2.142
_diffrn_source                   'SuperNova (Mo) X-ray Source'
_exptl_absorpt_coefficient_mu    1.936
_exptl_absorpt_correction_T_max  0.992
_exptl_absorpt_correction_T_min  0.960
_exptl_absorpt_correction_type   gaussian
_exptl_absorpt_process_details
;
CrysAlisPro, Agilent Technologies,
Version 1.171.37.35 (release 13-08-2014 CrysAlis171 .NET)
(compiled Aug 13 2014,18:06:01)
Numerical absorption correction based on gaussian integration over
			a multifaceted crystal model
Empirical absorption correction using spherical harmonics,
 implemented in SCALE3 ABSPACK scaling algorithm.
;
_exptl_crystal_colour            blue
_exptl_crystal_density_diffrn    1.810
_exptl_crystal_description       plate
_exptl_crystal_F_000             195
_exptl_crystal_size_max          0.2570
_exptl_crystal_size_mid          0.1167
_exptl_crystal_size_min          0.0438
_refine_diff_density_max         0.325
_refine_diff_density_min         -0.317
_refine_diff_density_rms         0.061
_refine_ls_extinction_method     none
_refine_ls_goodness_of_fit_ref   1.048
_refine_ls_hydrogen_treatment    constr
_refine_ls_matrix_type           full
_refine_ls_number_parameters     97
_refine_ls_number_reflns         2279
_refine_ls_number_restraints     0
_refine_ls_restrained_S_all      1.048
_refine_ls_R_factor_all          0.0314
_refine_ls_R_factor_gt           0.0272
_refine_ls_shift/su_max          0.000
_refine_ls_shift/su_mean         0.000
_refine_ls_structure_factor_coef Fsqd
_refine_ls_weighting_details
'w=1/[\s^2^(Fo^2^)+(0.0263P)^2^+0.1305P] where P=(Fo^2^+2Fc^2^)/3'
_refine_ls_weighting_scheme      calc
_refine_ls_wR_factor_gt          0.0635
_refine_ls_wR_factor_ref         0.0659
_reflns_Friedel_coverage         0.000
_reflns_number_gt                2074
_reflns_number_total             2279
_reflns_threshold_expression     'I > 2\s(I)'
_cod_data_source_file            cg5b01365_si_002.cif
_cod_data_source_block           2
_cod_database_code               4516551
_shelx_shelxl_version_number     2014/7
_shelx_space_group_comment
;
The symmetry employed for this shelxl refinement is uniquely defined
by the following loop, which should always be used as a source of
symmetry information in preference to the above space-group names.
They are only intended as comments.
;
_shelx_res_file
;

    shelx.res created by SHELXL-2014/7


TITL 17cuclahpz in P -1
CELL  0.71073   5.0783   7.5176   9.9479   73.150   83.485   77.841
ZERR     2.00   0.0002   0.0004   0.0004    0.004    0.004    0.004
LATT   1
SFAC  C    H    N    O    CL   CU
UNIT  10 12 4 4 2 1
MERG   2
FMAP   2
PLAN    5
HTAB N2 O2
ACTA
L.S.  20

temp 23
WGHT    0.026300    0.130500
FVAR       1.62789
CU1   6    0.000000    0.000000    0.000000    10.50000    0.02290    0.02596 =
         0.02155   -0.00913    0.00235   -0.01103
CL1   5    0.349868    0.251409   -0.469629    11.00000    0.05197    0.06576 =
         0.02581   -0.00895   -0.00188   -0.01589
O1    4    0.213277    0.135044   -0.165951    11.00000    0.02787    0.03461 =
         0.02465   -0.00693    0.00230   -0.01562
O2    4    0.579720    0.201567   -0.099047    11.00000    0.02390    0.03980 =
         0.03266   -0.01282   -0.00107   -0.01002
N1    3    0.009191    0.176416    0.114976    11.00000    0.02520    0.02603 =
         0.02503   -0.00922    0.00016   -0.00940
N2    3    0.190077    0.291700    0.090903    11.00000    0.02801    0.03254 =
         0.03057   -0.01194    0.00264   -0.01395
AFIX  43
H2N   2    0.321710    0.292856    0.028301    11.00000   -1.20000
AFIX   0
C1    1   -0.158667    0.219189    0.219852    11.00000    0.02775    0.03685 =
         0.03193   -0.01513    0.00487   -0.00951
AFIX  43
H1    2   -0.304871    0.161368    0.259234    11.00000   -1.20000
AFIX   0
C2    1   -0.084215    0.361806    0.261652    11.00000    0.04044    0.03497 =
         0.03216   -0.01744   -0.00028   -0.00525
AFIX  43
H2    2   -0.167728    0.416580    0.331974    11.00000   -1.20000
AFIX   0
C3    1    0.138413    0.404169    0.177006    11.00000    0.03985    0.03321 =
         0.03882   -0.01592   -0.00273   -0.01452
AFIX  43
H3    2    0.236396    0.494835    0.178888    11.00000   -1.20000
AFIX   0
C4    1    0.442629    0.179327   -0.187647    11.00000    0.02405    0.02301 =
         0.02542   -0.00409    0.00103   -0.00629
C5    1    0.574452    0.208542   -0.335774    11.00000    0.02987    0.06336 =
         0.02764   -0.00613    0.00429   -0.01498
AFIX  23
H5A   2    0.709481    0.097048   -0.338652    11.00000   -1.20000
H5B   2    0.666966    0.314622   -0.355774    11.00000   -1.20000
AFIX   0
HKLF    4

REM  17cuclahpz in P -1
REM R1 =  0.0272 for    2074 Fo > 4sig(Fo)  and  0.0314 for all    2279 data
REM     97 parameters refined using      0 restraints

END

WGHT      0.0263      0.1304

REM Highest difference peak  0.325,  deepest hole -0.317,  1-sigma level  0.061
Q1    1   0.0028  0.1255  0.0639  11.00000  0.05    0.33
Q2    1  -0.0738  0.1978  0.1614  11.00000  0.05    0.29
Q3    1   0.4981  0.2179 -0.2578  11.00000  0.05    0.29
Q4    1   0.4607  0.1621 -0.4456  11.00000  0.05    0.29
Q5    1   0.0028  0.3827  0.1997  11.00000  0.05    0.28
;
_shelx_res_checksum              58600
_shelx_hkl_file
;
  -7  -4  -5 125.882 17.5686  13
  -7  -4  -4 13.2611 8.36053  12
  -7  -4  -4 6.69017 7.22423  13
  -7  -4  -3 43.0891 11.3093  13
  -7  -4  -2 13.9765 8.20446  13
  -7  -4  -1 161.125 21.0777  13
  -7  -4   0 68.3284 13.2236   2
  -7  -3  -5 170.274 19.8658  12
  -7  -3  -4 67.2250 13.4097  13
  -7  -3  -4 34.0176 10.1927  12
  -7  -3  -3 29.0539 10.4753  13
  -7  -3  -2 41.3373 11.4506  13
  -7  -3  -1 2.34504 5.60968  13
  -7  -3   0 23.9878 9.66319  13
  -7  -3   0 18.1113 8.84840  14
  -7  -3   1 110.628 18.0507  13
  -7  -3   1 138.212 19.4094  14
  -7  -2  -3 76.2506 14.4700  13
  -7  -2  -2 94.4283 15.5828  13
  -7  -2  -1 2.32353 3.93033  13
  -7  -2   0 31.0555 10.4424  13
  -7  -2   1 23.6010 9.51070  14
  -7  -2   1 31.9681 11.2704  13
  -7  -2   2 160.891 21.4697  14
  -7  -1  -5 35.7331 11.4336  18
  -7  -1  -2 37.7478 11.0698  13
  -7  -1  -1 61.8259 13.0685  13
  -7  -1   0 9.53286 7.72022  13
  -7  -1   1 14.7831 8.34011  13
  -7  -1   1 28.4600 9.83068  14
  -7  -1   2 27.2813 9.99367  14
  -7   0   0 103.908 17.3207  13
  -7   0   1 107.959 17.9082  14
  -6  -8  -2 72.4334 14.0397  12
  -6  -7  -6 234.667 23.0725  13
  -6  -7  -5 2.04420 4.89002  13
  -6  -7  -4 25.0071 9.55190  12
  -6  -7  -4 24.4574 8.68287  13
  -6  -7  -3 8.25879 6.37725  12
  -6  -7  -2 81.7967 14.3260  12
  -6  -7  -2 115.034 16.5981  13
  -6  -7  -1 46.7799 11.0835  12
  -6  -7  -1 55.6089 12.4206  13
  -6  -7  -1 54.7492 11.5702   2
  -6  -7   0 267.750 24.7171   2
  -6  -7   0 231.273 22.8839  13
  -6  -7   1 86.3359 14.8023  13
  -6  -6  -8 224.342 22.6319  12
  -6  -6  -8 207.318 22.1240  19
  -6  -6  -8 209.121 21.3200  13
  -6  -6  -7 68.5005 13.1901  12
  -6  -6  -7 102.498 15.0803  13
  -6  -6  -6 99.5144 15.9958  12
  -6  -6  -6 87.0477 14.2576  13
  -6  -6  -5 104.860 15.6182  12
  -6  -6  -5 96.8477 14.6419  13
  -6  -6  -4 40.6583 10.7109  12
  -6  -6  -4 51.8907 11.2153  13
  -6  -6  -3 58.1315 12.2527  13
  -6  -6  -1 112.093 16.0994  13
  -6  -6  -1 78.2999 13.5120   2
  -6  -6   0 96.7319 15.2473  13
  -6  -6   0 114.570 16.1360   2
  -6  -6   1 482.870 32.8559  13
  -6  -6   1 482.401 33.3125   2
  -6  -6   2 113.595 16.5007  13
  -6  -6   2 95.1426 16.2370   2
  -6  -6   3 86.2514 14.8648  13
  -6  -5  -9 34.9800 10.0594  12
  -6  -5  -8 34.4326 10.2895  12
  -6  -5  -7 291.188 25.1200  12
  -6  -5  -7 269.222 23.3596  13
  -6  -5  -6 56.2789 11.8087  12
  -6  -5  -6 66.1279 12.5438  13
  -6  -5  -5 256.327 23.4576  12
  -6  -5  -5 304.057 24.9479  13
  -6  -5  -4 94.3570 14.5491  12
  -6  -5  -4 85.5857 13.8872  13
  -6  -5  -3 257.260 23.0376  13
  -6  -5  -3 235.832 22.1437  12
  -6  -5  -2 50.1164 11.0971  13
  -6  -5  -1 169.924 18.4947   2
  -6  -5  -1 160.451 18.8575  13
  -6  -5   0 19.1534 7.94705   2
  -6  -5   0 53.5758 11.7415  13
  -6  -5   1 213.795 21.7470   2
  -6  -5   1 173.611 19.8854  13
  -6  -5   2 29.6368 9.70364   2
  -6  -5   2 23.3804 8.56627  13
  -6  -5   3-2.21463 5.29770   2
  -6  -5   3-2.14413 5.12906  13
  -6  -5   4 41.3406 10.8504  13
  -6  -5   5 109.266 17.1429  13
  -6  -4  -9 113.393 16.1674  12
  -6  -4  -8 5.79011 5.65529  12
  -6  -4  -8 8.55253 7.23383  19
  -6  -4  -7 71.4745 12.9726  12
  -6  -4  -6 25.0252 8.62449  12
  -6  -4  -6 32.7511 8.89372  13
  -6  -4  -5 122.387 16.0512  12
  -6  -4  -5 124.405 16.0072  13
  -6  -4  -4 347.266 26.3739  13
  -6  -4  -4 372.892 27.3293  12
  -6  -4  -3 130.053 16.7355  13
  -6  -4  -2 139.737 17.4109  13
  -6  -4  -1 101.616 14.0473   2
  -6  -4  -1 104.714 15.0477  13
  -6  -4   0 191.579 19.3152   2
  -6  -4   0 209.100 21.3741  13
  -6  -4   2 143.957 18.1680   2
  -6  -4   2 162.577 19.6047  13
  -6  -4   3 28.2626 9.26413  13
  -6  -4   3 31.9079 9.97165   2
  -6  -4   4 162.346 20.6263   2
  -6  -4   4 173.698 20.8814  13
  -6  -4   5 9.03467 6.97637  13
  -6  -3  -9 8.74329 7.39555  19
  -6  -3  -8 14.7634 7.70930  19
  -6  -3  -7 12.8441 7.16984  12
  -6  -3  -6 241.405 21.7898  12
  -6  -3  -5 31.0908 8.76122  12
  -6  -3  -5 32.4859 9.33703  13
  -6  -3  -4 132.650 16.3191  12
  -6  -3  -4 190.809 19.1040  13
  -6  -3  -3 47.4477 10.5062  13
  -6  -3  -2 347.470 26.3118  13
  -6  -3  -1 247.707 23.1680  13
  -6  -3  -1 250.471 22.1207  14
  -6  -3   0 381.213 28.4319  13
  -6  -3   0 367.488 27.4088  14
  -6  -3   1 46.5633 10.8520  14
  -6  -3   1 54.1007 11.6947  13
  -6  -3   2 149.381 18.7596  14
  -6  -3   3 136.776 18.5232  13
  -6  -3   3 156.869 19.5615  14
  -6  -3   4 20.4791 8.31638  13
  -6  -3   4 7.04549 6.88270  14
  -6  -3   5 32.5828 10.4256  13
  -6  -3   6 35.6108 11.8282  13
  -6  -3   6 22.0305 9.86394   6
  -6  -2  -8 70.2198 13.7154  19
  -6  -2  -7 43.9244 11.0472  19
  -6  -2  -5 59.2687 11.5764  12
  -6  -2  -4 34.0457 8.93577  13
  -6  -2  -3 348.977 26.4208  13
  -6  -2  -2 89.1074 13.9125  13
  -6  -2  -1 78.3708 13.1642  13
  -6  -2   0 16.2337 7.14932  13
  -6  -2   0 18.8644 7.37316  14
  -6  -2   1 275.488 24.1723  14
  -6  -2   1 257.329 23.8616  13
  -6  -2   2 40.8532 10.3036  13
  -6  -2   2 42.1191 10.8984  14
  -6  -2   3 367.780 29.3322  14
  -6  -2   4 25.4441 9.59050  14
  -6  -2   5 105.975 17.1891  14
  -6  -1  -8 150.068 18.6991  19
  -6  -1  -7 161.464 19.0402  19
  -6  -1  -6 11.2725 6.61714  19
  -6  -1  -5 359.256 29.2506  18
  -6  -1  -4 86.5268 14.7691  18
  -6  -1  -3 114.705 16.3829  18
  -6  -1  -3 126.435 15.9668  13
  -6  -1  -2 7.49014 5.78371  13
  -6  -1  -1 7.77177 5.69333  13
  -6  -1   0 6.03180 5.19541  13
  -6  -1   0 3.78772 5.84904  14
  -6  -1   1 358.638 27.7904  14
  -6  -1   2 240.282 23.2631  14
  -6  -1   3 208.310 22.3710  14
  -6  -1   4 199.087 22.3291  14
  -6  -1   5 33.7595 10.8021  14
  -6   0  -7 86.0841 16.3361  18
  -6   0  -6 19.1110 8.73315  18
  -6   0  -5 39.4389 11.1131  18
  -6   0  -4 56.5244 12.8996  18
  -6   0  -3 11.0717 6.11838  18
  -6   0  -2 133.277 18.0774  18
  -6   0  -1 105.818 14.9882  13
  -6   0   0 162.418 18.6433  14
  -6   0   1 51.0398 11.3015  14
  -6   0   2 239.932 23.6352  14
  -6   0   3 6.74819 6.21393  14
  -6   0   4 220.579 23.6073  14
  -6   0   4 250.165 22.7800  20
  -6   0   5 78.0358 15.4803  14
  -6   0   5 90.5764 14.5597  20
  -6   0   6 86.0530 16.4454  14
  -6   0   6 94.2615 14.6085  20
  -6   1  -7 10.5736 7.74587  18
  -6   1  -6 56.5850 14.0079  18
  -6   1  -5 5.01409 7.34527  18
  -6   1  -4 172.115 21.4062  18
  -6   1  -4 128.928 17.3468  20
  -6   1  -3 99.2221 16.6957  18
  -6   1  -3 99.0664 14.6383  20
  -6   1  -2 303.507 25.3853  20
  -6   1  -2 386.230 30.4251  18
  -6   1  -1 196.908 20.4557  20
  -6   1  -1 203.014 22.3440  18
  -6   1   0 208.146 21.1333  14
  -6   1   0 175.933 19.6831  20
  -6   1   1 1.98139 6.70301  20
  -6   1   1 2.10764 5.04178  14
  -6   1   2 19.8084 9.07658  20
  -6   1   2 15.4468 7.77377  14
  -6   1   3 17.8027 8.42370  20
  -6   1   3 16.1824 9.03364  14
  -6   1   4 28.8873 10.5179  14
  -6   1   4 17.6957 7.92287  20
  -6   1   5 60.0314 13.6242  14
  -6   1   5 54.4125 11.8789  20
  -6   1   6 10.3595 7.99951  14
  -6   1   6 11.4409 7.90189  20
  -6   2  -5 40.1626 11.7075  18
  -6   2  -4 2.60050 5.67878  18
  -6   2  -3 66.2528 13.1830  20
  -6   2  -3 60.6040 13.5368  18
  -6   2  -2 107.289 16.1067  20
  -6   2  -2 68.7588 14.6382  18
  -6   2  -1 289.261 25.3068  20
  -6   2  -1 259.970 26.1496  18
  -6   2   0 47.4596 12.2833  18
  -6   2   0 53.1871 11.4983  20
  -6   2   1 22.5641 8.96480  20
  -6   2   1 24.1755 8.59151  14
  -6   2   2 4.60253 6.35680  14
  -6   2   3 110.750 16.5791  20
  -6   2   3 93.4448 16.2753  14
  -6   2   4 4.08615 6.61754  20
  -6   2   4-7.49070 4.87705  14
  -6   2   5 64.7664 13.2883  20
  -6   2   5 59.5169 14.3225  14
  -6   2   6 85.6955 15.2488  20
  -6   3  -3 35.0866 11.7938  18
  -6   3  -3 23.0631 9.16511  20
  -6   3  -2 10.6035 7.46994  20
  -6   3  -2 20.8884 9.54299  18
  -6   3  -1 32.0518 10.0179  20
  -6   3   0 27.4666 10.6357  18
  -6   3   0 25.7742 9.61943  20
  -6   3   1 103.827 16.7936  14
  -6   3   1 135.721 18.6556  20
  -6   3   2 62.6392 13.9473  14
  -6   3   3 55.1303 13.4438  14
  -6   3   3 99.0183 16.1799  20
  -6   3   4 88.5150 16.5124  14
  -6   3   4 68.5891 13.9272  20
  -6   3   5 33.9873 11.3723  20
  -6   4   0 68.2768 15.2026  18
  -6   4   1 87.4572 17.0822  18
  -6   4   2 86.0160 15.8664  14
  -5  -9  -6 35.8827 10.4454  12
  -5  -9  -5 164.456 18.2595  12
  -5  -9  -4 285.667 23.8201  12
  -5  -9  -3 115.372 15.8911   2
  -5  -9  -3 94.7578 14.3106  12
  -5  -9  -2 58.2296 12.4402   2
  -5  -9  -2 80.5884 13.5394  13
  -5  -9  -2 70.4417 12.3684  12
  -5  -9  -1 5.35459 4.93067  13
  -5  -8 -10 51.4771 11.9442  19
  -5  -8  -9 5.50726 5.37880  19
  -5  -8  -8 169.330 19.0497  12
  -5  -8  -8 128.326 16.4576  19
  -5  -8  -7 74.2240 13.0525  12
  -5  -8  -6 375.308 27.2322  12
  -5  -8  -5 220.699 20.6874  12
  -5  -8  -4 149.668 17.3673  12
  -5  -8  -4 164.348 18.4073  13
  -5  -8  -3 12.3570 6.67718  12
  -5  -8  -3 1.79949 3.93026  13
  -5  -8  -3 8.70101 6.35916   2
  -5  -8  -2 65.6986 12.1616  13
  -5  -8  -2 42.0917 10.2942   2
  -5  -8  -2 55.5272 11.0078  12
  -5  -8  -1 29.6308 8.53092  13
  -5  -8  -1 58.3343 11.1296  12
  -5  -8  -1 44.0254 10.2554   2
  -5  -8   0 30.0870 9.40656   2
  -5  -8   0 42.4014 9.94967  12
  -5  -8   0 31.0550 9.08610  13
  -5  -8   1 83.5766 15.0284   2
  -5  -8   1 64.2594 11.7211  13
  -5  -7 -10 33.1806 9.54191  19
  -5  -7  -9 9.82291 7.17907  12
  -5  -7  -9 3.74849 5.49166  19
  -5  -7  -8 79.6166 13.1578  19
  -5  -7  -8 87.3892 14.0564  12
  -5  -7  -6 81.8534 13.4020  13
  -5  -7  -6 88.3843 13.6975  12
  -5  -7  -5 88.0453 13.2770  13
  -5  -7  -5 102.846 14.3427  12
  -5  -7  -4 56.1350 10.9981  12
  -5  -7  -3 245.525 21.1685  12
  -5  -7  -3 241.470 20.8472  13
  -5  -7  -2 86.4412 13.3463  13
  -5  -7  -2 80.7811 12.3556   2
  -5  -7  -2 83.6999 12.8676  12
  -5  -7  -1 344.994 25.4952  13
  -5  -7  -1 381.996 26.8623   2
  -5  -7  -1 350.021 25.4444  12
  -5  -7   0 52.9093 10.2962  13
  -5  -7   0 41.2271 10.2110   2
  -5  -7   1 145.054 16.5349  13
  -5  -7   1 137.332 17.1463   2
  -5  -7   2 64.8556 11.9342  13
  -5  -7   2 57.3884 11.7030   2
  -5  -7   3 151.575 19.1147   2
  -5  -6 -10 11.8707 7.73151  19
  -5  -6 -10 19.5957 8.34431  12
  -5  -6  -9 117.322 16.4034  19
  -5  -6  -9 115.177 15.8401  12
  -5  -6  -8 5.48013 5.91691  19
  -5  -6  -8 3.64546 5.34046  12
  -5  -6  -7 262.605 22.1072  12
  -5  -6  -7 217.012 20.2191  13
  -5  -6  -6 119.230 14.7664  13
  -5  -6  -6 121.091 15.3275  12
  -5  -6  -5 318.501 24.2000  12
  -5  -6  -5 311.224 23.4207  13
  -5  -6  -4 38.5516 9.13013  13
  -5  -6  -3 203.946 19.2102  13
  -5  -6  -3 162.677 17.2902  12
  -5  -6  -2 119.161 14.0418   2
  -5  -6  -2 127.694 15.3773  12
  -5  -6  -1 502.810 29.6716   2
  -5  -6  -1 457.388 29.2230  13
  -5  -6   0 347.370 25.2155  13
  -5  -6   0 390.058 26.7381   2
  -5  -6   1 97.0927 14.0514   2
  -5  -6   1 113.932 15.0572  13
  -5  -6   2 167.341 17.7549  13
  -5  -6   2 175.042 19.0329   2
  -5  -6   3 18.1264 8.11930   2
  -5  -6   3 47.8607 11.3215   6
  -5  -6   3 27.8434 9.16040  13
  -5  -6   4 4.51848 6.24039   6
  -5  -6   4-1.73536 3.38941  13
  -5  -6   5-4.34980 3.67899   2
  -5  -6   5 2.43978 6.73918   6
  -5  -5 -11 146.360 18.5861  12
  -5  -5 -11 138.030 18.3780  19
  -5  -5 -10 87.6797 14.8594  19
  -5  -5 -10 67.1054 12.7877  12
  -5  -5  -9 222.239 21.3102  19
  -5  -5  -9 229.989 21.1532  12
  -5  -5  -8 220.038 21.0185  19
  -5  -5  -8 212.572 19.8693  12
  -5  -5  -8 227.806 20.0605  13
  -5  -5  -7 213.407 18.8968  13
  -5  -5  -7 204.805 19.2329  12
  -5  -5  -6 375.243 25.4929  13
  -5  -5  -6 370.070 25.8944  12
  -5  -5  -5 27.1125 7.79616  13
  -5  -5  -5 24.9595 7.80187  12
  -5  -5  -4 90.1402 13.1705  12
  -5  -5  -4 101.365 13.5841  13
  -5  -5  -3 46.8476 9.49525  12
  -5  -5  -3 60.4106 10.3606  13
  -5  -5  -2 372.869 25.8517  13
  -5  -5  -2 435.027 25.6833   2
  -5  -5  -1 12.2159 5.37943   2
  -5  -5   0 613.512 33.6199  13
  -5  -5   0 637.867 33.8859   2
  -5  -5   1 191.670 18.7156   2
  -5  -5   1 175.219 18.1761  13
  -5  -5   2 383.840 26.7098  13
  -5  -5   2 406.188 27.8771   2
  -5  -5   3 21.0559 7.94061   6
  -5  -5   3 28.4817 8.90157   2
  -5  -5   3 36.9966 9.74036  13
  -5  -5   4 106.935 15.9566   6
  -5  -5   4 123.568 15.6420  13
  -5  -5   4 143.321 17.9016   2
  -5  -5   5 27.0479 8.45504  13
  -5  -5   5 27.4037 9.47047   6
  -5  -5   5 33.1566 10.3271   2
  -5  -5   6 163.056 21.4220   6
  -5  -5   6 150.103 19.2052   2
  -5  -4 -11 56.7354 12.5081  19
  -5  -4 -10 433.837 30.4619  19
  -5  -4 -10 456.293 29.5216  12
  -5  -4  -9 108.047 15.4771  19
  -5  -4  -9 143.330 16.7560  12
  -5  -4  -8 447.306 29.5760  19
  -5  -4  -8 442.614 28.0396  12
  -5  -4  -7 11.4370 5.52995  12
  -5  -4  -7 13.3904 6.66055  13
  -5  -4  -6 89.1850 13.3185  12
  -5  -4  -6 102.674 13.1762  13
  -5  -4  -5 122.161 14.1691  13
  -5  -4  -5 116.254 14.1838  12
  -5  -4  -4 779.376 36.4715  13
  -5  -4  -4 731.296 35.5995  12
  -5  -4  -3 94.8061 12.6077  13
  -5  -4  -2 77.3834 11.5978  13
  -5  -4  -2 46.6082 8.56637   2
  -5  -4  -1 4.27495 4.17548   2
  -5  -4  -1 6.57980 4.54424  13
  -5  -4   0 304.901 22.2448   2
  -5  -4   1 761.521 36.5932   2
  -5  -4   1 739.695 37.2094  13
  -5  -4   2 146.559 16.5658   2
  -5  -4   2 200.661 19.2019  13
  -5  -4   3 214.092 20.1690   2
  -5  -4   3 231.354 20.7625   6
  -5  -4   4 99.3147 14.6647  13
  -5  -4   4 81.3362 13.4009   2
  -5  -4   5 155.944 19.2368   6
  -5  -4   5 144.245 17.3879  13
  -5  -4   6 7.61692 6.16944  13
  -5  -4   6 20.9508 8.50730   6
  -5  -4   6 8.27293 5.71472   2
  -5  -4   7 183.805 22.8227   6
  -5  -4   7 188.488 21.2893   2
  -5  -3 -11 8.42113 7.12305  19
  -5  -3 -10 105.665 15.5259  19
  -5  -3  -9 45.3082 10.6102  19
  -5  -3  -8 28.7025 8.76405  19
  -5  -3  -8 15.5637 6.45472  12
  -5  -3  -7 24.6999 7.69488  12
  -5  -3  -7 24.0003 7.67963  19
  -5  -3  -6 28.4694 7.62704  13
  -5  -3  -6 35.3486 8.63346  12
  -5  -3  -5 903.173 38.5849  13
  -5  -3  -5 873.034 38.4908  12
  -5  -3  -4 425.521 26.2979  12
  -5  -3  -4 427.378 25.9496  13
  -5  -3  -3 639.570 32.9845  13
  -5  -3  -2 136.489 14.3739  14
  -5  -3  -2 149.942 15.8478  13
  -5  -3  -1 689.499 34.8701  13
  -5  -3  -1 699.216 33.5772  14
  -5  -3   0 14.8954 6.26487  13
  -5  -3   0 21.9150 7.33566  14
  -5  -3   1 208.241 19.4031  14
  -5  -3   1 205.535 19.2823  13
  -5  -3   2 3.53045 4.56279  13
  -5  -3   2 24.7424 7.52420  14
  -5  -3   3 368.383 27.0557  14
  -5  -3   3 360.239 26.2217  13
  -5  -3   3 335.722 24.2578   6
  -5  -3   4 132.175 16.2682   6
  -5  -3   4 164.025 18.0475  13
  -5  -3   4 147.838 18.1773  14
  -5  -3   5 331.842 26.7056   6
  -5  -3   6 68.4913 13.5093   6
  -5  -3   7 139.378 19.1671   6
  -5  -3   8 53.5947 12.4089   2
  -5  -2 -10 1.98160 5.12007  19
  -5  -2  -9 114.345 15.5095  19
  -5  -2  -8 3.54607 5.19473  19
  -5  -2  -7 590.561 32.7009  19
  -5  -2  -6 43.4473 8.96601  12
  -5  -2  -5 289.375 20.8758  13
  -5  -2  -5 306.263 21.6621  12
  -5  -2  -4 226.509 19.7532  18
  -5  -2  -4 226.459 18.5985  13
  -5  -2  -3 1180.28 45.0019  13
  -5  -2  -2 468.462 27.7658  13
  -5  -2  -1 198.745 18.3658  13
  -5  -2  -1 177.263 16.7872  14
  -5  -2   0 19.8707 6.84617  14
  -5  -2   0 19.7763 7.20297  13
  -5  -2   1 13.0281 5.51227  14
  -5  -2   2 370.214 26.0427  14
  -5  -2   3 297.739 24.0375  14
  -5  -2   4 513.247 32.4918  14
  -5  -2   4 598.064 33.5340   6
  -5  -2   5 126.827 16.4895   6
  -5  -2   6 209.444 22.2476  14
  -5  -2   6 199.241 21.5310   6
  -5  -2   7 18.6411 8.81588   6
  -5  -2   7 13.2204 7.45722  14
  -5  -2   8 390.119 32.3808   6
  -5  -2   8 354.176 29.7318  14
  -5  -1 -10-1.96779 3.84348  19
  -5  -1 -10-2.06074 5.69216  17
  -5  -1  -9 81.6988 13.7388  19
  -5  -1  -8 236.373 21.4132  19
  -5  -1  -7 238.872 20.7682  19
  -5  -1  -6 197.564 19.5849  18
  -5  -1  -6 272.028 21.3733  19
  -5  -1  -5 5.28503 5.44090  18
  -5  -1  -4 112.620 14.7091  18
  -5  -1  -3 21.9366 6.85484  13
  -5  -1  -3 16.6837 7.29159  18
  -5  -1  -2 500.109 29.6100  18
  -5  -1  -2 455.689 27.1308  13
  -5  -1  -1 148.060 15.6505  13
  -5  -1  -1 122.935 13.9492  14
  -5  -1   0 1073.79 43.2280  14
  -5  -1   1 60.1740 10.5695  14
  -5  -1   2 616.351 33.9212  14
  -5  -1   3 200.151 19.7504  14
  -5  -1   4 282.548 23.9852  14
  -5  -1   4 267.267 22.1790   6
  -5  -1   5 15.3057 7.24086   6
  -5  -1   5 22.2211 8.37374  14
  -5  -1   6 146.609 18.0667   6
  -5  -1   6 145.794 18.2247  14
  -5  -1   7 35.1033 10.2847  14
  -5  -1   7 27.3969 9.46947   6
  -5  -1   8 56.9586 13.9091   6
  -5  -1   8 40.8785 11.5437  14
  -5  -1   9 77.0703 15.3386  14
  -5   0 -10 74.0342 14.0236  19
  -5   0 -10 79.8018 14.6862  17
  -5   0  -9 40.6356 10.8601  17
  -5   0  -9 14.6331 7.15221  19
  -5   0  -8 314.089 24.8873  17
  -5   0  -8 333.936 25.0711  19
  -5   0  -7 34.1448 8.70921  19
  -5   0  -7 30.7347 9.39671  18
  -5   0  -6 321.104 25.9866  18
  -5   0  -6 314.976 22.9116  19
  -5   0  -5 11.4292 6.44609  18
  -5   0  -4-1.85577 1.81248  18
  -5   0  -3 5.39401 4.64625  18
  -5   0  -2 483.353 27.6501  13
  -5   0  -2 437.809 28.7052  18
  -5   0  -1 607.086 33.2731  18
  -5   0  -1 542.832 29.7387  14
  -5   0   0 894.022 39.5895  14
  -5   0   1 595.900 32.8658  14
  -5   0   2 56.2721 10.7541  14
  -5   0   3 212.973 20.6031  14
  -5   0   4 9.73506 7.11502  14
  -5   0   4 5.21894 5.09756   6
  -5   0   5 187.647 19.6742   6
  -5   0   5 150.195 16.2103  20
  -5   0   5 191.851 20.6653  14
  -5   0   6 25.3414 7.57211  20
  -5   0   6 23.0481 8.44370   6
  -5   0   7 66.1221 13.3907   6
  -5   0   7 62.1026 13.0275  14
  -5   0   8 4.92557 6.36459   6
  -5   0   8 16.0469 8.07283  14
  -5   0   9 332.872 29.6303  14
  -5   1  -9 9.85619 6.67033  17
  -5   1  -9 12.1761 8.23964  18
  -5   1  -8 2.33466 6.03229  18
  -5   1  -7 69.3543 13.5039  18
  -5   1  -6 60.1024 12.6061  18
  -5   1  -5 429.553 30.9225  18
  -5   1  -4 41.8939 9.48987  20
  -5   1  -4 65.9901 12.6761  18
  -5   1  -3 144.264 17.3799  18
  -5   1  -3 166.011 16.8982  20
  -5   1  -2 1.88995 4.88319  18
  -5   1  -2-1.57493 3.07607  20
  -5   1  -1 284.828 21.7413  14
  -5   1  -1 333.793 23.5622  20
  -5   1  -1 356.833 26.4936  18
  -5   1   0 149.252 16.1787  20
  -5   1   0 143.703 16.2447  14
  -5   1   0 157.208 17.7987  18
  -5   1   1 797.773 37.4210  20
  -5   1   1 771.961 38.2520  14
  -5   1   2 5.45523 5.61613  14
  -5   1   3 36.2753 9.34356  14
  -5   1   3 54.1607 10.3380  20
  -5   1   4 80.0516 13.3264  14
  -5   1   4 112.607 14.2619  20
  -5   1   4 100.992 14.3342   6
  -5   1   5 372.856 25.1226  20
  -5   1   5 337.049 27.5044  14
  -5   1   6 145.562 16.1100  20
  -5   1   6 114.094 16.4808   6
  -5   1   7 215.909 23.1785   6
  -5   1   7 206.759 22.8246  14
  -5   1   8 69.3845 14.5630   6
  -5   1   8 91.7449 16.4444  14
  -5   1   9 28.8915 11.0358  14
  -5   2  -8-2.54059 2.48133  18
  -5   2  -7 82.8310 15.6450  18
  -5   2  -6 18.6904 8.54095  18
  -5   2  -5 439.860 32.4381  18
  -5   2  -4 143.990 16.1439  20
  -5   2  -4 118.944 17.2595  18
  -5   2  -3 47.3769 9.85619  20
  -5   2  -3 44.0230 10.8523  18
  -5   2  -2 4.95071 5.34595  20
  -5   2  -2 10.2288 6.31850  18
  -5   2  -1 142.899 17.5192  18
  -5   2  -1 97.8554 13.5518  20
  -5   2   0 69.7707 12.7371  18
  -5   2   0 72.2200 11.7986  14
  -5   2   0 73.4226 12.4523  20
  -5   2   1 21.7143 7.70984  14
  -5   2   1 25.0453 7.82693  20
  -5   2   2 142.646 17.2429  14
  -5   2   3 45.9052 10.5124  14
  -5   2   3 36.8018 9.81892  20
  -5   2   4 334.121 27.0477  14
  -5   2   4 364.426 25.5555  20
  -5   2   5 130.789 17.0019   6
  -5   2   5 106.769 16.1688  14
  -5   2   5 150.542 16.5763  20
  -5   2   6 349.687 24.9323  20
  -5   2   6 328.464 27.7903   6
  -5   2   7 175.943 17.7365  20
  -5   2   7 131.645 18.6357  14
  -5   2   7 149.880 19.5270   6
  -5   2   8 184.038 22.2101  14
  -5   2   8 183.217 22.4807   6
  -5   2   9 14.9325 8.42196  14
  -5   3  -7 2.64266 6.82811  18
  -5   3  -6 7.61059 7.43307  18
  -5   3  -5 14.6152 7.89232  18
  -5   3  -4 276.843 26.3160  18
  -5   3  -3 128.928 18.0484  18
  -5   3  -3 142.221 16.5344  20
  -5   3  -2 285.888 26.0172  18
  -5   3  -2 301.221 23.8782  20
  -5   3  -1 1.76357 4.21870  20
  -5   3   0 30.1153 8.48680  20
  -5   3   0 45.5790 10.7152  18
  -5   3   0 23.8820 8.42649  14
  -5   3   1 16.2202 7.66914  18
  -5   3   1 1.92340 4.97047  14
  -5   3   1 7.10656 5.48737  20
  -5   3   2 558.961 33.0073  20
  -5   3   2 552.876 34.6282  14
  -5   3   3 117.405 15.4014  20
  -5   3   3 77.6395 13.6594  14
  -5   3   4 44.3241 10.5469  20
  -5   3   4 35.0556 10.7130  14
  -5   3   5 15.9793 7.05124  14
  -5   3   5 7.05335 5.96722  20
  -5   3   6 78.3228 15.0808  14
  -5   3   6 111.612 15.3861  20
  -5   3   7 112.965 15.1843  20
  -5   3   7 87.4156 15.7761   6
  -5   3   7 61.3366 13.8170  14
  -5   3   8 101.015 17.2106   6
  -5   3   8 93.4923 16.7926  14
  -5   4  -5 2.63953 6.82003  18
  -5   4  -4 86.3332 16.1168  18
  -5   4  -3 148.185 17.9388  20
  -5   4  -2 104.847 15.1392  20
  -5   4  -2 87.5794 15.7372  18
  -5   4  -1 16.9995 7.82942  20
  -5   4  -1 16.1189 8.11139  18
  -5   4   0 66.6557 13.7401  18
  -5   4   0 43.7533 10.8353  14
  -5   4   0 41.7702 10.6733  20
  -5   4   1 102.884 15.1900  20
  -5   4   1 107.722 15.8716  14
  -5   4   1 107.847 16.3850  18
  -5   4   2 80.1867 13.4860  20
  -5   4   2 61.1643 12.9057  18
  -5   4   2 84.0491 14.4668  14
  -5   4   3 118.561 18.2240  14
  -5   4   4 9.28449 7.16881  14
  -5   4   4 5.70958 6.43922  20
  -5   4   5 19.2506 8.79684  14
  -5   4   5 18.9382 8.87376  20
  -5   4   6 17.4471 8.43492  14
  -5   4   6 15.0064 8.39774  20
  -5   4   7 92.4322 14.5018  20
  -5   5  -3 36.9090 12.3584  18
  -5   5  -2 12.7377 8.25131  18
  -5   5  -2-2.01593 4.82237  20
  -5   5  -1 93.6125 15.1906  20
  -5   5  -1 88.9416 16.0564  18
  -5   5   0 30.6819 9.79110  20
  -5   5   0 16.6131 8.36266  18
  -5   5   1 38.1370 10.7573  14
  -5   5   1 67.7984 13.3286  20
  -5   5   1 54.9810 12.6764  18
  -5   5   2 6.97399 6.00914  14
  -5   5   2 22.6510 8.99504  20
  -5   5   2 15.5854 8.13760  18
  -5   5   3 182.790 22.0602  14
  -5   5   4 105.023 16.0181  20
  -5   5   4 84.4213 15.7715  14
  -5   5   5 36.8822 10.2187  20
  -5   5   5 43.5036 11.7352  14
  -5   5   6 2.03435 6.58916  20
  -5   5   7-2.00877 4.80526  20
  -5   6   0 55.7613 14.2410  18
  -5   6   1 48.6090 13.4442  18
  -5   6   2 46.8267 12.1171  18
  -4 -10  -7 69.0176 12.3806  12
  -4 -10  -6 41.6991 9.92569  12
  -4 -10  -4 83.0774 13.9706   2
  -4 -10  -3 204.001 21.3545   2
  -4 -10  -2 447.706 31.1398  22
  -4 -10  -1 79.8218 14.5492  22
  -4  -9  -9 13.4501 7.26985  12
  -4  -9  -8 126.435 16.4553  12
  -4  -9  -7 63.2257 11.5961  12
  -4  -9  -6 116.836 15.1245  12
  -4  -9  -5 66.9120 11.2071  12
  -4  -9  -4 174.093 16.9308  12
  -4  -9  -4 166.512 17.3174   2
  -4  -9  -3 160.894 17.9644   2
  -4  -9  -3 120.917 14.2588  12
  -4  -9  -2 73.5020 13.1055   2
  -4  -9  -1 92.1874 14.2203   2
  -4  -9   0 42.0489 10.3642   2
  -4  -9   1 51.8359 11.4778   2
  -4  -8 -10 50.9790 11.3510   4
  -4  -8  -9 124.549 16.2929  12
  -4  -8  -8 54.6023 10.1504  19
  -4  -8  -8 58.8175 11.2347  12
  -4  -8  -7 219.920 18.4809  19
  -4  -8  -7 214.933 19.4723  12
  -4  -8  -6 182.350 17.8254  12
  -4  -8  -5 292.849 21.6108  12
  -4  -8  -4 5.88119 4.54058  12
  -4  -8  -4-1.49559 3.26593   2
  -4  -8  -3 58.2087 10.5619   2
  -4  -8  -3 44.5671 8.91346  13
  -4  -8  -3 68.4089 10.7194  12
  -4  -8  -2 20.9534 7.01453  13
  -4  -8  -2 15.3977 6.41712  12
  -4  -8  -2 19.7645 6.82911   2
  -4  -8  -1 330.832 22.2672  12
  -4  -8  -1 379.166 26.4170   2
  -4  -8  -1 390.417 24.6086  13
  -4  -8   0 221.714 20.7379   2
  -4  -8   0 197.350 17.7439  13
  -4  -8   1 259.569 19.7822  13
  -4  -8   1 244.211 22.1519   2
  -4  -8   2 27.3446 9.73370   2
  -4  -7 -12-1.85947 5.44777  19
  -4  -7 -11 154.627 18.6462  12
  -4  -7 -11 188.441 19.8756   4
  -4  -7 -11 207.615 20.5362  19
  -4  -7 -10 59.0339 11.1256  19
  -4  -7 -10 57.4895 11.4838  12
  -4  -7  -9 150.838 16.1495  19
  -4  -7  -9 160.405 17.5850  12
  -4  -7  -8 11.7709 5.74999  19
  -4  -7  -7 188.046 16.9438  19
  -4  -7  -7 181.293 17.4780  12
  -4  -7  -6 229.492 19.2726  12
  -4  -7  -5 601.907 31.7710  13
  -4  -7  -5 689.660 33.3122  12
  -4  -7  -4 248.990 19.7314  12
  -4  -7  -3 85.0909 11.8512  13
  -4  -7  -3 81.5497 11.1420  12
  -4  -7  -3 103.806 12.6705   2
  -4  -7  -2 34.0142 7.83943  13
  -4  -7  -2 24.8381 7.14517   2
  -4  -7  -2 26.2067 7.13860  12
  -4  -7  -1 15.4104 6.21100   2
  -4  -7  -1 28.5316 7.27240  12
  -4  -7  -1 16.7980 5.80629  13
  -4  -7   0 436.488 27.4936   2
  -4  -7   0 414.009 24.4971  12
  -4  -7   0 405.773 24.6087  13
  -4  -7   1 253.559 19.4128  13
  -4  -7   1 302.164 23.2437   2
  -4  -7   2 286.338 20.2922  13
  -4  -7   2 300.161 23.8354   2
  -4  -7   4 213.551 21.8268   2
  -4  -7   5-1.99775 5.16179   2
  -4  -6 -12 1.99695 5.85056  12
  -4  -6 -12 1.90662 5.58593  19
  -4  -6 -11 58.8953 11.5918  19
  -4  -6 -11 60.3967 12.1160  12
  -4  -6 -10 134.018 16.0642  12
  -4  -6 -10 113.650 14.5193  19
  -4  -6  -9 37.8850 9.13063  19
  -4  -6  -9 26.4538 7.58607  12
  -4  -6  -8 228.595 19.0783  19
  -4  -6  -8 231.096 19.7499  12
  -4  -6  -7 76.4626 11.5017  12
  -4  -6  -7 99.7968 12.5138  19
  -4  -6  -6 810.102 36.0733  13
  -4  -6  -5 651.145 31.8199  13
  -4  -6  -4 1003.99 39.7755  12
  -4  -6  -4 946.138 38.5815  13
  -4  -6  -3 4.08125 4.79069  12
  -4  -6  -3-8.63977 2.95336   2
  -4  -6  -2 161.215 15.3640  13
  -4  -6  -2 197.475 16.5736  12
  -4  -6  -2 180.900 15.8906   2
  -4  -6  -1 12.2427 5.31788  13
  -4  -6  -1 18.2359 5.97497   2
  -4  -6   0 310.195 21.4155  13
  -4  -6   0 306.783 21.9070   2
  -4  -6   1 108.278 13.5341   2
  -4  -6   1 107.788 12.8714  13
  -4  -6   2 432.552 25.1748  13
  -4  -6   2 403.217 26.6887   2
  -4  -6   3 105.862 14.1806   2
  -4  -6   3 134.611 14.1554  13
  -4  -6   4 112.267 15.1920   2
  -4  -6   5 42.7834 11.4484   6
  -4  -6   5 58.5602 12.2575   2
  -4  -6   6 92.2835 16.3159   6
  -4  -6   6 99.6068 15.2000   2
  -4  -6   7 249.421 23.2436   2
  -4  -5 -12 87.5720 14.7657  19
  -4  -5 -12 75.7539 13.7642  12
  -4  -5 -11 1.78842 4.94063  12
  -4  -5 -11 14.5111 7.08605  19
  -4  -5 -10 492.400 29.6855  12
  -4  -5 -10 505.985 30.2600  19
  -4  -5  -9 167.199 17.2490  19
  -4  -5  -9 221.987 19.3199  12
  -4  -5  -8 556.700 30.2178  19
  -4  -5  -8 602.064 31.2700  12
  -4  -5  -7 81.2295 11.4351  19
  -4  -5  -7 68.4631 9.94771  13
  -4  -5  -7 63.9949 10.2541  12
  -4  -5  -6 104.185 12.6623  12
  -4  -5  -6 99.0210 12.1117  13
  -4  -5  -5 5.41044 4.17779  12
  -4  -5  -5 5.22348 3.82657  13
  -4  -5  -4 410.222 24.2235  12
  -4  -5  -4 431.563 24.6808  13
  -4  -5  -3 978.027 35.3300   2
  -4  -5  -3 937.258 37.2385  13
  -4  -5  -2 720.968 31.0202   2
  -4  -5  -1 326.134 21.4309  13
  -4  -5  -1 311.714 20.4938   2
  -4  -5   0 10.7815 4.74833   2
  -4  -5   0 13.4318 5.24957  13
  -4  -5   1 436.998 25.3803  13
  -4  -5   1 403.560 24.9514   2
  -4  -5   1 439.267 25.7318   6
  -4  -5   2 447.104 26.9143   2
  -4  -5   2 449.215 25.7289  13
  -4  -5   2 496.809 28.7627   6
  -4  -5   3 631.041 34.2594   6
  -4  -5   3 645.062 31.3194  13
  -4  -5   3 610.645 32.7393   2
  -4  -5   4-1.40256 2.37240  13
  -4  -5   4 1.89458 4.13716   6
  -4  -5   5 211.262 22.1575   6
  -4  -5   5 205.277 19.9859   2
  -4  -5   5 194.573 17.2704  13
  -4  -5   6 6.75903 6.60123   6
  -4  -5   6 5.52638 5.68949   2
  -4  -5   7 234.386 22.2803   2
  -4  -5   7 248.550 25.7451   6
  -4  -5   8 85.9806 14.3323   2
  -4  -4 -12 172.915 19.8184  17
  -4  -4 -11 171.915 17.8937  12
  -4  -4 -10 139.478 15.6573  12
  -4  -4  -9 419.409 25.7109  12
  -4  -4  -8 60.3177 10.1026  12
  -4  -4  -7 210.434 16.5200  13
  -4  -4  -7 203.914 17.0909  12
  -4  -4  -6 199.870 16.2161  13
  -4  -4  -6 192.613 16.5318  12
  -4  -4  -5 45.3010 8.11742  12
  -4  -4  -5 42.7757 7.85124  13
  -4  -4  -4 131.376 13.3349  12
  -4  -4  -4 166.228 14.7850  13
  -4  -4  -3 3164.55 77.2609  13
  -4  -4  -3 3196.70 71.7651   2
  -4  -4  -2 427.412 24.0727  13
  -4  -4  -2 457.802 23.1010   2
  -4  -4  -1 1334.60 43.3523   2
  -4  -4  -1 1314.06 45.3556  13
  -4  -4   0 268.227 19.0055   2
  -4  -4   1 596.162 28.4073   6
  -4  -4   1 514.721 27.3073   2
  -4  -4   1 551.469 28.1246  13
  -4  -4   2 64.1644 9.85219   6
  -4  -4   2 49.4069 8.92259  13
  -4  -4   2 49.1936 8.82162   2
  -4  -4   3 231.321 18.9910   2
  -4  -4   3 197.217 17.6378  13
  -4  -4   3 256.952 20.4830   6
  -4  -4   4 17.2864 6.54312   6
  -4  -4   4 18.8247 6.78671  13
  -4  -4   5 109.698 14.1228   2
  -4  -4   5 85.7605 13.6176   6
  -4  -4   5 94.5637 12.4872  13
  -4  -4   6 113.493 14.6689   2
  -4  -4   6 123.276 16.7894   6
  -4  -4   6 126.455 14.5801  13
  -4  -4   7 31.8667 9.44993   6
  -4  -4   7 58.1384 11.5142   2
  -4  -4   8 308.071 28.1488   6
  -4  -4   8 266.502 23.6707   2
  -4  -4   9 86.0964 14.5240   2
  -4  -3 -12 46.1199 11.6034  19
  -4  -3 -11 148.299 17.8611  19
  -4  -3 -10 45.6094 9.33498  12
  -4  -3 -10 48.1182 10.5015  19
  -4  -3  -9 461.509 26.0738  12
  -4  -3  -9 400.917 26.2154  19
  -4  -3  -8 107.727 12.7333  12
  -4  -3  -8 115.202 13.9499  19
  -4  -3  -7 482.325 25.8170  12
  -4  -3  -7 476.455 26.9785  19
  -4  -3  -7 500.120 24.9178  13
  -4  -3  -6 143.661 13.2242  13
  -4  -3  -6 139.989 13.5670  12
  -4  -3  -5 368.931 21.2972  13
  -4  -3  -5 358.296 21.8115  12
  -4  -3  -4 88.3356 10.8174  13
  -4  -3  -4 108.736 11.6344  12
  -4  -3  -3 464.009 24.6678  13
  -4  -3  -2 1304.16 43.8182  13
  -4  -3  -1 792.267 32.4516  14
  -4  -3  -1 852.559 34.5009  13
  -4  -3   0 899.286 36.5220  13
  -4  -3   0 943.026 36.6116  14
  -4  -3   1 39.9980 7.95195  14
  -4  -3   1 63.0231 8.80095   6
  -4  -3   2 133.766 13.9269  13
  -4  -3   2 124.054 13.6307  14
  -4  -3   2 140.102 13.6325   6
  -4  -3   3 187.145 16.8157   6
  -4  -3   3 170.276 16.4592  14
  -4  -3   4 1514.06 53.6431   6
  -4  -3   5 83.4509 12.9135   6
  -4  -3   6 453.337 30.5505   6
  -4  -3   7 10.4196 6.11533   2
  -4  -3   7 4.28401 4.18458   6
  -4  -3   8 75.8240 13.0166   2
  -4  -3   8 112.009 17.2510   6
  -4  -3   9 90.8110 16.5801   6
  -4  -3   9 98.6667 14.6065   2
  -4  -2 -12 8.50028 6.22591  17
  -4  -2 -12-2.03278 4.86269  19
  -4  -2 -11 41.1454 10.3126  17
  -4  -2 -11 22.4137 8.36951  19
  -4  -2 -10 126.148 15.8415  19
  -4  -2  -9 27.2752 7.99865  19
  -4  -2  -8 485.014 25.4405  12
  -4  -2  -8 462.114 27.4011  19
  -4  -2  -7 247.607 17.7218  12
  -4  -2  -7 265.836 19.8410  19
  -4  -2  -6 2265.35 60.1004  12
  -4  -2  -5 304.992 18.8326  13
  -4  -2  -5 343.340 21.4546  18
  -4  -2  -5 327.882 20.0197  12
  -4  -2  -4 366.944 21.6122  18
  -4  -2  -4 333.424 20.1059  12
  -4  -2  -4 346.529 20.2606  13
  -4  -2  -3 164.259 14.1990  18
  -4  -2  -3 143.333 13.1001  13
  -4  -2  -2 655.519 27.4558  14
  -4  -2  -2 692.353 30.1650  13
  -4  -2  -1-1.24031 2.42252  13
  -4  -2  -1 4.39881 3.56185  14
  -4  -2   0 792.014 32.6909  14
  -4  -2   0 793.627 33.7168  13
  -4  -2   1 191.961 16.0031  14
  -4  -2   1 200.870 14.9035   6
  -4  -2   2 750.936 31.5357   6
  -4  -2   2 731.462 33.1649  14
  -4  -2   3 557.914 28.4089   6
  -4  -2   3 541.290 29.2716  14
  -4  -2   4 1518.02 52.7626   6
  -4  -2   4 1568.56 53.9543  14
  -4  -2   5 671.808 34.3081  14
  -4  -2   5 600.472 33.0195   6
  -4  -2   6 105.832 14.3413  14
  -4  -2   6 87.8962 13.3654   6
  -4  -2   7 78.3165 12.9744  14
  -4  -2   7 43.2370 10.8585   6
  -4  -2   8 22.4438 8.20711   6
  -4  -2   9 63.1967 13.4574   6
  -4  -2  10 16.7197 8.11687   2
  -4  -1 -12 160.285 19.2776  19
  -4  -1 -11 30.2217 9.77195  19
  -4  -1 -11 36.2595 10.2327  17
  -4  -1 -10 215.306 20.4293  19
  -4  -1 -10 210.130 20.5079  17
  -4  -1  -9 52.8437 10.5233  19
  -4  -1  -9 65.8538 11.4549  17
  -4  -1  -8 301.834 22.0526  19
  -4  -1  -7 278.825 20.2455  19
  -4  -1  -6 1052.36 39.8112  19
  -4  -1  -6 937.686 39.1623  18
  -4  -1  -5 513.199 24.4883  12
  -4  -1  -5 498.425 26.9935  18
  -4  -1  -4 274.670 19.6782  18
  -4  -1  -4 281.223 17.9042  13
  -4  -1  -4 264.962 17.3143  12
  -4  -1  -3 1.28357 2.17133  18
  -4  -1  -3 3.36409 2.68258  13
  -4  -1  -2 6.28176 4.06979  18
  -4  -1  -2 5.00777 3.66030  14
  -4  -1  -2 3.51109 3.42950  13
  -4  -1  -1 1008.16 37.9733  18
  -4  -1  -1 917.846 34.5044  14
  -4  -1   0 611.384 28.1500  14
  -4  -1   1 1828.69 49.4694   6
  -4  -1   1 1776.13 53.5951  14
  -4  -1   2 99.2411 11.9589  14
  -4  -1   2 100.985 11.1281   6
  -4  -1   3 550.120 29.4328  14
  -4  -1   3 586.355 28.7988   6
  -4  -1   4 56.8137 10.0990  14
  -4  -1   4 70.6900 10.7998   6
  -4  -1   5 910.673 40.5924   6
  -4  -1   6 20.6077 7.86882  14
  -4  -1   6 10.8938 5.88423   6
  -4  -1   7 562.818 33.1159  14
  -4  -1   7 560.673 34.7285   6
  -4  -1   8 6.54562 5.21928   6
  -4  -1   8-3.75217 3.17338  14
  -4  -1   9 14.2301 8.02493   6
  -4  -1   9 9.72279 6.58036  14
  -4  -1  10 19.9632 8.04326  14
  -4  -1  10 20.4528 9.00651   6
  -4   0 -11 22.9494 9.11894  17
  -4   0 -11 28.6759 9.34181  19
  -4   0 -10 50.5493 10.5110  19
  -4   0 -10 36.2271 10.0458  17
  -4   0  -9 163.107 17.3413  17
  -4   0  -9 152.321 16.4242  19
  -4   0  -8 2.95202 4.78068  19
  -4   0  -8-1.57036 3.75645  17
  -4   0  -7 234.262 18.5024  19
  -4   0  -7 198.456 19.0314  18
  -4   0  -6-1.57667 2.17753  18
  -4   0  -6 1.27241 3.04375  19
  -4   0  -5 739.066 31.5420  19
  -4   0  -5 785.428 35.9406  18
  -4   0  -4 225.753 18.6915  18
  -4   0  -3 1341.07 47.8367  18
  -4   0  -3 1440.46 44.2148  13
  -4   0  -2 97.7471 10.4721  14
  -4   0  -2 69.5995 10.0423  18
  -4   0  -1 1333.51 43.0490  14
  -4   0  -1 1330.88 45.8555  18
  -4   0   0 39.9583 7.51113  14
  -4   0   0 65.2774 9.84690  18
  -4   0   1 906.941 36.7546  14
  -4   0   2 354.113 22.7373  14
  -4   0   2 391.250 21.9100   6
  -4   0   3 99.2058 11.9065   6
  -4   0   3 101.454 12.6797  14
  -4   0   4 101.361 13.0613  14
  -4   0   4 67.1772 10.5420   6
  -4   0   5 81.4585 12.1714   6
  -4   0   6 651.747 28.7716  20
  -4   0   6 615.998 34.7050   6
  -4   0   6 636.106 34.3732  14
  -4   0   7 522.110 32.0137  14
  -4   0   7 473.333 31.7954   6
  -4   0   8 504.351 33.8983   6
  -4   0   8 536.059 33.0323  14
  -4   0   9 9.35997 7.58155   6
  -4   0   9 17.6295 7.16020  14
  -4   0  10 185.480 20.3017  14
  -4   0  10 136.160 19.6757   6
  -4   1 -10 43.3380 10.7286  17
  -4   1  -9 356.013 26.3526  17
  -4   1  -8 3.25154 5.02070  17
  -4   1  -8-1.46897 2.02880  19
  -4   1  -7 68.8167 10.5132  19
  -4   1  -7 83.3457 11.9091  17
  -4   1  -6 6.25028 4.40273  19
  -4   1  -6 3.94967 4.26544  17
  -4   1  -5 126.490 12.6089  19
  -4   1  -5 145.839 16.2141  18
  -4   1  -4 531.075 26.4321  20
  -4   1  -4 455.552 27.8312  18
  -4   1  -3 806.311 36.8897  18
  -4   1  -3 824.919 33.7735  20
  -4   1  -2 239.665 19.2490  18
  -4   1  -1 14.1990 4.90626  14
  -4   1  -1 13.0369 4.90415  18
  -4   1   0 947.559 37.1375  14
  -4   1   0 894.912 38.0258  18
  -4   1   1 384.002 23.9320  18
  -4   1   1 378.482 23.3758  14
  -4   1   2 971.331 39.5614  14
  -4   1   3 8.60477 4.49315  20
  -4   1   3 7.60444 4.45724  14
  -4   1   4 101.439 13.1415  14
  -4   1   4 109.013 12.1082  20
  -4   1   4 95.9399 12.3334   6
  -4   1   5 11.5851 5.83156   6
  -4   1   5 19.4319 5.81454  20
  -4   1   6 896.303 41.9513  14
  -4   1   6 824.997 41.0164   6
  -4   1   6 906.909 35.3490  20
  -4   1   7 141.612 13.6561  20
  -4   1   7 107.164 15.5923   6
  -4   1   7 97.1550 14.5766  14
  -4   1   8 696.137 40.5498   6
  -4   1   8 756.253 39.8407  14
  -4   1   9 94.0221 16.3146   6
  -4   1   9 142.601 17.8373  14
  -4   1  10 37.9148 11.5916   6
  -4   1  10 41.2072 10.4702  14
  -4   2 -10 68.5978 13.4008  17
  -4   2 -10 73.6633 15.4477  16
  -4   2  -9 103.795 15.0797  17
  -4   2  -9 62.8104 13.8046  16
  -4   2  -8 304.060 23.5119  17
  -4   2  -8 271.052 25.2449  16
  -4   2  -7 5.98940 6.16605  16
  -4   2  -6 118.531 15.5802  16
  -4   2  -5 11.0274 5.67829  18
  -4   2  -5 12.8299 5.64941  16
  -4   2  -4 292.555 20.0488  20
  -4   2  -4 279.384 22.4721  18
  -4   2  -3 35.9154 7.73610  20
  -4   2  -3 30.0844 8.33589  18
  -4   2  -2 754.126 32.9293  20
  -4   2  -2 665.422 34.4013  18
  -4   2  -1 66.7634 9.76653  14
  -4   2  -1 81.9440 10.8273  20
  -4   2  -1 70.5730 11.5072  18
  -4   2   0 772.876 33.6387  20
  -4   2   0 785.862 34.6262  14
  -4   2   0 801.958 36.8415  18
  -4   2   1 54.4671 9.72639  14
  -4   2   1 51.0639 8.79758  20
  -4   2   2 355.136 23.7660  18
  -4   2   2 341.432 23.4996  14
  -4   2   2 371.595 22.6202   1
  -4   2   3 679.780 31.5206  20
  -4   2   3 624.357 32.7877  14
  -4   2   4 705.623 31.9355  20
  -4   2   4 668.733 34.8592  14
  -4   2   5 46.7147 8.80167  20
  -4   2   5 40.6907 9.63961  14
  -4   2   6 1.28232 4.33807  20
  -4   2   7 91.3511 14.2667  14
  -4   2   7 91.6069 11.7664  20
  -4   2   7 102.181 15.2575   6
  -4   2   8 81.5385 14.3156   6
  -4   2   8 70.6029 13.2582  14
  -4   2   9 347.794 28.0080  14
  -4   2   9 334.560 28.9739   6
  -4   2  10 36.4386 10.4727  14
  -4   2  10 17.8891 9.34542   6
  -4   2  11 60.5929 13.2256  14
  -4   3  -9 7.81308 7.63083  16
  -4   3  -8 62.2967 14.8250  16
  -4   3  -7 8.76565 6.42141  16
  -4   3  -6 153.347 18.6794  16
  -4   3  -5 120.435 15.4888  16
  -4   3  -5 108.400 15.7204  15
  -4   3  -4 73.3008 13.0832  18
  -4   3  -4 57.8913 11.4861  15
  -4   3  -3 106.796 14.9401  18
  -4   3  -3 135.923 14.3228  20
  -4   3  -3 146.024 16.0641  15
  -4   3  -2 314.399 24.2082  18
  -4   3  -2 327.592 22.0910  20
  -4   3  -1 289.999 21.0712  20
  -4   3   0 12.7301 5.35190  20
  -4   3   0 8.34096 5.40521  18
  -4   3   1 171.687 15.9880  20
  -4   3   1 174.944 17.3578  18
  -4   3   2 116.590 13.6227  20
  -4   3   2 101.394 12.7243   1
  -4   3   2 106.157 13.5785  18
  -4   3   2 117.571 14.5239  14
  -4   3   3 1059.33 41.4659  20
  -4   3   3 1052.70 44.8941  14
  -4   3   3 987.072 41.8334   1
  -4   3   4 251.103 19.2385  20
  -4   3   4 213.342 19.6480   1
  -4   3   4 182.105 18.8631  14
  -4   3   5 253.952 22.4178  14
  -4   3   5 268.102 20.1223  20
  -4   3   6 1.39768 4.72832  20
  -4   3   7 195.883 21.0830  14
  -4   3   7 196.609 17.1570  20
  -4   3   8 8.48693 5.86133  14
  -4   3   8 4.56572 6.30634   6
  -4   3   9 183.549 22.2099   6
  -4   3   9 210.593 22.6405  14
  -4   3  10 53.8600 12.9924  14
  -4   3  10 65.2521 14.4431   6
  -4   3  11 47.8038 12.1949  14
  -4   4  -8 2.59997 5.07838  16
  -4   4  -8 5.59030 7.22219  15
  -4   4  -7 229.629 25.4604  15
  -4   4  -7 257.011 25.8189  16
  -4   4  -6 72.7882 15.2078  15
  -4   4  -6 74.8227 13.6324  16
  -4   4  -5 235.324 22.7054  16
  -4   4  -5 213.965 23.0783  15
  -4   4  -4 14.6460 7.08192  15
  -4   4  -4 19.1795 8.58387  18
  -4   4  -3 204.019 20.5893  15
  -4   4  -3 159.167 16.5412  20
  -4   4  -2 5.82142 6.28711  18
  -4   4  -2 18.1413 7.51812  15
  -4   4  -2 12.2576 6.52422  20
  -4   4  -1 184.663 19.8585  18
  -4   4  -1 168.078 16.9508  20
  -4   4   0-1.55121 3.71073  20
  -4   4   0-1.80536 4.31867  18
  -4   4   1 136.965 14.9981  20
  -4   4   1 113.994 15.1334  18
  -4   4   2 21.8357 7.46776  20
  -4   4   2 16.9557 7.41106  18
  -4   4   2 23.8650 7.29362   1
  -4   4   3 137.708 15.5744  18
  -4   4   3 132.627 15.7816   1
  -4   4   4 399.893 28.5791  14
  -4   4   4 331.705 25.5087   1
  -4   4   4 369.169 24.9726  20
  -4   4   5 534.924 33.5117   1
  -4   4   5 518.091 29.6115  20
  -4   4   5 457.695 31.7442  14
  -4   4   6 192.391 18.1792  20
  -4   4   7 21.3123 7.73363  20
  -4   4   7 34.5664 10.3424  14
  -4   4   8 49.2798 11.5927  14
  -4   4   8 41.8829 9.92789  20
  -4   4   9-4.62565 5.05089  14
  -4   4  10 94.6302 16.7138  14
  -4   5  -6 19.4259 9.18496  16
  -4   5  -6 2.71470 6.49489  15
  -4   5  -5 53.5110 13.1894  15
  -4   5  -4 58.6197 13.5788  18
  -4   5  -4 74.0295 14.7788  15
  -4   5  -3 17.9814 8.21921  15
  -4   5  -3 29.0165 9.75336  18
  -4   5  -2 23.7117 8.44353  20
  -4   5  -2 40.2915 10.7684  15
  -4   5  -2 25.5777 9.54737  18
  -4   5  -1 47.7442 10.1440  20
  -4   5  -1 30.6068 9.36265  18
  -4   5  -1 40.2601 10.7815  15
  -4   5   0 185.178 18.9583  20
  -4   5   0 165.211 18.8843  18
  -4   5   1 55.0840 11.0380  20
  -4   5   1 30.4763 8.93906  18
  -4   5   2 231.525 21.3709  18
  -4   5   2 212.201 20.0380  20
  -4   5   3 37.9865 9.54785  20
  -4   5   3 28.2150 8.79115  18
  -4   5   3 24.4602 8.43082   1
  -4   5   4 133.688 16.8711   1
  -4   5   4 136.294 16.1854  20
  -4   5   5 68.9069 12.2856  20
  -4   5   5 67.7734 12.9527   1
  -4   5   6 251.631 24.4315   1
  -4   5   6 282.839 23.0226  20
  -4   5   7 25.4764 8.62212  20
  -4   5   7 11.5856 7.50912  14
  -4   5   8 46.8372 10.6128  20
  -4   5   8 61.9840 13.5957  14
  -4   5   9 2.45015 6.76780  14
  -4   6  -4 32.3991 11.1940  15
  -4   6  -4 25.6195 11.1965  18
  -4   6  -3 5.12881 7.91951  15
  -4   6  -3 2.44186 5.84137  18
  -4   6  -2 63.8819 13.1409  20
  -4   6  -2 65.2756 13.8838  18
  -4   6  -2 85.5460 16.0425  15
  -4   6  -1 69.2916 13.9249  15
  -4   6  -1 37.8525 11.3239  18
  -4   6  -1 58.8525 12.3210  20
  -4   6   0 243.696 24.6090  15
  -4   6   0 329.892 26.0019  20
  -4   6   0 313.368 27.2209  18
  -4   6   1 151.349 18.7629  20
  -4   6   1 183.205 20.5365  18
  -4   6   2 90.3032 14.4701  20
  -4   6   2 92.2371 14.7776  18
  -4   6   3-1.87536 3.66286  18
  -4   6   3 1.92385 5.94123  20
  -4   6   3 6.27808 6.13100   1
  -4   6   4-2.19888 4.29484   1
  -4   6   5 32.6598 9.93693  20
  -4   6   5 27.7022 10.3400   1
  -4   6   6 85.0532 15.9680   1
  -4   6   6 89.9171 14.4044  20
  -4   6   7 55.0199 13.4090  14
  -4   6   7 63.8979 14.1499   1
  -4   6   7 77.8454 14.0293  20
  -4   6   8 30.6942 10.8968  14
  -4   7  -2 42.9593 12.5981  18
  -4   7  -1 72.3877 15.1159  18
  -4   7  -1 57.6340 14.0424  15
  -4   7   0 45.1172 12.4954  15
  -4   7   0 39.2307 11.5066  18
  -4   7   1 67.8592 15.1704  15
  -4   7   1 46.8901 11.4214  20
  -4   7   1 39.8184 11.4521  18
  -4   7   2-2.09410 4.09009  18
  -4   7   2 2.13863 5.90726  20
  -4   7   3 34.2710 10.8830  20
  -4   7   3 44.1131 11.5744   1
  -4   7   4 12.1038 7.84250   1
  -4   7   5 20.1837 9.22334   1
  -3 -11  -4 7.21590 6.59251   4
  -3 -10  -9 34.8395 10.1417  12
  -3 -10  -8 51.3974 11.6144  12
  -3 -10  -7 121.699 16.4013   4
  -3 -10  -7 89.6376 13.2508  12
  -3 -10  -6 194.113 20.2104   4
  -3 -10  -5 67.2420 12.3775   4
  -3 -10  -4 13.5157 7.00121   4
  -3 -10  -4 7.22880 5.58266   2
  -3 -10  -3 54.1655 11.7045   2
  -3 -10  -2 61.1941 12.0851  22
  -3 -10  -2 69.5469 12.6892   2
  -3 -10  -1 109.817 16.0330   2
  -3 -10  -1 105.383 15.7893  22
  -3 -10   0 48.1172 12.2771  22
  -3  -9 -10 64.1895 12.4053  12
  -3  -9 -10 72.6099 13.6803   4
  -3  -9  -9 14.1255 6.90283  12
  -3  -9  -9 29.0288 9.06795   4
  -3  -9  -8 7.41523 7.24258   4
  -3  -9  -8 9.90620 6.24587  12
  -3  -9  -7 165.936 16.9068  12
  -3  -9  -7 205.917 20.0090   4
  -3  -9  -6 114.286 13.5508  12
  -3  -9  -5 451.819 27.2665   2
  -3  -9  -5 432.828 25.4158  12
  -3  -9  -4 147.391 15.8183   2
  -3  -9  -4 121.477 13.1150  12
  -3  -9  -3 84.4213 12.3191  22
  -3  -9  -3 67.4486 11.4099   2
  -3  -9  -2 3.41785 5.27749   2
  -3  -9  -2-1.62200 4.48024  22
  -3  -9  -1 61.6812 12.0809  22
  -3  -9  -1 65.6819 11.9191   2
  -3  -9   0 108.907 15.2670   2
  -3  -9   0 108.505 15.8490  22
  -3  -9   1 196.435 21.2450  22
  -3  -9   1 206.048 20.8590   2
  -3  -9   2 67.5155 14.2996  22
  -3  -8 -11 73.5061 13.3981   4
  -3  -8 -10 14.8032 7.23285   4
  -3  -8 -10 23.4357 8.62864  12
  -3  -8  -9 117.891 14.7987  12
  -3  -8  -9 109.742 14.8565   4
  -3  -8  -8 29.7490 8.65988  12
  -3  -8  -7 20.3093 6.65102  12
  -3  -8  -6 47.3101 8.88045  12
  -3  -8  -5 248.353 18.3151  12
  -3  -8  -4 712.194 31.0244  12
  -3  -8  -4 732.192 33.2426   2
  -3  -8  -3 320.744 22.1264   2
  -3  -8  -3 285.423 18.8338  12
  -3  -8  -2 278.989 18.4918  12
  -3  -8  -2 326.235 22.7082   2
  -3  -8  -1 23.6029 7.37714   2
  -3  -8   0 85.5815 13.0145   2
  -3  -8   1 82.1536 12.6725   2
  -3  -8   2 358.391 27.3746  22
  -3  -8   3 23.9549 8.44729   2
  -3  -8   4 44.4428 11.7099  22
  -3  -8   4 60.9372 11.9309   2
  -3  -8   5 15.6642 8.11559   2
  -3  -7 -13 39.5273 9.94129  19
  -3  -7 -12 7.88142 7.45487  12
  -3  -7 -12 16.4742 7.37507  19
  -3  -7 -12 16.6161 7.65182   4
  -3  -7 -11 7.35892 5.95915  12
  -3  -7 -11 3.52429 5.16305   4
  -3  -7 -11 4.51617 4.87633  19
  -3  -7 -10 287.665 23.0048  12
  -3  -7 -10 327.064 24.2230   4
  -3  -7 -10 279.736 20.6153  19
  -3  -7  -9 109.327 14.0292   4
  -3  -7  -9 96.3418 11.7018  19
  -3  -7  -8 220.130 16.7407  19
  -3  -7  -8 245.250 19.6213  12
  -3  -7  -7 1.36495 4.21544  12
  -3  -7  -7 4.38900 4.00956  19
  -3  -7  -6 287.749 18.0559  19
  -3  -7  -6 280.991 19.8254  12
  -3  -7  -5 110.091 12.1488  12
  -3  -7  -4 1407.41 44.9053  12
  -3  -7  -4 1444.65 45.6617   2
  -3  -7  -3 502.822 24.9620  12
  -3  -7  -3 582.513 27.9914   2
  -3  -7  -2 253.738 17.0845  12
  -3  -7  -2 257.711 18.9464   2
  -3  -7  -2 252.149 17.8183  13
  -3  -7  -1 1.14229 2.73250  13
  -3  -7  -1-1.04723 1.77138  12
  -3  -7  -1-1.37248 2.68067   2
  -3  -7   0 185.344 14.8390  13
  -3  -7   0 144.210 12.6826  12
  -3  -7   0 161.376 15.6458   2
  -3  -7   1 260.169 16.8538  12
  -3  -7   1 233.554 16.5619  13
  -3  -7   1 266.914 20.6616   2
  -3  -7   2 378.550 25.0324   2
  -3  -7   3 138.294 15.7925   2
  -3  -7   4 15.4243 7.29856   2
  -3  -7   5 83.5223 13.3828   2
  -3  -7   5 84.1865 15.4265  22
  -3  -7   6 16.4515 7.78126   2
  -3  -7   6-2.23592 4.88273  22
  -3  -7   7 87.7285 13.9377   2
  -3  -6 -13 1.86413 5.14902  19
  -3  -6 -13-1.79613 5.26214  17
  -3  -6 -12 98.3396 14.1438  19
  -3  -6 -12 138.784 16.8649  12
  -3  -6 -11 9.57650 5.62120   4
  -3  -6 -11 12.2215 6.14871  12
  -3  -6 -11 4.64081 5.23456  19
  -3  -6 -10 221.949 19.6048  12
  -3  -6 -10 245.224 19.9645   4
  -3  -6 -10 248.063 19.3278  19
  -3  -6  -9 356.643 23.9077  12
  -3  -6  -9 356.694 22.3754  19
  -3  -6  -8 992.530 37.4199  19
  -3  -6  -8 1047.63 40.7078  12
  -3  -6  -7 540.300 25.9007  19
  -3  -6  -6 250.868 16.8333  19
  -3  -6  -6 218.492 16.8764  12
  -3  -6  -5 64.3386 9.29685  12
  -3  -6  -4-1.10214 2.40673  12
  -3  -6  -4 1.99635 2.92438   2
  -3  -6  -4 2.29267 3.71290  13
  -3  -6  -3 297.999 18.3867  12
  -3  -6  -3 274.628 18.2622  13
  -3  -6  -3 279.782 17.7483   2
  -3  -6  -2 113.441 11.6485   2
  -3  -6  -2 113.207 11.3888  12
  -3  -6  -2 88.0028 10.1714  13
  -3  -6  -1 1069.88 37.1393  13
  -3  -6  -1 1148.88 40.0162   2
  -3  -6  -1 1018.50 35.4831  12
  -3  -6   0 237.300 16.3629  13
  -3  -6   0 231.446 17.5640   2
  -3  -6   1 384.025 20.9333  13
  -3  -6   1 461.301 25.9340   2
  -3  -6   2 55.2416 9.50717   2
  -3  -6   2 43.1972 7.34327  13
  -3  -6   3 1176.58 38.3333  13
  -3  -6   4 206.247 18.6044   2
  -3  -6   5 100.386 13.5843   2
  -3  -6   6 8.41687 6.77916   2
  -3  -6   7 24.1718 8.26704   2
  -3  -6   7 23.2426 8.51450  22
  -3  -6   8 51.0230 10.8908   2
  -3  -5 -13 53.7022 12.0128  19
  -3  -5 -13 40.9298 10.6164  17
  -3  -5 -13 53.2476 11.7658  12
  -3  -5 -12 5.22390 5.38044  19
  -3  -5 -12 20.6921 7.71888  17
  -3  -5 -12 19.5435 7.56507  12
  -3  -5 -11 259.002 21.4837  12
  -3  -5 -11 242.320 20.1805  19
  -3  -5 -10 101.290 13.0132  19
  -3  -5 -10 75.1480 10.9951   4
  -3  -5 -10 97.7542 12.8073  12
  -3  -5  -9 1018.50 39.5345  19
  -3  -5  -9 1010.45 40.1849  12
  -3  -5  -8 253.014 18.1717  19
  -3  -5  -8 275.229 19.2920  12
  -3  -5  -7 933.808 35.0759  19
  -3  -5  -7 961.095 36.3456  12
  -3  -5  -6 15.8993 5.08731  12
  -3  -5  -5 228.496 16.4136  12
  -3  -5  -5 266.560 17.3095  13
  -3  -5  -4 316.259 18.8956  13
  -3  -5  -4 319.509 17.0553   2
  -3  -5  -3 611.774 26.3543  12
  -3  -5  -3 622.338 26.7734  13
  -3  -5  -3 659.572 25.8977   2
  -3  -5  -2 1126.49 36.4138   2
  -3  -5  -2 1043.51 35.3853  12
  -3  -5  -1 1538.96 46.4384   2
  -3  -5  -1 1700.07 47.0721  13
  -3  -5   0 227.506 15.7041  13
  -3  -5   0 208.566 15.7148   2
  -3  -5   1 437.575 21.7716  13
  -3  -5   1 347.286 21.1938   2
  -3  -5   2 454.899 22.8289  13
  -3  -5   2 456.495 24.8391   2
  -3  -5   2 490.396 27.1268   6
  -3  -5   3 573.465 25.6199  13
  -3  -5   3 544.748 30.0624   6
  -3  -5   4 582.107 25.9521  13
  -3  -5   4 584.095 30.0607   2
  -3  -5   4 549.940 31.5859   6
  -3  -5   5 7.47143 5.47254   6
  -3  -5   5 1.49233 4.12237   2
  -3  -5   6 81.5528 14.1400   6
  -3  -5   6 102.762 13.3205   2
  -3  -5   7 6.64155 6.11571   6
  -3  -5   7 6.45865 4.98725   2
  -3  -5   8 103.510 15.8547  22
  -3  -5   8 95.8613 13.5768   2
  -3  -4 -13 185.054 19.2889  12
  -3  -4 -13 220.166 21.9523  17
  -3  -4 -13 231.751 22.2348  19
  -3  -4 -12 30.3970 9.08858  19
  -3  -4 -12 44.3791 10.5580  17
  -3  -4 -12 38.5493 9.12840  12
  -3  -4 -11 565.377 31.2785  19
  -3  -4 -11 531.180 29.9963  12
  -3  -4 -10 2.94457 4.76915  19
  -3  -4 -10 7.17335 4.85393  12
  -3  -4  -9 12.0887 5.41040  19
  -3  -4  -9 9.18808 4.79846  12
  -3  -4  -8 40.7305 8.00644  19
  -3  -4  -8 22.9141 6.35638  12
  -3  -4  -7 753.512 31.0372  12
  -3  -4  -7 754.180 31.1476  19
  -3  -4  -6 805.243 30.3086  13
  -3  -4  -6 783.491 30.8300  12
  -3  -4  -6 787.912 30.9116  19
  -3  -4  -5 496.403 23.1035  13
  -3  -4  -5 535.366 24.3051  12
  -3  -4  -4 980.883 34.2517  12
  -3  -4  -4 1014.40 34.1865  13
  -3  -4  -4 1045.20 30.5913   2
  -3  -4  -3 352.715 19.1218  12
  -3  -4  -3 390.538 18.2271   2
  -3  -4  -3 385.880 19.9571  13
  -3  -4  -2 2504.93 57.8287   2
  -3  -4  -2 2509.84 60.4516  13
  -3  -4  -1 331.439 18.1632   2
  -3  -4   0 1308.21 40.5133   2
  -3  -4   0 1300.98 40.1380  13
  -3  -4   0 1420.95 41.3799   6
  -3  -4   1 3.99486 3.08476  13
  -3  -4   1 5.39741 3.49683   6
  -3  -4   1 3.19839 2.94539   2
  -3  -4   2 192.973 15.0603   2
  -3  -4   2 216.852 16.5122   6
  -3  -4   2 192.177 14.2928  13
  -3  -4   3 176.634 14.1159  13
  -3  -4   3 185.594 16.2498   6
  -3  -4   4 1143.57 44.2738   6
  -3  -4   4 1127.92 41.2038   2
  -3  -4   4 1048.70 36.8566  13
  -3  -4   5 516.894 27.7081   2
  -3  -4   5 559.614 31.7346   6
  -3  -4   5 519.628 25.0762  13
  -3  -4   6 870.380 37.5495   2
  -3  -4   6 956.421 44.3113   6
  -3  -4   7 134.337 17.3254   6
  -3  -4   7 141.599 15.2009   2
  -3  -4   8 46.5478 11.4776   6
  -3  -4   8 56.1923 10.4760   2
  -3  -4   9 4.79786 6.62674   6
  -3  -4   9 6.40075 4.94237   2
  -3  -3 -13 120.248 17.0558  19
  -3  -3 -13 150.144 18.2294  17
  -3  -3 -12 275.275 23.5093  19
  -3  -3 -12 252.087 22.4651  17
  -3  -3 -11 2.90952 4.71188  12
  -3  -3 -11-1.65106 4.56051  19
  -3  -3 -11 1.67462 4.32685  17
  -3  -3 -10 119.599 13.9707  19
  -3  -3 -10 139.412 14.3376  12
  -3  -3  -9 4.07712 4.78645  19
  -3  -3  -9 11.0209 4.93175  12
  -3  -3  -8 680.105 29.3795  12
  -3  -3  -8 674.777 30.4714  19
  -3  -3  -7 46.0839 7.40202  12
  -3  -3  -7 42.0148 7.46505  19
  -3  -3  -6 1437.99 40.5247  13
  -3  -3  -6 1450.05 42.1811  12
  -3  -3  -5 558.160 24.2942  12
  -3  -3  -5 533.935 23.1479  13
  -3  -3  -4 4623.83 90.5418  13
  -3  -3  -4 4510.14 91.0928  12
  -3  -3  -3 206.527 14.0008  12
  -3  -3  -3 223.475 14.4830  13
  -3  -3  -3 194.007 11.8028   2
  -3  -3  -2 845.136 30.1539  13
  -3  -3  -2 867.645 27.8721   2
  -3  -3  -1 307.707 16.4584   2
  -3  -3  -1 322.230 15.3434   6
  -3  -3  -1 340.962 18.4269  13
  -3  -3   0 570.971 22.6538   6
  -3  -3   1 16.6472 4.52307   6
  -3  -3   1 19.7053 5.00614  13
  -3  -3   2 103.503 10.6679  13
  -3  -3   2 129.012 12.1172   6
  -3  -3   3 142.777 12.6758  13
  -3  -3   3 177.408 15.1736   6
  -3  -3   4 316.842 21.4404   6
  -3  -3   5 1925.88 60.7042   6
  -3  -3   5 1930.27 56.3749   2
  -3  -3   6 546.534 31.4675   6
  -3  -3   6 467.447 26.0745   2
  -3  -3   7 799.767 40.2880   6
  -3  -3   7 630.080 31.5746   2
  -3  -3   8 6.20673 6.99908   6
  -3  -3   8 1.47831 3.22832   2
  -3  -3   9 41.2493 9.09400   2
  -3  -3  10 2.43478 5.82434   6
  -3  -2 -13 18.7184 9.31039  17
  -3  -2 -13 14.2512 7.44256  19
  -3  -2 -12 266.088 23.8748  17
  -3  -2 -12 268.584 23.4197  19
  -3  -2 -11 1.68690 4.35863  19
  -3  -2 -10 742.203 35.1804  19
  -3  -2  -9 219.032 16.2836  12
  -3  -2  -9 185.829 16.6037  19
  -3  -2  -8 60.0755 9.09121  19
  -3  -2  -8 42.6054 7.13778  12
  -3  -2  -7 44.4531 7.80050  19
  -3  -2  -7 18.3716 5.01012  12
  -3  -2  -6 508.468 22.6181  12
  -3  -2  -6 468.654 23.1882  19
  -3  -2  -6 494.313 21.0691  13
  -3  -2  -5 1298.75 38.2914  18
  -3  -2  -5 1385.25 38.0356  13
  -3  -2  -4 452.016 20.5302  18
  -3  -2  -4 441.026 20.1791  13
  -3  -2  -4 454.133 20.6952  12
  -3  -2  -3 980.142 28.1403  14
  -3  -2  -3 986.321 31.3977  18
  -3  -2  -2 132.842 10.7084  18
  -3  -2  -2 143.882 10.3407  14
  -3  -2  -2 136.843 11.2044  13
  -3  -2  -1 1634.58 44.3194  13
  -3  -2  -1 1659.53 42.8933  14
  -3  -2  -1 1592.05 37.2040   6
  -3  -2   0 577.691 21.5593   6
  -3  -2   0 653.547 25.4081  14
  -3  -2   0 590.946 24.9326  13
  -3  -2   1 4988.11 98.1933  14
  -3  -2   1 4937.83 94.4530   6
  -3  -2   2 543.408 24.8311  14
  -3  -2   2 490.356 22.9688   6
  -3  -2   3 1139.60 38.9559   6
  -3  -2   3 1140.95 39.4592  14
  -3  -2   4 145.228 13.9498   6
  -3  -2   5 798.045 35.7176   6
  -3  -2   5 790.589 34.0085  14
  -3  -2   6 149.503 15.9968   6
  -3  -2   6 150.524 14.9250  14
  -3  -2   7 308.123 24.2441   6
  -3  -2   8 84.2307 14.1078   6
  -3  -2   9 158.766 16.0795   2
  -3  -2  10 11.5934 7.16240   6
  -3  -2  11 59.9468 13.6077   6
  -3  -1 -12 43.8489 10.8746  19
  -3  -1 -12 45.8011 11.0191  17
  -3  -1 -11 369.304 26.9838  17
  -3  -1 -11 370.499 26.2163  19
  -3  -1 -10 9.87058 5.79467  17
  -3  -1 -10 12.4098 5.67037  19
  -3  -1  -9 549.596 29.8970  17
  -3  -1  -9 576.480 29.5585  19
  -3  -1  -8-2.51971 2.75135  19
  -3  -1  -7 1141.44 35.7276  12
  -3  -1  -7 1026.92 37.5589  19
  -3  -1  -6 51.6003 6.92134  12
  -3  -1  -6 33.1806 6.18718  19
  -3  -1  -5 819.503 31.0969  18
  -3  -1  -5 868.539 29.1314  12
  -3  -1  -5 857.760 27.5755  13
  -3  -1  -5 887.390 31.4754  19
  -3  -1  -4 74.1249 7.95106  12
  -3  -1  -4 58.6379 7.08338  13
  -3  -1  -4 78.6459 8.92896  18
  -3  -1  -3 1578.30 42.0998  13
  -3  -1  -3 1574.04 37.9454  14
  -3  -1  -3 1593.92 44.0993  18
  -3  -1  -2 29.7221 4.97264  14
  -3  -1  -2 17.9517 4.48324  18
  -3  -1  -2 28.4122 5.30030  13
  -3  -1  -1 1710.20 43.5334  14
  -3  -1  -1 1659.27 44.8809  18
  -3  -1  -1 1640.59 36.7478   6
  -3  -1   0 2571.33 53.6539   6
  -3  -1   0 2467.02 58.0406  14
  -3  -1   1 2634.29 58.2083   6
  -3  -1   1 2595.22 61.3882  14
  -3  -1   2 1270.16 38.5273   6
  -3  -1   2 1248.35 39.5319  14
  -3  -1   3 808.488 32.0251  14
  -3  -1   3 904.900 33.3022   6
  -3  -1   4 391.108 22.5616   6
  -3  -1   5 174.388 15.7769   6
  -3  -1   5 176.163 15.4594  14
  -3  -1   6 164.708 15.2614  14
  -3  -1   6 156.950 16.1355   6
  -3  -1   7 17.0984 6.47282   6
  -3  -1   7 21.3779 6.23035  14
  -3  -1   8 1077.34 42.9682  14
  -3  -1   8 1076.78 47.6203   6
  -3  -1   9 137.077 15.2597  14
  -3  -1  10 281.913 25.8996   6
  -3  -1  11 4.84724 6.69478   6
  -3   0 -12 1.92665 5.95047  19
  -3   0 -12 12.3910 7.54659  17
  -3   0 -11 168.940 18.7044  17
  -3   0 -11 183.822 19.0724  19
  -3   0 -10 3.17961 5.14937  19
  -3   0 -10 1.72224 4.75724  17
  -3   0  -9 470.285 27.8851  17
  -3   0  -9 408.423 25.1910  19
  -3   0  -8 469.509 26.4409  17
  -3   0  -8 491.017 26.1200  19
  -3   0  -7 362.228 21.8958  17
  -3   0  -7 381.829 21.6880  19
  -3   0  -6 434.886 22.3655  19
  -3   0  -5 383.104 19.9485  19
  -3   0  -4 657.719 23.7288  13
  -3   0  -4 648.947 28.0205  18
  -3   0  -4 670.063 23.9776  12
  -3   0  -3 115.615 9.66656  13
  -3   0  -3 97.7356 10.4435  18
  -3   0  -2 2019.39 53.2469  18
  -3   0  -2 2015.28 47.7001  14
  -3   0  -1 69.1929 8.50085  18
  -3   0  -1 53.4140 6.75003  14
  -3   0   0 607.397 24.8429  14
  -3   0   0 657.523 26.8198  18
  -3   0   1 36.1746 6.18789  14
  -3   0   2 4398.52 87.7982   6
  -3   0   2 4264.91 90.2589  14
  -3   0   3 1102.04 38.0998  14
  -3   0   3 1083.72 37.0088   6
  -3   0   4 1665.80 50.8594   6
  -3   0   5 183.496 15.5849  14
  -3   0   5 161.861 15.1586   6
  -3   0   6 419.573 24.6293  14
  -3   0   6 406.992 19.1642  20
  -3   0   6 359.175 24.3386   6
  -3   0   7 342.224 24.7442   6
  -3   0   7 379.723 18.0801  20
  -3   0   7 362.651 23.5773  14
  -3   0   8 511.073 31.7833   6
  -3   0   8 505.121 28.5044  14
  -3   0   9 189.323 18.0197  14
  -3   0  10 170.056 20.3913   6
  -3   0  10 186.874 18.1849  14
  -3   0  11 19.1002 8.41101   6
  -3   0  12-2.55304 4.31855   6
  -3   1 -12 37.0028 10.4302  19
  -3   1 -11 15.7749 7.20868  17
  -3   1 -11 16.0410 8.35055  19
  -3   1 -10 310.330 24.6591  17
  -3   1 -10 341.663 24.4828  19
  -3   1  -9 3.26874 4.51440  17
  -3   1  -9-1.45600 4.02172  19
  -3   1  -8 611.318 29.6068  19
  -3   1  -8 587.227 30.8697  17
  -3   1  -7 50.8698 8.25449  19
  -3   1  -7 57.0634 9.33777  17
  -3   1  -6 945.224 33.8553  19
  -3   1  -6 884.769 34.5934  17
  -3   1  -5 32.6775 6.06566  19
  -3   1  -4 1056.17 33.4202  19
  -3   1  -4 1079.72 34.1239  20
  -3   1  -3 64.1666 8.85760  18
  -3   1  -2 1384.14 38.8902  14
  -3   1  -2 1465.66 44.5800  18
  -3   1  -1 33.9513 6.39664  18
  -3   1  -1 36.4315 5.07041  16
  -3   1  -1 23.8481 4.89469  15
  -3   1   0 207.472 14.3469  14
  -3   1   0 200.164 11.9176  15
  -3   1   0 184.763 11.8991   1
  -3   1   0 156.997 13.2373  18
  -3   1   1 663.682 25.5185   1
  -3   1   1 672.748 27.5965  14
  -3   1   1 698.183 28.4072  18
  -3   1   2 750.002 30.3606  14
  -3   1   3 554.337 26.3831  14
  -3   1   4 606.125 28.6699  14
  -3   1   4 574.764 24.0279  20
  -3   1   5 1942.98 49.2533  20
  -3   1   5 1840.83 55.9770  14
  -3   1   6 158.898 12.1319  20
  -3   1   6 179.473 16.2382  14
  -3   1   6 134.740 15.0427   6
  -3   1   7 499.334 29.8966   6
  -3   1   7 520.175 28.7977  14
  -3   1   7 513.418 22.1126  20
  -3   1   8 1.85377 4.78972   6
  -3   1   8-1.54966 2.62122  14
  -3   1   9 382.244 25.6788  14
  -3   1  10 33.1286 9.01733  14
  -3   1  10 28.7342 9.90150   6
  -3   1  11 166.476 20.9064   6
  -3   1  12 20.2933 9.27342   6
  -3   2 -11 21.2832 10.0636  16
  -3   2 -11 6.18172 7.53111  17
  -3   2 -10 188.001 19.8675  17
  -3   2  -9 35.8268 9.58427  17
  -3   2  -8 101.565 13.1799  17
  -3   2  -7 44.0332 8.41513  17
  -3   2  -6 1.21358 3.35215  17
  -3   2  -5 166.159 13.7185  17
  -3   2  -4 612.451 25.8803  20
  -3   2  -4 650.389 25.9391  17
  -3   2  -4 577.581 28.4650  16
  -3   2  -3 1723.37 47.6895  20
  -3   2  -3 1827.94 51.2025  16
  -3   2  -2 291.031 17.0736  16
  -3   2  -2 249.561 16.1030  20
  -3   2  -2 278.051 17.9897  15
  -3   2  -2 237.580 17.4842  18
  -3   2  -1 2481.33 55.9112  16
  -3   2  -1 2443.27 59.8971  15
  -3   2  -1 2346.97 58.5413  20
  -3   2  -1 2426.54 63.2905  18
  -3   2   0 123.664 10.8421  15
  -3   2   0 119.420 11.1037  20
  -3   2   0 105.771 9.87081   1
  -3   2   1 422.778 20.8183   1
  -3   2   1 363.383 19.7461  20
  -3   2   1 415.869 19.4112  15
  -3   2   2 196.456 14.7637   1
  -3   2   2 172.897 13.7110  20
  -3   2   2 223.416 16.1481  18
  -3   2   3 568.267 27.6491  14
  -3   2   3 605.223 27.7841   1
  -3   2   3 603.754 25.8633  20
  -3   2   4 245.240 18.2872  14
  -3   2   4 264.323 16.7056  20
  -3   2   5 1887.09 50.2724  20
  -3   2   6 45.0499 7.21764  20
  -3   2   6 43.9757 8.73044  14
  -3   2   7 237.384 15.5961  20
  -3   2   7 247.940 20.1955  14
  -3   2   8 161.425 18.0471   6
  -3   2   8 178.742 17.6211  14
  -3   2   9 230.577 22.7070   6
  -3   2   9 224.581 20.3174  14
  -3   2  10 170.036 18.0927  14
  -3   2  11 64.7981 13.6968   6
  -3   2  12 35.8580 11.7430   6
  -3   3 -10 3.95225 7.22185  17
  -3   3 -10 15.8019 8.53110  16
  -3   3  -9 191.827 19.3200  17
  -3   3  -9 230.127 25.0935  16
  -3   3  -8 24.1709 8.18782  17
  -3   3  -8 39.8494 10.8182  16
  -3   3  -7 69.1081 10.8296  17
  -3   3  -7 44.2558 10.7898  16
  -3   3  -6 3.63591 3.97016  16
  -3   3  -5 723.571 36.0300  16
  -3   3  -4 185.341 16.8865  16
  -3   3  -3 821.757 32.0180  20
  -3   3  -3 808.203 36.5106  15
  -3   3  -3 841.853 35.1218  16
  -3   3  -2 149.535 13.3485  20
  -3   3  -2 183.130 16.3883  15
  -3   3  -2 182.113 14.7731  16
  -3   3  -1 1065.28 39.4149  15
  -3   3  -1 1094.66 37.7660  20
  -3   3  -1 1106.66 36.3532  16
  -3   3   0 342.988 20.7569  15
  -3   3   0 371.265 22.3124  18
  -3   3   0 344.266 20.1740  20
  -3   3   0 395.025 20.6666   1
  -3   3   1 72.6959 10.0325  18
  -3   3   1 49.4945 7.76988   1
  -3   3   1 79.1901 9.70556  20
  -3   3   1 53.9926 8.07778  15
  -3   3   2 104.732 11.2281  20
  -3   3   2 103.295 11.3801   1
  -3   3   2 84.9564 10.4843  18
  -3   3   2 113.730 11.1983  15
  -3   3   3 142.211 13.8492   1
  -3   3   3 138.859 13.1528  18
  -3   3   4 236.603 16.6990  20
  -3   3   4 202.906 17.5124   1
  -3   3   5 185.111 14.6620  20
  -3   3   5 146.718 15.4753   1
  -3   3   6 1147.29 38.8746  20
  -3   3   6 1143.65 45.2894  14
  -3   3   7 103.331 13.5853  14
  -3   3   7 113.958 11.5454  20
  -3   3   8 442.879 22.7030  20
  -3   3   8 457.085 28.8855  14
  -3   3   9 32.2289 9.09085  14
  -3   3   9 14.8906 7.20280   6
  -3   3  10 237.849 21.8679  14
  -3   3  11 34.1699 10.6704   6
  -3   3  12 172.166 22.3416   6
  -3   4  -9 63.2587 14.3595  16
  -3   4  -8 97.3472 16.6936  16
  -3   4  -7 183.180 21.4207  16
  -3   4  -6 257.270 23.7054  16
  -3   4  -5 24.6161 8.50618  15
  -3   4  -5 24.0992 8.10348  16
  -3   4  -4 18.4502 6.95488  16
  -3   4  -4 20.8083 8.05711  15
  -3   4  -3 24.2132 7.24355  16
  -3   4  -3 12.1565 5.82023  20
  -3   4  -3 13.9885 6.16093  15
  -3   4  -2 429.283 23.9573  20
  -3   4  -2 423.227 24.8331  16
  -3   4  -2 446.714 27.9174  15
  -3   4  -1-1.23575 2.69865  20
  -3   4  -1 1.51330 3.62008  15
  -3   4  -1 7.35756 4.76620  18
  -3   4  -1 7.30931 4.45146  16
  -3   4   0 592.151 28.5357  20
  -3   4   0 593.118 30.1420  18
  -3   4   0 628.407 31.4416  15
  -3   4   0 590.521 27.9033   1
  -3   4   1 110.860 12.3875  20
  -3   4   1 107.851 12.5214  15
  -3   4   1 113.909 12.5836   1
  -3   4   1 116.335 12.8383  18
  -3   4   2 881.408 35.5180  20
  -3   4   2 933.552 37.1838  15
  -3   4   2 947.117 37.6154  18
  -3   4   2 899.678 37.0006   1
  -3   4   3 216.366 18.1635   1
  -3   4   3 203.722 16.5213  18
  -3   4   4 862.753 34.6445  20
  -3   4   4 778.406 36.5606   1
  -3   4   5 64.8548 11.0493   1
  -3   4   5 59.7718 9.76808  20
  -3   4   6 283.109 22.9412   1
  -3   4   6 312.797 20.3652  20
  -3   4   7 14.1888 6.71124  14
  -3   4   7 14.7366 5.49950  20
  -3   4   7 13.5101 7.05513   1
  -3   4   8 57.0798 11.2662  14
  -3   4   8 70.1089 10.1268  20
  -3   4   9 76.3214 12.8200  14
  -3   4  10 49.2939 10.9149  14
  -3   4  11 106.578 15.6522  14
  -3   4  11 94.0359 16.7105   6
  -3   5  -8 210.585 26.2735  15
  -3   5  -8 186.007 23.6635  16
  -3   5  -7 51.7845 13.2102  16
  -3   5  -7 51.2764 13.7140  15
  -3   5  -6 120.727 18.6078  15
  -3   5  -6 100.098 15.7847  16
  -3   5  -5-2.34360 6.05539  15
  -3   5  -5-2.09502 4.57497  16
  -3   5  -4 61.4985 12.6229  16
  -3   5  -4 67.7323 13.5256  15
  -3   5  -3 1.75643 4.85155  16
  -3   5  -3-2.03860 3.44824  15
  -3   5  -2 116.664 13.6274  20
  -3   5  -2 125.264 14.8946  16
  -3   5  -2 122.530 16.1746  15
  -3   5  -1 14.1425 6.33556  20
  -3   5  -1 19.8099 6.65326  18
  -3   5  -1 22.0348 6.88593  16
  -3   5  -1 28.9392 8.28976  15
  -3   5   0 243.157 19.3464   1
  -3   5   0 205.283 18.5356  18
  -3   5   0 218.947 18.6129  20
  -3   5   1 531.986 30.6321  15
  -3   5   1 468.321 27.5492   1
  -3   5   1 585.681 30.6020  18
  -3   5   1 521.550 28.6665  20
  -3   5   2 594.274 30.6365  20
  -3   5   2 582.348 31.2451   1
  -3   5   2 567.738 31.0953  15
  -3   5   2 630.175 31.4136  18
  -3   5   3 583.487 30.4234  20
  -3   5   3 607.346 30.1400  18
  -3   5   3 571.753 31.6232   1
  -3   5   4 108.281 14.3108   1
  -3   5   4 79.1483 10.9444  18
  -3   5   4 121.705 13.9126  20
  -3   5   5 25.7642 6.85418  20
  -3   5   5 23.7056 8.02488   9
  -3   5   5 14.6328 6.44717   1
  -3   5   6-1.42746 3.94362  20
  -3   5   6-3.90083 3.29996   1
  -3   5   6-11.3913 3.89348   9
  -3   5   7 296.191 21.3540  20
  -3   5   7 332.977 26.9367   1
  -3   5   8 18.0240 8.06465  14
  -3   5   8 4.43474 5.30556   1
  -3   5   9 72.0856 13.9723  14
  -3   5  10 31.6798 9.68441  14
  -3   5  11 191.809 22.0402  14
  -3   6  -6 53.4295 15.0511  15
  -3   6  -6 30.3407 10.4894  16
  -3   6  -5 95.3075 17.3870  15
  -3   6  -5 80.0585 15.6443  16
  -3   6  -4 7.46980 7.29667  15
  -3   6  -4 17.4675 8.53073  16
  -3   6  -3 64.6393 12.0312  16
  -3   6  -3 58.8130 13.0256  15
  -3   6  -2 33.4416 10.4503  15
  -3   6  -2 28.1592 8.60962  16
  -3   6  -1 318.864 27.0720  15
  -3   6  -1 275.869 22.1846  20
  -3   6  -1 300.767 24.4026  18
  -3   6   0 31.4186 9.03420  18
  -3   6   0 39.0836 9.42233  20
  -3   6   0 38.3124 10.2449  15
  -3   6   1 276.823 22.1299  18
  -3   6   1 269.878 22.0200  20
  -3   6   1 296.042 24.5762  15
  -3   6   1 270.636 22.5001   1
  -3   6   2 24.9846 7.99755   1
  -3   6   2 31.6450 8.03995  18
  -3   6   2 27.8798 8.48509  20
  -3   6   2 35.4609 9.30315  15
  -3   6   3 47.9606 10.8317   1
  -3   6   3 52.4057 9.94252  18
  -3   6   3 49.2503 10.1643  20
  -3   6   4 1.41213 3.90075  18
  -3   6   4 5.79330 5.33417   1
  -3   6   5 334.770 25.8443   9
  -3   6   5 296.754 25.2578   1
  -3   6   6 132.095 16.4884   9
  -3   6   6 135.135 17.8747   1
  -3   6   7 153.961 19.7731   1
  -3   6   8 52.6008 12.3777   1
  -3   6   9 121.099 18.1324  14
  -3   6   9 108.430 18.1688   1
  -3   6  10 150.665 19.8040  14
  -3   6  11 32.3937 10.6085  14
  -3   7  -4 54.2075 13.1948  16
  -3   7  -4 36.4989 12.2782  15
  -3   7  -3 122.692 18.4362  16
  -3   7  -3 104.352 18.3614  15
  -3   7  -2 19.5256 8.48093  16
  -3   7  -2 28.1557 10.6100  15
  -3   7  -1 80.1848 15.2203  15
  -3   7  -1 53.1693 11.6790  18
  -3   7   0 44.0646 11.7852  15
  -3   7   0 44.3941 10.5137  18
  -3   7   1 22.3673 8.46269  15
  -3   7   1 10.9495 6.42935  18
  -3   7   1 16.0496 7.59108   1
  -3   7   2 6.53380 6.38076  15
  -3   7   2 1.72880 4.77527  18
  -3   7   2-2.05049 5.29804   1
  -3   7   3 4.20388 5.02841   1
  -3   7   4 141.081 18.2198   1
  -3   7   5 181.788 20.5272   9
  -3   7   5 191.898 22.5305   1
  -3   7   6 129.871 18.5482   1
  -3   7   6 142.943 19.2494   9
  -3   7   7 32.1520 10.5367   1
  -3   7   7 28.6826 9.64547   9
  -3   7   8 274.397 27.6190   1
  -3   8  -2 30.9294 11.1514  18
  -3   8  -1 2.24212 5.79346  18
  -3   8  -1 10.9746 9.66084  15
  -3   8   0 57.0397 12.4019  18
  -3   8   0 50.0560 13.3904  15
  -3   8   1 9.16915 7.08034   1
  -3   8   1 10.2246 7.49006  15
  -3   8   2 46.6319 12.2796   1
  -3   8   3 40.4529 11.3988   1
  -3   8   4 65.6920 14.0875   1
  -3   8   5 10.0560 6.94612   1
  -3   8   5 14.6453 8.59618   9
  -3   8   6 63.8633 13.8247   9
  -3   8   6 104.311 18.0422   1
  -3   8   7 59.6945 14.3950   9
  -2 -11  -5 103.788 15.4694   4
  -2 -10  -8 7.86696 6.92541   4
  -2 -10  -8 3.19573 5.62666  12
  -2 -10  -7 11.2384 7.08621   4
  -2 -10  -6 3.55421 5.20665   4
  -2 -10  -5 123.088 15.5447   4
  -2 -10  -4 117.674 14.8263   4
  -2 -10  -3 112.236 14.4807   4
  -2 -10  -2 44.1433 11.4453  21
  -2 -10  -2 40.9712 10.0208  22
  -2 -10  -1 32.7106 9.99464  21
  -2 -10  -1 32.6823 9.21068   2
  -2 -10  -1 39.1351 10.1447  22
  -2 -10   0 37.5752 10.9389  21
  -2 -10   0 52.4822 12.3227  22
  -2 -10   0 31.6193 9.47051   2
  -2 -10   1 80.3446 14.4275  22
  -2  -9 -10 141.826 17.0160  12
  -2  -9 -10 129.366 17.1630   4
  -2  -9  -9 51.6291 10.4361  12
  -2  -9  -9 43.4900 10.6291   4
  -2  -9  -8 36.9459 9.15945  12
  -2  -9  -7 29.7173 7.70732  12
  -2  -9  -7 34.0738 9.27424   4
  -2  -9  -6 63.4839 9.93636  12
  -2  -9  -6 90.6269 12.9780   4
  -2  -9  -5 4.60532 5.80623   4
  -2  -9  -5 1.18400 3.83502  12
  -2  -9  -4 145.322 15.0927   4
  -2  -9  -3 128.786 14.9269   2
  -2  -9  -3 140.755 14.7155  22
  -2  -9  -3 123.383 13.9718   4
  -2  -9  -2 269.887 21.3015  22
  -2  -9  -2 273.820 21.9775   2
  -2  -9  -2 311.826 20.8044   4
  -2  -9  -1 74.2702 12.1471   2
  -2  -9  -1 55.9049 10.8096  22
  -2  -9   0 197.115 19.3782   2
  -2  -9   0 189.800 19.1943  21
  -2  -9   0 173.516 18.5931  22
  -2  -9   1 26.8242 8.67737  21
  -2  -9   1 48.3666 11.3467  22
  -2  -9   2 179.652 19.1077   2
  -2  -9   2 145.332 18.5026  22
  -2  -9   3 68.8338 14.0905  22
  -2  -9   3 75.9593 13.4123   2
  -2  -9   4 54.1022 11.9587   2
  -2  -8 -12 132.554 17.5334   4
  -2  -8 -11 1.84865 5.70919  12
  -2  -8 -11 5.72604 6.72079   4
  -2  -8 -10 34.4286 9.20658   4
  -2  -8 -10 30.8731 9.03189  12
  -2  -8  -9 31.7007 8.49100  12
  -2  -8  -9 34.3097 9.03376   4
  -2  -8  -8 511.697 29.8092   4
  -2  -8  -8 427.304 25.9583  12
  -2  -8  -7 70.9480 10.6678  12
  -2  -8  -6 215.025 16.9880  12
  -2  -8  -6 253.655 19.9452   4
  -2  -8  -5 85.0776 10.5709  12
  -2  -8  -5 109.020 12.9255   4
  -2  -8  -4 353.591 19.9733  22
  -2  -8  -4 350.121 19.7521  12
  -2  -8  -4 327.271 21.3792   2
  -2  -8  -3 388.025 19.8661  12
  -2  -8  -3 379.182 23.7120   2
  -2  -8  -3 392.207 22.5882  22
  -2  -8  -2 451.164 25.4842  22
  -2  -8  -2 510.095 27.7368   2
  -2  -8  -1 76.5894 11.5178  22
  -2  -8  -1 79.1756 11.2375   2
  -2  -8   0 1.52330 3.32658   2
  -2  -8   0 4.74102 5.34631  22
  -2  -8   1 42.9306 9.93447  22
  -2  -8   1 31.5404 8.30939   2
  -2  -8   2 116.173 15.7115  22
  -2  -8   2 143.023 15.4002  21
  -2  -8   2 145.190 16.3582   2
  -2  -8   3 475.268 29.3826   2
  -2  -8   4 103.673 16.1816  22
  -2  -8   4 72.8794 12.3941   2
  -2  -8   5 65.1289 14.2351  22
  -2  -8   5 49.7924 10.5925   2
  -2  -8   6-1.80351 4.31426   2
  -2  -7 -12 18.2935 8.19084   4
  -2  -7 -11 1.75955 5.15505  12
  -2  -7 -11 1.73074 5.34490   4
  -2  -7 -10 60.6844 11.0142   4
  -2  -7  -9 88.1477 12.4382  12
  -2  -7  -9 88.0596 12.4988   4
  -2  -7  -9 80.3815 10.0856  19
  -2  -7  -8 241.906 15.7982  19
  -2  -7  -8 232.842 18.5312  12
  -2  -7  -8 211.774 18.4994   4
  -2  -7  -7 880.615 35.5312  12
  -2  -7  -7 865.491 29.7253  19
  -2  -7  -7 899.798 37.3034   4
  -2  -7  -6 649.112 28.7059  12
  -2  -7  -5 927.627 33.7339  12
  -2  -7  -5 952.803 34.4573   2
  -2  -7  -4 71.9940 8.79209  12
  -2  -7  -4 77.2853 9.64233   2
  -2  -7  -4 76.7839 8.75480  22
  -2  -7  -3 374.692 18.9345  12
  -2  -7  -3 365.024 21.1500   2
  -2  -7  -2 8.39871 4.22571   2
  -2  -7  -2 5.65310 3.34737  12
  -2  -7  -1 125.965 10.2066  12
  -2  -7  -1 163.779 15.0937   2
  -2  -7   0 1.31168 2.21875   2
  -2  -7   1 538.850 28.3632   2
  -2  -7   1 506.819 28.7013  22
  -2  -7   2 88.9355 12.8905  22
  -2  -7   3 246.845 21.8055  22
  -2  -7   3 274.020 20.8463   2
  -2  -7   4 306.065 24.9267  22
  -2  -7   4 267.467 21.0328   2
  -2  -7   5 405.998 26.6984   2
  -2  -7   5 440.095 30.8442  22
  -2  -7   6 65.9206 12.8359  22
  -2  -7   6 66.9718 11.3189   2
  -2  -7   7 17.9804 9.31216  22
  -2  -7   7-1.66612 3.98558   2
  -2  -6 -14 27.7575 9.39842  19
  -2  -6 -13 174.594 18.5245  19
  -2  -6 -12 6.17318 5.22161  19
  -2  -6 -11 225.082 20.2717  12
  -2  -6 -11 185.844 17.9440   4
  -2  -6 -11 205.945 17.3567  17
  -2  -6 -11 187.679 17.1526  19
  -2  -6 -10 6.20006 4.36789  19
  -2  -6 -10 17.6531 6.58459   4
  -2  -6 -10 6.13747 5.60790  12
  -2  -6  -9 553.479 28.9410   4
  -2  -6  -9 546.515 25.8351  19
  -2  -6  -9 537.832 28.7580  12
  -2  -6  -8 214.327 15.0137  19
  -2  -6  -8 183.541 16.0274   4
  -2  -6  -7 1083.19 38.7263  12
  -2  -6  -7 1106.66 34.7667  19
  -2  -6  -6 42.4303 6.29838  19
  -2  -6  -6 25.2963 5.75013  12
  -2  -6  -5 368.058 18.6067   2
  -2  -6  -5 363.957 19.4085  12
  -2  -6  -5 347.493 16.6870  19
  -2  -6  -4 116.809 10.4487  12
  -2  -6  -4 101.705 10.1122   2
  -2  -6  -3 170.178 12.3628  12
  -2  -6  -3 197.896 14.1167   2
  -2  -6  -2 250.516 14.6192  12
  -2  -6  -2 245.596 16.2687   2
  -2  -6  -1 1150.46 34.9657  13
  -2  -6  -1 1117.75 32.7484  12
  -2  -6  -1 1136.59 38.0931   2
  -2  -6   0 1186.80 35.3902  13
  -2  -6   0 1168.91 33.2744  12
  -2  -6   0 1269.35 40.9921   2
  -2  -6   1 165.256 11.6964  13
  -2  -6   1 171.713 14.5759   2
  -2  -6   1 157.019 10.9444  12
  -2  -6   2 166.161 11.4630  13
  -2  -6   3 15.5759 5.23104   2
  -2  -6   4 683.021 35.1945  22
  -2  -6   4 747.005 33.4110   2
  -2  -6   5 128.866 16.1271  22
  -2  -6   5 170.985 16.2325   2
  -2  -6   6 154.805 18.1926  22
  -2  -6   6 151.034 15.5736   2
  -2  -6   7-2.00435 6.18986  22
  -2  -6   7-1.50774 2.94491   2
  -2  -6   8 101.353 16.0369  22
  -2  -5 -14 17.3033 8.60746  19
  -2  -5 -13 263.824 22.7334  19
  -2  -5 -13 234.981 20.6295  17
  -2  -5 -12 73.6027 12.0498  19
  -2  -5 -12 77.2372 11.8325  17
  -2  -5 -11 184.317 17.7867  12
  -2  -5 -11 209.004 17.5689  17
  -2  -5 -11 234.855 19.2097  19
  -2  -5 -10 443.642 26.1923  12
  -2  -5 -10 452.163 25.2813  19
  -2  -5 -10 494.809 26.3975   4
  -2  -5  -9 446.152 25.2883  12
  -2  -5  -9 454.803 23.6352  19
  -2  -5  -9 414.569 23.6534   4
  -2  -5  -8 81.8020 10.2638   4
  -2  -5  -8 93.6767 10.2505  19
  -2  -5  -8 87.2483 10.7690  12
  -2  -5  -7 18.2811 5.04364  12
  -2  -5  -7 19.7492 4.80922  19
  -2  -5  -6 446.192 20.0737  19
  -2  -5  -5 59.4756 7.65936  12
  -2  -5  -5 61.3211 7.11386  19
  -2  -5  -5 68.1028 7.06379   2
  -2  -5  -4 1378.97 36.9746   2
  -2  -5  -4 1283.74 37.4432  12
  -2  -5  -3 100.945 9.15007  12
  -2  -5  -3 107.790 9.42721   2
  -2  -5  -2 2737.54 59.1947  12
  -2  -5  -2 2722.81 60.2934  13
  -2  -5  -2 2750.68 61.3463   2
  -2  -5  -1 1556.88 40.6177  13
  -2  -5  -1 1516.27 39.0157  12
  -2  -5  -1 1515.43 42.3756   2
  -2  -5   0 3373.84 68.8086  13
  -2  -5   0 3310.46 72.9665   2
  -2  -5   1 58.2566 7.89357   2
  -2  -5   1 62.0818 7.03100  13
  -2  -5   2 508.820 20.2929  13
  -2  -5   3 26.1251 4.76142  13
  -2  -5   3 25.0057 6.19088   2
  -2  -5   4 7.14310 4.02872   2
  -2  -5   5 25.0515 6.59683   2
  -2  -5   6 408.450 27.0246  22
  -2  -5   6 419.531 24.2177   2
  -2  -5   7 317.411 24.8354  22
  -2  -5   7 346.015 26.9968   6
  -2  -5   7 352.311 22.8421   2
  -2  -5   8 174.352 19.1980  22
  -2  -5   8 185.739 16.7204   2
  -2  -4 -14 87.3328 14.9312  19
  -2  -4 -14 73.6273 13.1348  17
  -2  -4 -13 3.62798 5.31460  19
  -2  -4 -13 1.70971 4.72264  17
  -2  -4 -12 470.401 28.0857  17
  -2  -4 -12 516.012 30.2344  19
  -2  -4 -11 102.424 12.8878  12
  -2  -4 -11 100.860 13.0397  19
  -2  -4 -11 110.105 13.1612  17
  -2  -4 -10 715.282 32.7692  12
  -2  -4 -10 654.019 30.5659  17
  -2  -4 -10 729.615 32.7872  19
  -2  -4  -9 8.58495 4.48251  12
  -2  -4  -9 4.33326 3.66622   4
  -2  -4  -9 10.4744 4.68725  19
  -2  -4  -8 636.820 27.0167   4
  -2  -4  -8 593.504 27.3591  12
  -2  -4  -8 628.800 26.8990  19
  -2  -4  -7 142.833 11.8601  19
  -2  -4  -7 167.559 13.1004  12
  -2  -4  -6 2279.61 55.1349  12
  -2  -4  -6 2299.51 54.1013  19
  -2  -4  -5 22.7570 4.71637  19
  -2  -4  -5 32.7108 5.60321  12
  -2  -4  -4 514.080 18.3806   2
  -2  -4  -4 530.614 21.1470  13
  -2  -4  -3 1029.34 28.9590   2
  -2  -4  -3 997.199 30.3086  13
  -2  -4  -2 1699.41 41.7283  12
  -2  -4  -2 1768.97 42.2840   2
  -2  -4  -1 940.735 28.7357  13
  -2  -4  -1 953.044 29.6120   2
  -2  -4   0 904.594 28.1066  13
  -2  -4   0 907.943 29.6873   2
  -2  -4   1 1427.47 40.1818   2
  -2  -4   1 1375.73 36.6611  13
  -2  -4   2 14.8235 4.15449   2
  -2  -4   2 20.3308 5.33483   6
  -2  -4   2 21.6164 4.36825  13
  -2  -4   3 605.237 25.7570   2
  -2  -4   3 592.888 21.9601  13
  -2  -4   3 530.909 26.4870   6
  -2  -4   4 1.34180 2.62124   6
  -2  -4   4 4.24353 2.84824  13
  -2  -4   4 7.41406 3.72972   2
  -2  -4   5 789.020 36.3858   6
  -2  -4   5 827.111 32.5072   2
  -2  -4   5 852.276 27.4524  13
  -2  -4   6 232.454 17.1365   2
  -2  -4   7 927.458 36.2898   2
  -2  -4   7 876.917 39.1128  22
  -2  -4   7 869.145 41.7469   6
  -2  -4   8 42.9448 10.0798  22
  -2  -4   8 11.9021 6.43505   6
  -2  -4   8 34.3459 7.66628   2
  -2  -4   9 180.851 20.6523   6
  -2  -4  10 13.9095 7.51119   6
  -2  -3 -14 73.5471 13.7995  17
  -2  -3 -13 3.58896 5.54182  17
  -2  -3 -13 1.86711 5.15739  19
  -2  -3 -12 333.795 24.3348  17
  -2  -3 -11 158.075 15.7931  17
  -2  -3 -11 122.701 13.7559  12
  -2  -3 -10 54.5466 9.05463  12
  -2  -3 -10 59.5771 9.35819  17
  -2  -3  -9 406.726 22.3346  12
  -2  -3  -8 801.066 31.5726  19
  -2  -3  -8 954.406 33.6458  12
  -2  -3  -7 1304.53 39.5188  19
  -2  -3  -7 1389.28 40.2511  12
  -2  -3  -6 80.2441 8.47503  12
  -2  -3  -6 93.1727 9.08504  19
  -2  -3  -5 2183.75 49.7555  12
  -2  -3  -5 2053.04 48.7148  19
  -2  -3  -5 2084.26 48.5121  13
  -2  -3  -4 90.7582 7.91330  13
  -2  -3  -4 97.1821 8.36325  12
  -2  -3  -4 104.300 6.82911   2
  -2  -3  -3 2545.55 50.0804   2
  -2  -3  -3 2524.75 54.1930  12
  -2  -3  -3 2554.41 54.3971  13
  -2  -3  -2 416.608 17.2148  13
  -2  -3  -2 401.236 16.8117  12
  -2  -3  -2 409.556 15.9366   2
  -2  -3  -1 304.980 14.3459   2
  -2  -3  -1 305.577 14.5340  13
  -2  -3   0 54.7049 6.37665   6
  -2  -3   0 42.1815 5.45842  13
  -2  -3   0 51.4013 6.08475   2
  -2  -3   1 4048.91 77.1559  13
  -2  -3   1 3980.14 78.4469   2
  -2  -3   1 4154.31 80.3747   6
  -2  -3   2 1044.90 33.7657   6
  -2  -3   2 1036.06 30.2116  13
  -2  -3   2 1015.37 31.8881   2
  -2  -3   3 4070.56 78.6919  13
  -2  -3   3 4088.46 86.5941   6
  -2  -3   4 613.684 23.3331  13
  -2  -3   4 619.769 25.8326   2
  -2  -3   4 656.540 29.0794   6
  -2  -3   5 231.171 15.6169   2
  -2  -3   5 231.946 17.9075   6
  -2  -3   6 169.968 13.8684   2
  -2  -3   6 176.615 16.5791   6
  -2  -3   7 290.988 18.7886   2
  -2  -3   8 107.401 14.7379   6
  -2  -3   8 107.327 11.7877   2
  -2  -3   9 1.99268 5.14869   6
  -2  -3  10 112.567 17.3774   6
  -2  -3  11 4.66098 6.82799   6
  -2  -2 -14 16.3032 8.67796  17
  -2  -2 -13 286.105 24.6753  17
  -2  -2 -13 306.541 25.1729  19
  -2  -2 -12 8.70005 6.12742  19
  -2  -2 -12 5.17424 5.05388  17
  -2  -2 -11 525.572 29.8977  17
  -2  -2 -11 514.620 29.3959  19
  -2  -2 -10-1.39371 3.04341  19
  -2  -2 -10-1.39459 3.04534  17
  -2  -2 -10 2.36526 3.46477  12
  -2  -2  -9 657.477 29.9707  17
  -2  -2  -9 612.671 28.9081  19
  -2  -2  -9 622.248 27.2192  12
  -2  -2  -8 17.1249 4.74605  12
  -2  -2  -8 24.8079 5.87165  19
  -2  -2  -7 890.954 30.0586  12
  -2  -2  -7 878.363 31.3833  19
  -2  -2  -6 235.757 14.5230  19
  -2  -2  -6 245.476 14.0325  12
  -2  -2  -5 5972.04 105.920  12
  -2  -2  -5 6084.03 103.785  13
  -2  -2  -5 5925.93 107.385  19
  -2  -2  -4 1133.39 31.4978  12
  -2  -2  -4 1185.95 31.0728  13
  -2  -2  -4 1217.10 30.3843  18
  -2  -2  -4 1221.79 25.1228   2
  -2  -2  -3 353.088 12.5232   2
  -2  -2  -3 381.380 15.6286  13
  -2  -2  -3 368.169 14.5004  18
  -2  -2  -3 372.746 15.6848  12
  -2  -2  -2 201.920 9.92844   2
  -2  -2  -2 211.570 10.5820  18
  -2  -2  -2 226.176 11.8527  13
  -2  -2  -1 41.5597 4.27608   6
  -2  -2  -1 50.1852 5.69190  13
  -2  -2   0 515.590 19.0876  14
  -2  -2   0 529.885 17.9769   6
  -2  -2   0 504.554 18.9510  13
  -2  -2   1 1719.29 41.0532   6
  -2  -2   1 1733.51 42.2205  14
  -2  -2   2 5063.88 94.4916  14
  -2  -2   2 5076.19 94.7387   6
  -2  -2   3 174.707 12.8965   6
  -2  -2   4 2384.04 60.6505   6
  -2  -2   4 2467.01 58.2974  14
  -2  -2   5 64.9462 8.99207   6
  -2  -2   6 1032.39 40.0917   6
  -2  -2   7 1.04352 2.49626   2
  -2  -2   8 417.849 27.4032   6
  -2  -2   8 426.452 22.5977   2
  -2  -2   9 9.16012 4.74660   2
  -2  -2   9 14.8936 7.04312   6
  -2  -2  10 527.599 33.9993   6
  -2  -2  11 2.20784 5.70464   6
  -2  -2  12 42.6039 12.0257   6
  -2  -1 -13 168.266 19.5573  17
  -2  -1 -13 149.392 18.4487  19
  -2  -1 -12-1.81280 5.00724  17
  -2  -1 -12 1.78571 4.61385  19
  -2  -1 -11 91.7352 12.9302  19
  -2  -1 -10 195.194 17.4558  19
  -2  -1  -9 22.7920 6.43649  19
  -2  -1  -9 31.4688 7.02371  17
  -2  -1  -8 206.831 14.0144  12
  -2  -1  -8 167.326 14.1027  19
  -2  -1  -8 178.808 14.7912  17
  -2  -1  -7 198.834 14.2580  19
  -2  -1  -7 235.732 13.9490  12
  -2  -1  -6 1655.64 44.7011  19
  -2  -1  -6 1839.83 43.0326  12
  -2  -1  -5 368.406 14.6276  13
  -2  -1  -5 390.697 16.3354  12
  -2  -1  -5 413.253 18.2308  19
  -2  -1  -4 6744.73 110.909  13
  -2  -1  -4 6783.18 112.940  12
  -2  -1  -4 6536.41 114.796  19
  -2  -1  -3 306.484 14.0834  18
  -2  -1  -3 294.535 13.0921  13
  -2  -1  -3 301.155 13.3139  12
  -2  -1  -3 317.326 11.0466  14
  -2  -1  -2 5319.48 92.1484  13
  -2  -1  -2 5391.76 93.1885  18
  -2  -1  -2 5332.50 88.3748  14
  -2  -1  -2 5315.02 80.6510   6
  -2  -1  -1 58.7183 5.46024  14
  -2  -1  -1 53.5970 5.67652  13
  -2  -1  -1 55.7067 5.78243  18
  -2  -1  -1 58.8249 4.36027   6
  -2  -1   0 2581.60 49.3807   6
  -2  -1   0 2615.85 52.8054  14
  -2  -1   1 294.729 14.3117  14
  -2  -1   1 283.693 13.2785   6
  -2  -1   2 1458.84 37.6292   6
  -2  -1   2 1428.69 37.5757  14
  -2  -1   3 19.9123 4.44682   6
  -2  -1   4 2761.78 63.9180  14
  -2  -1   4 3004.30 67.4137   6
  -2  -1   5 959.513 35.3347   6
  -2  -1   5 923.486 32.2101  14
  -2  -1   6 126.930 13.0113   6
  -2  -1   6 122.977 11.4890  14
  -2  -1   7 228.625 16.3242  14
  -2  -1   8 587.396 32.2012   6
  -2  -1   8 675.212 29.2393  14
  -2  -1   9 829.973 40.4417   6
  -2  -1  10 56.6123 11.6239   6
  -2  -1  11 226.338 23.1332   6
  -2  -1  12 27.2991 9.69156   6
  -2   0 -13 18.1313 8.11582  19
  -2   0 -12 113.522 15.4924  19
  -2   0 -12 154.816 18.4758  17
  -2   0 -11 4.95445 5.34920  19
  -2   0 -11 1.73564 4.48470  17
  -2   0 -10 955.308 40.3069  19
  -2   0 -10 880.766 39.5292  17
  -2   0  -9 168.193 15.6020  19
  -2   0  -9 188.219 16.9310  17
  -2   0  -8 1043.90 38.5962  17
  -2   0  -8 961.464 35.9848  19
  -2   0  -7 3.98344 2.91789  19
  -2   0  -7 2.15654 2.57967  17
  -2   0  -6 781.938 24.5279  12
  -2   0  -6 827.818 28.6981  19
  -2   0  -5 5.30285 2.31729  12
  -2   0  -5 6.00296 2.93222  19
  -2   0  -4 2185.97 43.7702  13
  -2   0  -4 2194.44 45.3142  12
  -2   0  -4 2320.16 49.7587  19
  -2   0  -3 704.069 20.5189  12
  -2   0  -3 686.131 18.3990  14
  -2   0  -3 666.331 20.0012  13
  -2   0  -2 830.932 23.4281  13
  -2   0  -2 813.441 17.3688   1
  -2   0  -2 797.969 21.7197  14
  -2   0  -2 834.159 25.7075  18
  -2   0  -1 3807.66 67.6304  14
  -2   0  -1 3659.13 70.5763  18
  -2   0  -1 3658.72 62.2086   1
  -2   0   0 987.818 21.7527  15
  -2   0   0 1004.77 28.4314  18
  -2   0   0 955.014 26.8873  14
  -2   0   1 887.889 26.7509  14
  -2   0   2 685.507 23.8494  14
  -2   0   2 676.630 16.9074   9
  -2   0   3 4125.28 81.4930  14
  -2   0   3 4218.92 82.6811   6
  -2   0   4 56.5717 5.70786   7
  -2   0   4 61.2202 7.85092   6
  -2   0   4 66.0188 7.90057  14
  -2   0   5 978.938 35.3215   6
  -2   0   5 1003.71 33.5143  14
  -2   0   6 1.00324 2.77112  14
  -2   0   6 2.45774 2.09242  20
  -2   0   6-2.48786 2.42959   6
  -2   0   7 1799.25 50.4501  14
  -2   0   8 199.189 15.4238  14
  -2   0   8 172.444 16.9786   6
  -2   0   9 761.197 31.7361  14
  -2   0   9 685.271 35.9779   6
  -2   0  10 1.90073 4.54682   6
  -2   0  11 411.734 30.4639   6
  -2   0  12 13.3999 8.44906   6
  -2   0  13 21.3720 8.98667   6
  -2   1 -12 131.270 17.0647  19
  -2   1 -12 105.628 16.0798  17
  -2   1 -11 75.5292 12.8821  17
  -2   1 -11 59.3013 11.7380  19
  -2   1 -10 220.267 18.8611  19
  -2   1 -10 232.531 20.5097  17
  -2   1  -9 676.584 33.0973  17
  -2   1  -9 615.812 30.6147  19
  -2   1  -8 238.472 17.4720  19
  -2   1  -8 261.366 19.2344  17
  -2   1  -7 537.551 26.1519  17
  -2   1  -7 570.675 25.6099  19
  -2   1  -6 3.55101 3.12630  19
  -2   1  -6 4.02467 3.25934  17
  -2   1  -5 56.4221 6.90450  19
  -2   1  -5 48.0971 6.80251  17
  -2   1  -4 1205.79 31.3120  20
  -2   1  -4 1269.35 33.3159  19
  -2   1  -4 1162.04 33.6614  17
  -2   1  -3 3144.88 62.4707  20
  -2   1  -3 3221.02 57.8325  12
  -2   1  -3 3273.36 62.5098  19
  -2   1  -3 3271.93 58.9358  13
  -2   1  -2 1198.35 27.1122   1
  -2   1  -1 6748.14 109.967   1
  -2   1  -1 6906.52 118.759  18
  -2   1   0 783.549 22.8565   1
  -2   1   0 813.127 26.4466  18
  -2   1   0 849.447 23.5958  15
  -2   1   0 807.829 20.9297  16
  -2   1   1 5829.81 102.675  18
  -2   1   1 5748.76 89.8618  16
  -2   1   1 5602.97 99.8329   1
  -2   1   1 5793.17 96.0989  15
  -2   1   2 310.202 16.2023  14
  -2   1   2 338.161 9.13761  16
  -2   1   2 334.597 16.0635   1
  -2   1   3 1784.32 41.7187  20
  -2   1   3 1884.66 40.7089   9
  -2   1   3 1849.49 46.6240  14
  -2   1   4 24.9132 4.27136  20
  -2   1   5 434.903 17.0572  20
  -2   1   5 448.968 21.7018  14
  -2   1   6 666.633 17.9198  23
  -2   1   6 698.367 21.8494  20
  -2   1   6 645.549 29.7803   6
  -2   1   6 610.838 26.9984  14
  -2   1   6 668.760 25.6984   7
  -2   1   7 130.782 8.89871  20
  -2   1   7 107.677 11.3460  14
  -2   1   8 122.013 12.4836  14
  -2   1   8 152.318 15.8867   6
  -2   1   9 179.674 15.4643  14
  -2   1   9 194.924 19.0167   6
  -2   1  10 614.749 35.4931   6
  -2   1  11 98.5437 15.0680   6
  -2   1  12 437.263 32.5817   6
  -2   1  13-2.35734 3.98752   6
  -2   2 -12 13.3157 9.01124  16
  -2   2 -11 190.778 20.4153  17
  -2   2 -10 26.6033 8.12865  17
  -2   2 -10 15.5501 6.44890  19
  -2   2  -9 346.832 24.3247  17
  -2   2  -9 319.060 21.7170  19
  -2   2  -8 126.255 12.9540  19
  -2   2  -8 118.868 13.5106  17
  -2   2  -7 781.063 31.1422  19
  -2   2  -7 786.847 33.5331  17
  -2   2  -6 28.5132 5.96987  19
  -2   2  -6 24.0971 6.15606  17
  -2   2  -5 287.530 17.1358  17
  -2   2  -5 284.318 15.5040  19
  -2   2  -4 251.795 13.5451  20
  -2   2  -4 263.966 13.7121  19
  -2   2  -4 227.804 13.9884  17
  -2   2  -3 2549.36 54.6447  20
  -2   2  -3 2564.30 51.9271  19
  -2   2  -3 2506.99 54.2463  17
  -2   2  -3 2489.04 60.2280  16
  -2   2  -2 1571.02 39.7718  20
  -2   2  -2 1581.75 35.5202  19
  -2   2  -2 1611.09 36.8775  17
  -2   2  -2 1673.18 43.0696  16
  -2   2  -1 199.420 11.3583   1
  -2   2  -1 183.623 11.6936  20
  -2   2  -1 215.324 13.5661  15
  -2   2  -1 192.274 11.8584  16
  -2   2   0 1061.84 31.0048  20
  -2   2   0 1099.46 28.9821  16
  -2   2   0 1050.90 30.2960   1
  -2   2   0 1115.11 32.1382  15
  -2   2   1 521.375 19.9811  15
  -2   2   1 456.285 19.1900  20
  -2   2   1 496.438 20.0162   1
  -2   2   1 447.294 20.2721  18
  -2   2   1 499.165 16.6865  16
  -2   2   2 920.219 30.2185   1
  -2   2   2 989.244 30.3025  18
  -2   2   2 962.035 23.7411  16
  -2   2   2 1024.11 29.0320  15
  -2   2   3 39.0537 5.59901  20
  -2   2   3 34.5088 5.83886   1
  -2   2   4 2966.64 70.3249   1
  -2   2   4 3052.03 63.1047  20
  -2   2   4 3188.66 65.2458   9
  -2   2   5 88.8619 8.21587  20
  -2   2   5 105.378 9.70439   9
  -2   2   5 93.6581 10.6811   1
  -2   2   5 103.660 10.7055  14
  -2   2   6 1384.91 43.9781  14
  -2   2   6 1449.78 37.2163  20
  -2   2   7 44.8153 7.99673  14
  -2   2   7 34.0022 5.25342  20
  -2   2   8 713.837 32.0766   7
  -2   2   8 766.789 32.7636  14
  -2   2   9 3.50072 3.82389   6
  -2   2   9 18.2090 5.82173  14
  -2   2  10 378.687 28.1500   6
  -2   2  10 422.993 24.9845  14
  -2   2  11 18.6184 8.33387   6
  -2   2  12 218.076 23.3061   6
  -2   2  13 56.7796 13.6921   6
  -2   3 -11 12.5793 7.66288  17
  -2   3 -10 9.51202 7.88327  17
  -2   3  -9 1.71060 4.72494  17
  -2   3  -9-2.22253 4.85329  16
  -2   3  -8 204.499 18.1764  17
  -2   3  -8 145.380 17.8087  16
  -2   3  -7 132.014 14.0464  17
  -2   3  -7 131.262 16.0328  16
  -2   3  -6 1126.49 39.4572  17
  -2   3  -6 996.983 42.9411  16
  -2   3  -5 679.824 32.9810  16
  -2   3  -5 720.829 28.9616  17
  -2   3  -4 1690.41 52.5563  16
  -2   3  -4 1702.57 45.2317  17
  -2   3  -3 98.0134 9.50514  20
  -2   3  -3 119.568 9.75155  17
  -2   3  -3 105.402 11.5656  16
  -2   3  -2 678.628 25.3357  20
  -2   3  -2 653.479 21.7958  17
  -2   3  -2 636.069 26.9375  16
  -2   3  -2 653.669 28.9498  15
  -2   3  -1 18.0548 4.61058  20
  -2   3  -1 15.7641 4.45095  16
  -2   3  -1 18.9648 5.04670  15
  -2   3   0 935.939 30.7418  20
  -2   3   0 920.661 29.6485  16
  -2   3   0 901.561 30.2048   1
  -2   3   0 911.490 32.3967  15
  -2   3   1 58.6631 7.41202   1
  -2   3   1 70.5672 8.39775  15
  -2   3   1 63.0261 7.65195  20
  -2   3   1 71.9334 8.16931  18
  -2   3   1 61.7494 6.78715  16
  -2   3   2 596.620 24.3593  15
  -2   3   2 568.091 23.4006  20
  -2   3   2 640.523 21.3846  16
  -2   3   2 573.924 24.8445   1
  -2   3   2 602.518 23.9827  18
  -2   3   3 171.033 12.1363  18
  -2   3   3 162.153 13.2418   1
  -2   3   4 2812.61 69.5995   1
  -2   3   4 2884.98 63.5520  20
  -2   3   4 2952.48 66.4435   9
  -2   3   5 1740.13 45.2606  20
  -2   3   5 1808.77 49.4172   9
  -2   3   5 1675.79 51.8396   1
  -2   3   6 1153.25 39.0835   9
  -2   3   6 1087.78 33.9906  20
  -2   3   6 1086.30 41.8358   1
  -2   3   7 597.924 28.9058  14
  -2   3   7 572.606 23.2276  20
  -2   3   8 8.06193 4.54888  14
  -2   3   8 17.2781 4.85391  20
  -2   3   9 15.4776 5.67589  14
  -2   3   9 50.2021 9.74800   7
  -2   3  10 5.90792 6.08323   6
  -2   3  10 14.5429 6.50980  14
  -2   3  11 139.755 18.0174   6
  -2   3  12 2.26882 5.86219   6
  -2   3  13 338.104 30.4886   6
  -2   4 -10 101.975 15.7490  17
  -2   4  -9 7.32307 7.15269  16
  -2   4  -9 11.0615 7.20277  17
  -2   4  -8 80.9162 12.5376  17
  -2   4  -8 69.4815 13.8849  16
  -2   4  -7 73.2434 11.3210  17
  -2   4  -7 92.1167 15.0026  16
  -2   4  -6 787.098 40.2825  16
  -2   4  -6 837.034 34.7893  17
  -2   4  -5 186.732 18.5569  16
  -2   4  -4 222.844 18.9899  16
  -2   4  -3 26.1765 7.21494  15
  -2   4  -3 12.6197 4.64945  20
  -2   4  -3 13.6388 5.33226  16
  -2   4  -2 178.320 16.1978  15
  -2   4  -2 197.240 15.8934  16
  -2   4  -2 166.376 13.3469  20
  -2   4  -1 637.547 26.8943  20
  -2   4  -1 700.237 31.6021  15
  -2   4  -1 631.982 28.0126  16
  -2   4   0 176.430 15.2483  15
  -2   4   0 209.721 14.8467  16
  -2   4   0 193.170 14.3166  20
  -2   4   1 490.226 24.8730  15
  -2   4   1 453.478 22.3328  18
  -2   4   1 488.204 22.9565  20
  -2   4   1 484.914 22.0147  16
  -2   4   1 436.522 22.7423   1
  -2   4   2 199.391 14.4874  20
  -2   4   2 193.945 13.9002  18
  -2   4   2 212.000 13.7921  16
  -2   4   2 181.563 14.7583   1
  -2   4   2 211.754 15.9247  15
  -2   4   3 1169.62 41.1010   1
  -2   4   3 1277.16 38.2135  18
  -2   4   4 311.057 20.3719   1
  -2   4   4 273.015 17.0977  20
  -2   4   5 1635.09 53.4191   1
  -2   4   5 1748.43 48.2287  20
  -2   4   5 1753.78 51.8649   9
  -2   4   6 4.51506 3.88998   1
  -2   4   6 10.9522 4.76455  20
  -2   4   6 7.72286 4.53331   9
  -2   4   7 243.333 20.7401   1
  -2   4   7 234.211 15.8863  20
  -2   4   8 26.6296 7.23364  14
  -2   4   9 426.132 26.6621  14
  -2   4  10 12.6470 6.60352   7
  -2   4  10 9.50558 5.99407  14
  -2   4  11 161.032 19.5216   6
  -2   4  12 37.6245 11.4946   6
  -2   4  13 188.062 22.6965   6
  -2   5  -9 29.2810 10.7262  16
  -2   5  -8 7.41613 6.82899  16
  -2   5  -7 52.5364 12.4421  16
  -2   5  -6 21.0152 7.95404  16
  -2   5  -5 219.492 21.5957  16
  -2   5  -5 235.206 23.0808  15
  -2   5  -4 35.3019 9.40004  15
  -2   5  -4 45.8072 10.1947  16
  -2   5  -3 398.334 27.8972  15
  -2   5  -3 383.264 25.5196  16
  -2   5  -2 1.47060 4.06211  16
  -2   5  -2 1.69332 2.86429  15
  -2   5  -1 744.304 32.0025  20
  -2   5  -1 805.729 37.6447  15
  -2   5  -1 841.760 35.5543  16
  -2   5   0 519.491 26.3341  20
  -2   5   0 549.104 27.4414  16
  -2   5   0 520.511 29.1723  15
  -2   5   1 1321.86 43.4223  16
  -2   5   1 1383.21 46.5189   1
  -2   5   1 1332.47 43.2436  18
  -2   5   1 1333.44 43.7867  20
  -2   5   1 1282.26 46.7693  15
  -2   5   2 161.034 15.6280  15
  -2   5   2 196.583 15.8371  20
  -2   5   2 190.894 14.8670  18
  -2   5   2 199.161 15.2291  16
  -2   5   2 196.606 16.6412   1
  -2   5   3 305.473 19.9638  20
  -2   5   3 351.469 19.5784  18
  -2   5   3 312.460 21.5157   1
  -2   5   4 23.4682 6.87996   1
  -2   5   4 34.6798 7.48738  20
  -2   5   4 24.5905 5.47737  18
  -2   5   5 7.78198 5.48079   1
  -2   5   5 10.7742 4.82096  20
  -2   5   5 2.86695 3.13128   9
  -2   5   6 119.794 14.5153   1
  -2   5   6 91.2969 12.2284   9
  -2   5   7 407.267 26.5480   9
  -2   5   7 389.270 27.0971   1
  -2   5   8 702.464 35.9959   9
  -2   5   9 108.445 15.5538   1
  -2   5  10 151.467 17.3880  14
  -2   5  11 164.712 19.9170   7
  -2   5  12 299.459 28.4765   6
  -2   6  -7 30.4869 10.8239  16
  -2   6  -7 33.1317 12.0665  15
  -2   6  -6 10.3274 7.56444  15
  -2   6  -6 2.36488 5.65751  16
  -2   6  -5 91.7110 15.8600  15
  -2   6  -5 85.5010 14.8858  16
  -2   6  -4 44.6248 10.5010  16
  -2   6  -4 45.1658 11.4771  15
  -2   6  -3 151.968 17.6822  16
  -2   6  -3 124.809 17.3944  15
  -2   6  -2 137.753 16.1123  16
  -2   6  -2 163.594 18.7046  15
  -2   6  -1 111.802 15.2239  15
  -2   6  -1 104.344 13.6886  16
  -2   6   0 317.261 22.5331  16
  -2   6   0 351.771 26.0773  15
  -2   6   1 221.614 20.0446  15
  -2   6   1 230.601 17.9263  18
  -2   6   1 235.189 18.9559  16
  -2   6   2 443.577 27.5917   1
  -2   6   2 491.871 29.5301  15
  -2   6   2 527.935 27.7976  16
  -2   6   2 484.877 25.6377  18
  -2   6   3 46.6502 8.18124  18
  -2   6   3 26.2520 7.86627   1
  -2   6   4 35.6653 8.47909   1
  -2   6   4 49.9870 8.09528  18
  -2   6   5 1.76383 4.21970   1
  -2   6   5 8.42207 5.45602   9
  -2   6   6 622.534 35.5514   1
  -2   6   6 679.546 35.8221   9
  -2   6   7 171.564 19.0078   1
  -2   6   7 153.784 17.6405   9
  -2   6   8 281.663 24.1325   9
  -2   6   9 81.9616 15.0325   1
  -2   6  10 379.949 28.1812  14
  -2   6  10 365.380 30.3735   1
  -2   7  -6-2.87614 6.28071  15
  -2   7  -5-2.47038 5.90940  16
  -2   7  -5 2.71446 5.92752  15
  -2   7  -4 99.7578 17.1839  16
  -2   7  -4 138.670 19.9729  15
  -2   7  -3 63.1732 12.9763  16
  -2   7  -3 75.4345 15.0606  15
  -2   7  -2 136.641 19.1710  15
  -2   7  -2 157.717 19.0904  16
  -2   7  -1 9.58449 5.92150  16
  -2   7  -1 11.0734 7.17464  15
  -2   7   0 48.7820 10.6161  16
  -2   7   0 67.1730 13.1502  15
  -2   7   1 119.020 16.4610  15
  -2   7   1 121.074 14.1666  18
  -2   7   1 138.865 16.2436  16
  -2   7   2 415.840 26.9223  16
  -2   7   2 419.312 29.1502   1
  -2   7   2 406.434 24.6137  18
  -2   7   2 416.951 29.4624  15
  -2   7   3 120.243 15.7975   1
  -2   7   4 260.232 23.2234   1
  -2   7   5 134.872 17.1315   1
  -2   7   6 82.0233 13.9823   9
  -2   7   6 52.1923 11.9233   1
  -2   7   7 89.6854 14.8525   1
  -2   7   7 86.6014 14.4342   9
  -2   7   8 72.7943 13.5894   9
  -2   7   9 132.704 19.2418   1
  -2   7   9 143.160 19.2677   9
  -2   7  10-2.52808 3.49167   1
  -2   8  -3 27.5772 11.1134  15
  -2   8  -3 37.1717 11.3602  16
  -2   8  -2 25.7832 9.72024  16
  -2   8  -2 34.2199 11.7873  15
  -2   8  -1 88.1341 16.5513  15
  -2   8  -1 102.228 16.4406  16
  -2   8   0 31.6888 9.90279  16
  -2   8   0 26.5348 9.72167  15
  -2   8   1 7.00165 6.03355  15
  -2   8   1 28.2533 8.81602  16
  -2   8   1 15.0796 7.58788   1
  -2   8   2 2.17168 5.99886   1
  -2   8   2 9.11455 7.03715  15
  -2   8   2 3.90451 4.26357  16
  -2   8   3 189.338 21.7730   1
  -2   8   4 208.476 22.4127   1
  -2   8   5 217.561 23.2308   1
  -2   8   6 2.34725 5.12595   1
  -2   8   6 6.85752 6.69710   9
  -2   8   7 79.2642 14.8001   9
  -2   8   7 85.1667 16.3325   1
  -2   8   8 21.6068 10.2241   9
  -2   8   9 44.8118 12.6198   1
  -2   8   9 24.7868 10.5615   9
  -2   9  -1 116.484 19.0664  16
  -2   9   0-2.72178 5.31629  15
  -2   9   0-4.85103 5.80231  16
  -2   9   1-2.47017 5.90890   1
  -2   9   1 4.68992 6.05883  16
  -2   9   1-2.64879 4.48037  15
  -2   9   2-2.48534 6.42162   1
  -2   9   3 67.7831 15.5354   1
  -2   9   4 63.5768 14.0775   1
  -2   9   5 69.0095 15.4235   9
  -2   9   5 82.6206 16.3754   1
  -2   9   6 26.2751 10.5855   1
  -2   9   6 23.2127 10.0811   9
  -1 -10  -8 52.3169 13.7614  21
  -1 -10  -8 57.8647 12.5016   4
  -1 -10  -7-3.78522 4.89013   4
  -1 -10  -7 2.35259 7.26529  21
  -1 -10  -6 60.4131 14.2092  21
  -1 -10  -6 87.2463 14.2711   4
  -1 -10  -5 66.9975 11.8284   4
  -1 -10  -5 57.2738 13.0756  21
  -1 -10  -4 78.3367 12.4794   4
  -1 -10  -3 15.4867 8.64498  21
  -1 -10  -2 127.949 18.5513  21
  -1 -10  -1 31.7707 10.1467  21
  -1 -10  -1 42.9473 10.8009  22
  -1 -10   0 89.2867 14.7365  22
  -1 -10   0 65.9530 13.3949  21
  -1 -10   1 30.6435 10.2579  22
  -1 -10   1 21.8999 9.72826  21
  -1  -9 -10 77.5192 13.7018   4
  -1  -9  -9 2.11371 6.52760  21
  -1  -9  -8 18.2137 8.15570   4
  -1  -9  -8 20.9351 8.67832  21
  -1  -9  -7 46.4036 10.3714   4
  -1  -9  -7 57.8683 12.7852  21
  -1  -9  -6 116.364 14.4150   4
  -1  -9  -6 160.866 18.8540  21
  -1  -9  -5 118.511 14.0992   4
  -1  -9  -5 120.235 16.8053  21
  -1  -9  -4 171.635 16.4157   4
  -1  -9  -4 196.823 20.6824  21
  -1  -9  -3 260.593 23.6644  21
  -1  -9  -3 247.005 19.0310   4
  -1  -9  -2 225.721 17.4793   4
  -1  -9  -2 249.258 22.6608  21
  -1  -9  -2 210.357 18.6326  22
  -1  -9  -1 254.519 23.0121  21
  -1  -9  -1 268.574 21.8209  22
  -1  -9   0 30.5815 9.47025  21
  -1  -9   0 30.2342 9.03502  22
  -1  -9   1 13.5011 7.29590  22
  -1  -9   1 5.23163 5.90066  21
  -1  -9   2 4.15847 6.42134  22
  -1  -9   3 37.8904 11.1116  22
  -1  -8 -12 60.3359 12.5540   4
  -1  -8 -11 35.3474 9.79136   4
  -1  -8 -10 22.2600 8.50272   4
  -1  -8  -9 118.870 15.0742   4
  -1  -8  -8 32.8177 8.78921   4
  -1  -8  -7 180.507 15.9702  12
  -1  -8  -6 55.0194 10.3228   4
  -1  -8  -6 54.3012 8.91762  12
  -1  -8  -5 563.243 25.4965  12
  -1  -8  -5 561.089 28.8239   4
  -1  -8  -4 253.574 16.0074  12
  -1  -8  -4 282.658 19.5791   4
  -1  -8  -3 474.357 24.3796  22
  -1  -8  -3 543.285 26.4655   4
  -1  -8  -2 47.0624 10.5565  21
  -1  -8  -2 74.2437 9.70306   4
  -1  -8  -2 83.0235 11.1657  22
  -1  -8  -1 262.852 21.4179  21
  -1  -8  -1 251.543 19.4989   2
  -1  -8  -1 263.900 19.7842  22
  -1  -8  -1 274.518 17.2987   4
  -1  -8   0 6.13973 5.19307  22
  -1  -8   0 4.62187 4.75826  21
  -1  -8   0 4.41627 4.76851   2
  -1  -8   1 31.4039 8.39839  21
  -1  -8   1 28.4779 8.50950  22
  -1  -8   1 24.2754 7.11657   2
  -1  -8   2 49.0762 10.8265  22
  -1  -8   2 54.5569 10.2425   2
  -1  -8   2 65.0197 10.7755  21
  -1  -8   3 174.526 19.3838  22
  -1  -8   3 155.110 16.3923   2
  -1  -8   4 94.8474 13.4286   2
  -1  -8   5 89.8886 15.8497  22
  -1  -8   5 49.9313 10.5704   2
  -1  -8   6 70.4201 12.1840   2
  -1  -7 -13 120.443 16.8358   4
  -1  -7 -12 18.9359 8.27433   4
  -1  -7 -11 146.626 17.1462   4
  -1  -7 -10 35.1504 8.66386   4
  -1  -7  -9 380.521 25.3393   4
  -1  -7  -8 186.508 17.2939   4
  -1  -7  -8 187.555 16.4905  12
  -1  -7  -7 726.468 33.0777   4
  -1  -7  -7 640.562 29.5286  12
  -1  -7  -6 437.804 22.6776  12
  -1  -7  -5 90.8616 9.85090  12
  -1  -7  -5 93.4269 11.1117   4
  -1  -7  -4 12.8342 3.92360  12
  -1  -7  -4 11.8262 3.61616  22
  -1  -7  -4 16.7534 5.34669   4
  -1  -7  -3 40.5193 6.98592   4
  -1  -7  -3 45.8298 6.51218  12
  -1  -7  -3 51.5160 7.43643  22
  -1  -7  -2 270.048 17.3765  22
  -1  -7  -2 235.966 17.0517   2
  -1  -7  -2 268.642 13.8701  12
  -1  -7  -2 261.688 16.5789   4
  -1  -7  -1 92.8259 11.0612   2
  -1  -7  -1 102.267 11.6130  22
  -1  -7  -1 89.3258 9.35700   4
  -1  -7   0 726.095 26.3196   4
  -1  -7   0 635.954 30.7355  22
  -1  -7   0 662.633 30.5812   2
  -1  -7   0 764.999 33.0185  21
  -1  -7   1 369.661 23.9140  22
  -1  -7   1 372.461 22.6678  21
  -1  -7   2 853.049 38.4486  22
  -1  -7   2 749.898 33.6379   2
  -1  -7   2 806.863 33.3889  21
  -1  -7   3 43.0087 8.28715  21
  -1  -7   3 44.3221 8.99344   2
  -1  -7   4 111.957 15.4134  22
  -1  -7   4 133.687 14.4727   2
  -1  -7   5 18.9783 6.38464   2
  -1  -7   5 35.5172 10.0184  22
  -1  -7   6 221.659 22.7766  22
  -1  -7   6 201.171 18.2421   2
  -1  -7   7 4.48895 6.93166  22
  -1  -6 -14 49.2896 11.1629  19
  -1  -6 -13 81.5802 12.8387  19
  -1  -6 -12 105.245 13.4381  19
  -1  -6 -12 103.177 14.3258   4
  -1  -6 -11 29.4786 7.42117  19
  -1  -6 -11 43.6434 9.61454   4
  -1  -6 -10 137.732 13.2031  19
  -1  -6 -10 103.909 13.3463   4
  -1  -6  -9 173.367 13.8153  19
  -1  -6  -9 136.133 14.5427   4
  -1  -6  -8 1613.66 51.3037   4
  -1  -6  -8 1636.74 43.8876  19
  -1  -6  -8 1666.57 50.9400  12
  -1  -6  -7 263.108 17.8866  12
  -1  -6  -7 277.455 14.7799  19
  -1  -6  -7 281.842 18.9344   4
  -1  -6  -6 450.151 23.4449   4
  -1  -6  -6 484.303 23.0756  12
  -1  -6  -6 463.840 17.9188  19
  -1  -6  -5 62.3005 7.89887  12
  -1  -6  -5 41.1886 4.96306  19
  -1  -6  -5 47.4285 5.12594  22
  -1  -6  -4 473.131 22.4162   4
  -1  -6  -4 481.871 20.5229  12
  -1  -6  -4 439.500 14.8100  19
  -1  -6  -4 451.658 17.8750  22
  -1  -6  -3 67.7209 7.14196  12
  -1  -6  -3 70.6503 7.50771  22
  -1  -6  -3 37.7523 6.37565   4
  -1  -6  -3 48.4104 4.44279  19
  -1  -6  -3 60.3127 7.72661   2
  -1  -6  -2 787.576 24.3480  12
  -1  -6  -2 789.697 29.6934   2
  -1  -6  -2 817.864 28.6557  22
  -1  -6  -1 111.183 7.93177  12
  -1  -6  -1 113.577 11.1433  22
  -1  -6  -1 117.712 11.2228   2
  -1  -6   0 1744.49 50.1341  22
  -1  -6   0 1714.65 37.0805  12
  -1  -6   0 1766.55 49.3080   2
  -1  -6   1 872.740 34.7393  22
  -1  -6   2 508.653 23.6375  21
  -1  -6   2 502.932 24.9303   2
  -1  -6   3 183.353 16.9752  22
  -1  -6   3 189.757 15.3399   2
  -1  -6   3 202.236 14.5033  21
  -1  -6   4 90.3356 13.0268  22
  -1  -6   4 108.979 12.0422   2
  -1  -6   5 32.4935 8.84685  22
  -1  -6   5 26.6223 6.90512   2
  -1  -6   6 3.67899 4.75302  22
  -1  -6   6 2.61097 4.41660   2
  -1  -6   7 94.6762 14.8608  22
  -1  -6   7 100.878 12.5778   2
  -1  -6   8 10.5062 7.67933  22
  -1  -6   9 162.126 20.7033  22
  -1  -5 -14 79.2644 13.6372  19
  -1  -5 -13 5.03064 5.90486  19
  -1  -5 -12 288.721 21.7792  19
  -1  -5 -11 5.80195 4.70015   4
  -1  -5 -11 13.4327 6.01311  19
  -1  -5 -11 12.6359 5.26365  17
  -1  -5 -10 431.967 25.0783   4
  -1  -5 -10 404.623 22.8527  19
  -1  -5 -10 416.809 21.6252  17
  -1  -5  -9 43.6083 7.46588  19
  -1  -5  -9 27.9446 5.65631  17
  -1  -5  -9 37.4594 7.79020  12
  -1  -5  -9 28.6883 6.90656   4
  -1  -5  -8 460.867 21.5335  19
  -1  -5  -8 455.900 23.9064  12
  -1  -5  -8 444.260 23.9197   4
  -1  -5  -7 75.2512 7.96286  19
  -1  -5  -7 89.3582 10.1366   4
  -1  -5  -6 1150.85 36.7827  12
  -1  -5  -6 1226.76 32.7004  19
  -1  -5  -6 1281.91 39.2251   4
  -1  -5  -5 2391.29 43.7682  22
  -1  -5  -5 2405.40 55.6549  12
  -1  -5  -5 2472.12 49.3851  19
  -1  -5  -5 2305.29 56.9772   4
  -1  -5  -4 891.783 24.0419  22
  -1  -5  -4 890.560 23.4220  19
  -1  -5  -4 953.376 28.8955  12
  -1  -5  -3 212.426 11.7519  22
  -1  -5  -3 241.505 12.6733  12
  -1  -5  -3 222.237 13.2455   2
  -1  -5  -2 146.606 10.3281  22
  -1  -5  -2 128.988 8.81479  12
  -1  -5  -2 150.872 11.0728   2
  -1  -5  -1 1811.17 45.5383  22
  -1  -5  -1 1818.99 38.7826  12
  -1  -5  -1 1755.99 45.0842   2
  -1  -5   0 205.071 13.9368  22
  -1  -5   0 193.830 9.57421  12
  -1  -5   0 193.650 13.1469   2
  -1  -5   1 1017.09 24.7002  12
  -1  -5   1 1027.54 33.4800   2
  -1  -5   2 0.75333 1.51680  12
  -1  -5   2 2.83714 3.06317   2
  -1  -5   2 4.47724 3.94124  22
  -1  -5   3 545.166 27.1550  22
  -1  -5   3 549.564 21.8672  21
  -1  -5   4 20.3281 4.59630  21
  -1  -5   4 21.6886 6.48816  22
  -1  -5   4 7.30468 3.67962   2
  -1  -5   5 515.042 28.6214  22
  -1  -5   5 548.993 25.7176   2
  -1  -5   6 84.3556 12.4900  22
  -1  -5   6 82.2167 11.0710  10
  -1  -5   6 82.6959 10.3262   2
  -1  -5   7 676.971 35.7124  22
  -1  -5   7 677.256 33.0098  10
  -1  -5   7 693.412 30.2859   2
  -1  -5   8 55.0570 11.9299  22
  -1  -5   8 87.7995 12.7772  10
  -1  -5   9 134.994 17.6045  22
  -1  -5   9 122.318 16.0869  10
  -1  -5  10 12.3168 8.02069  10
  -1  -4 -14 55.5918 12.4427  19
  -1  -4 -13 68.0413 12.3236  19
  -1  -4 -13 67.7259 11.2345  17
  -1  -4 -12 77.0427 12.1410  19
  -1  -4 -12 79.5097 11.2555  17
  -1  -4 -11 553.522 28.9859  19
  -1  -4 -11 537.162 27.0698  17
  -1  -4 -10 271.660 18.7389   4
  -1  -4 -10 254.445 18.3584  19
  -1  -4 -10 267.575 17.7935  17
  -1  -4  -9 204.419 15.4560   4
  -1  -4  -9 192.364 15.5969  12
  -1  -4  -9 181.385 13.7164  17
  -1  -4  -9 190.973 14.9312  19
  -1  -4  -8 97.9775 10.4623   4
  -1  -4  -8 116.879 11.6337  12
  -1  -4  -8 117.132 10.7779  19
  -1  -4  -7 1702.44 46.9941  12
  -1  -4  -7 1739.88 44.1026  19
  -1  -4  -7 1708.25 46.4159   4
  -1  -4  -6 552.856 22.9789  12
  -1  -4  -6 587.015 21.0380  19
  -1  -4  -6 531.403 22.7465   4
  -1  -4  -5 3595.52 57.4159  22
  -1  -4  -5 3712.30 68.0760  19
  -1  -4  -4 120.454 7.59264  19
  -1  -4  -4 112.220 7.96331   2
  -1  -4  -4 116.243 8.83642  12
  -1  -4  -3 2536.13 51.3462  12
  -1  -4  -3 2489.47 51.4731   2
  -1  -4  -2 408.649 15.1514  12
  -1  -4  -2 428.116 16.9507   2
  -1  -4  -1 2452.33 47.1478  12
  -1  -4  -1 2419.04 52.0639   2
  -1  -4   0 78.5654 6.31248  13
  -1  -4   0 72.4436 5.60796  12
  -1  -4   0 76.8462 7.40805   2
  -1  -4   1 299.446 12.2746  13
  -1  -4   1 289.498 15.1370   2
  -1  -4   2 157.663 8.42952  13
  -1  -4   3 335.696 17.3126   2
  -1  -4   3 367.646 12.9281  13
  -1  -4   4 947.623 31.8373   2
  -1  -4   4 956.435 35.7691  22
  -1  -4   4 991.799 26.4642  21
  -1  -4   4 990.296 23.1714  13
  -1  -4   5 843.145 30.0603   2
  -1  -4   5 797.897 33.6190  22
  -1  -4   5 817.711 34.8677   6
  -1  -4   6 620.473 26.1559   2
  -1  -4   6 665.991 31.5427  22
  -1  -4   6 642.121 31.9807   6
  -1  -4   7 107.339 13.5272  22
  -1  -4   7 86.4713 9.79910   2
  -1  -4   7 74.2380 11.6476   6
  -1  -4   8 534.432 29.7481  10
  -1  -4   8 464.495 29.6274   6
  -1  -4   8 511.801 29.6928  22
  -1  -4   9 11.5154 7.01359   6
  -1  -4   9 5.17465 4.76549  10
  -1  -4  10 80.7392 13.8427  10
  -1  -3 -14 7.93911 6.12988  19
  -1  -3 -14 3.54436 5.74050  17
  -1  -3 -13 189.609 19.5164  19
  -1  -3 -13 202.102 18.9531  17
  -1  -3 -12 57.0116 11.2780  19
  -1  -3 -12 58.5214 10.3354  17
  -1  -3 -11 1172.06 44.5382  19
  -1  -3 -11 1208.55 43.3157  17
  -1  -3 -10 215.340 17.2370  19
  -1  -3 -10 204.659 16.1009  17
  -1  -3  -9 758.527 31.1624  19
  -1  -3  -9 760.598 29.4231   4
  -1  -3  -9 812.387 30.9433  17
  -1  -3  -8 12.2333 4.27071   4
  -1  -3  -8 9.70818 4.02660  19
  -1  -3  -8 14.1089 4.56053  17
  -1  -3  -8 18.1182 4.91841  12
  -1  -3  -7 183.247 12.6739  19
  -1  -3  -7 189.918 12.7311   4
  -1  -3  -7 179.732 12.9727  12
  -1  -3  -6 7.88014 3.20790   4
  -1  -3  -6 8.21515 3.06577  19
  -1  -3  -6 7.70990 3.01380  12
  -1  -3  -5 318.516 14.1887  19
  -1  -3  -5 339.334 15.6573  12
  -1  -3  -4 4800.03 84.4751  12
  -1  -3  -4 4892.74 82.0678  19
  -1  -3  -3 3776.48 65.8055   2
  -1  -3  -2 2118.44 43.2614   2
  -1  -3  -2 2260.04 44.4873  13
  -1  -3  -1 45.8263 4.39856  12
  -1  -3  -1 51.9267 5.09239   2
  -1  -3   0 3955.25 71.8702   2
  -1  -3   0 3979.11 68.5274  13
  -1  -3   1 67.7316 6.39615   2
  -1  -3   1 76.2001 5.56596  13
  -1  -3   2 4540.87 86.6304   6
  -1  -3   2 4488.02 75.9418  13
  -1  -3   3 162.045 12.3476   6
  -1  -3   3 160.107 8.23215  13
  -1  -3   3 159.484 10.6378   2
  -1  -3   4 1141.79 32.4328   2
  -1  -3   4 1125.08 24.7661  21
  -1  -3   4 1087.98 25.6079  13
  -1  -3   5 27.3338 3.06386  21
  -1  -3   5 23.8545 3.52165  13
  -1  -3   5 30.6634 5.38790   2
  -1  -3   6 824.008 34.7393   6
  -1  -3   6 856.729 33.5514  22
  -1  -3   6 881.833 29.5814   2
  -1  -3   7 71.9859 10.6599   6
  -1  -3   7 70.1608 10.0625  22
  -1  -3   7 66.5821 8.17512   2
  -1  -3   8 670.089 34.4867   6
  -1  -3   8 721.914 32.9952  22
  -1  -3   8 693.334 27.0906   2
  -1  -3   9 19.2860 7.26934   6
  -1  -3   9 19.1906 6.98967  10
  -1  -3  10 57.2902 11.6811   6
  -1  -3  10 69.8145 11.8907  10
  -1  -3  11 78.2659 13.8401   6
  -1  -3  11 89.7647 14.6258  10
  -1  -3  12 63.6023 13.2336   6
  -1  -2 -14 47.5453 11.3173  17
  -1  -2 -13 128.330 16.3453  17
  -1  -2 -12 260.281 20.8150  17
  -1  -2 -11 21.1488 6.31679  17
  -1  -2 -10 446.287 24.5378  17
  -1  -2  -9 261.484 17.6322  17
  -1  -2  -8 1134.09 36.8417  17
  -1  -2  -8 1157.99 36.5985  12
  -1  -2  -7 148.271 11.3531  12
  -1  -2  -7 145.867 11.3503  17
  -1  -2  -7 141.115 10.0900   4
  -1  -2  -6 1997.78 46.9733  12
  -1  -2  -6 2006.99 44.5421   4
  -1  -2  -5 3.57331 2.01535  12
  -1  -2  -4 6177.84 103.385  12
  -1  -2  -3 753.094 15.8071  18
  -1  -2  -3 764.735 20.8225  12
  -1  -2  -3 773.122 17.2659   2
  -1  -2  -2 5137.95 83.5207  13
  -1  -2  -2 4984.58 83.1208  12
  -1  -2  -2 5065.82 80.7500   2
  -1  -2  -1 26.4830 3.80660  13
  -1  -2  -1 30.3974 3.67559   2
  -1  -2   0 5886.52 95.6047   6
  -1  -2   0 5801.17 94.9739   2
  -1  -2   1 1058.39 27.1454   6
  -1  -2   1 1041.45 24.0254  13
  -1  -2   1 1039.55 25.8204   2
  -1  -2   2 3727.33 70.1557   6
  -1  -2   2 3619.10 63.5859  13
  -1  -2   3 1342.20 36.3697   6
  -1  -2   3 1321.81 32.9947   2
  -1  -2   4 15.4253 4.19031   6
  -1  -2   4 15.8860 3.53701   2
  -1  -2   5 407.656 17.6264   2
  -1  -2   6 265.540 14.3587   2
  -1  -2   6 272.427 18.1081   6
  -1  -2   7 508.185 21.1128   2
  -1  -2   7 535.194 24.7605  22
  -1  -2   7 494.537 26.2732   6
  -1  -2   8 17.0792 4.49605   2
  -1  -2   8 7.23889 4.24492   6
  -1  -2   9 813.085 37.9481   6
  -1  -2  10 79.5010 12.9599   6
  -1  -2  11 602.110 34.5250  10
  -1  -2  11 597.994 35.4029   6
  -1  -2  12 4.14043 4.95277   6
  -1  -2  12 8.24957 7.26225  10
  -1  -1 -14 454.256 31.8566  17
  -1  -1 -13 11.1524 7.26172  17
  -1  -1 -13 5.77516 6.77928  19
  -1  -1 -12 36.5618 9.48366  19
  -1  -1 -12 43.8141 9.47081  17
  -1  -1 -11 140.334 15.3580  19
  -1  -1 -11 142.094 15.4005  17
  -1  -1 -10 373.366 23.3255  19
  -1  -1 -10 376.336 23.2014  17
  -1  -1  -9 385.795 22.2657  19
  -1  -1  -9 386.431 22.2834  17
  -1  -1  -8 3624.08 79.5342  19
  -1  -1  -8 3597.65 79.3973  17
  -1  -1  -7 924.361 31.2452  19
  -1  -1  -7 906.238 29.0466  12
  -1  -1  -6 1146.33 28.1657   4
  -1  -1  -6 1144.08 33.0972  19
  -1  -1  -6 1109.34 31.1043  12
  -1  -1  -5 370.322 14.9358  12
  -1  -1  -5 347.793 15.7836  19
  -1  -1  -4 53.1145 5.00708  12
  -1  -1  -4 49.5193 5.21433  19
  -1  -1  -3 3829.67 67.2973  19
  -1  -1  -3 3925.64 64.9745  13
  -1  -1  -3 3854.30 58.1948   2
  -1  -1  -2 130.952 6.40924  13
  -1  -1  -2 126.589 4.80893   2
  -1  -1  -2 136.696 6.79513  12
  -1  -1  -1 10.6941 1.48379   6
  -1  -1  -1 12.0998 2.04045  18
  -1  -1  -1 15.3750 2.43017  13
  -1  -1  -1 13.0737 2.03568  14
  -1  -1   0 583.439 15.5618  13
  -1  -1   0 582.321 15.4503  14
  -1  -1   0 579.504 14.4921   6
  -1  -1   1 10421.7 159.846  14
  -1  -1   1 10458.1 160.015   6
  -1  -1   2 89.2774 6.51941  14
  -1  -1   2 104.491 7.42216   6
  -1  -1   3 10614.7 170.124   6
  -1  -1   3 10542.7 166.436  14
  -1  -1   4 1468.80 35.3224  14
  -1  -1   4 1475.20 39.1611   6
  -1  -1   5 2589.93 54.5365  14
  -1  -1   6 122.915 11.5504   6
  -1  -1   7 321.820 20.0913   6
  -1  -1   7 315.340 15.4849   2
  -1  -1   8-1.34574 3.21928   6
  -1  -1   8 4.46432 2.71892   2
  -1  -1   9 884.972 38.7902   6
  -1  -1  10 182.626 18.1664   6
  -1  -1  11 39.9315 9.73058   6
  -1  -1  11 53.7496 10.7289  10
  -1  -1  12 90.4616 14.6900   6
  -1  -1  12 103.968 15.5652  10
  -1   0 -13 41.9807 10.7069  17
  -1   0 -13 35.7187 10.2689  19
  -1   0 -12 7.18250 5.26210  19
  -1   0 -12 10.8895 6.39166  17
  -1   0 -11 143.558 15.9759  19
  -1   0 -11 161.360 17.2040  17
  -1   0 -10 7.14938 5.03572  19
  -1   0  -9 811.381 34.0093  19
  -1   0  -8 535.179 25.4996  19
  -1   0  -8 545.837 26.0939  17
  -1   0  -7 3001.24 68.0657  19
  -1   0  -7 3049.11 68.9976  17
  -1   0  -6-0.57256 1.58154  12
  -1   0  -6 1.57964 2.18164  19
  -1   0  -6 2.47773 2.13399  17
  -1   0  -5 3563.95 70.4914  17
  -1   0  -5 3534.00 59.9557   4
  -1   0  -5 3659.84 65.1089  12
  -1   0  -5 3492.48 69.1152  19
  -1   0  -4 485.406 15.1114  12
  -1   0  -4 473.537 16.9786  19
  -1   0  -4 450.930 17.1578  17
  -1   0  -3 225.563 7.61599  13
  -1   0  -3 221.444 8.68392  12
  -1   0  -3 239.611 10.3711  19
  -1   0  -2 186.275 6.93315  13
  -1   0  -2 179.824 7.17291  12
  -1   0  -2 191.307 8.19736  19
  -1   0  -1 9871.78 143.867   1
  -1   0  -1 9945.15 147.239  14
  -1   0   0 806.448 15.8165  15
  -1   0   0 846.638 19.7461  18
  -1   0   0 812.963 17.3967   1
  -1   0   0 825.972 18.8710  14
  -1   0   1 4289.21 65.6584   9
  -1   0   1 4283.50 71.3991  14
  -1   0   2 422.764 14.4936  14
  -1   0   3 3499.23 53.8727  23
  -1   0   3 3452.59 66.5244   6
  -1   0   3 3510.45 61.7387   7
  -1   0   4 5643.52 97.1229   7
  -1   0   4 5580.98 101.400   6
  -1   0   4 5690.46 87.1763  23
  -1   0   4 5620.52 97.2467  14
  -1   0   5 349.959 11.6306  23
  -1   0   5 351.796 10.3333  20
  -1   0   5 394.398 17.2583   7
  -1   0   5 346.926 15.4423  14
  -1   0   6 471.526 15.5684  23
  -1   0   6 488.331 23.1244   6
  -1   0   6 486.021 11.5986  20
  -1   0   6 508.135 21.9113   7
  -1   0   6 488.191 19.3177  14
  -1   0   7 97.4583 8.66549  14
  -1   0   7 97.9407 7.39122  23
  -1   0   7 101.302 11.0360   6
  -1   0   8 922.848 29.6216  14
  -1   0   8 892.953 36.4273   6
  -1   0   9 11.5404 4.88279   6
  -1   0  10 591.887 32.1590   6
  -1   0  11 3.50193 5.40753   6
  -1   0  12 374.429 27.7799   6
  -1   0  12 413.123 28.2975  10
  -1   0  13 6.09631 5.61445   6
  -1   0  13 13.9499 7.28294  10
  -1   1 -13 375.092 28.9940  19
  -1   1 -12 25.9287 8.86819  19
  -1   1 -11 475.705 29.8338  17
  -1   1 -11 426.252 27.7516  19
  -1   1 -10 4.73181 4.35668  17
  -1   1 -10-1.48548 3.24383  19
  -1   1  -9 162.656 15.0875  19
  -1   1  -9 136.878 14.3962  17
  -1   1  -8 6.84342 4.31434  19
  -1   1  -8 2.45551 3.59748  17
  -1   1  -7 1129.73 37.0207  19
  -1   1  -7 1143.49 38.2814  17
  -1   1  -6 617.979 24.2834  19
  -1   1  -6 614.983 25.2403  17
  -1   1  -5 251.759 13.7151  19
  -1   1  -5 278.117 15.0803  17
  -1   1  -4 120.991 8.98291  17
  -1   1  -4 121.808 6.40078  20
  -1   1  -4 131.054 8.74161  19
  -1   1  -4 119.523 6.39134  12
  -1   1  -3 199.591 8.38568  20
  -1   1  -3 201.793 9.69115  19
  -1   1  -3 196.016 10.3394  17
  -1   1  -3 206.139 7.34314  12
  -1   1  -3 182.380 5.45636  13
  -1   1  -2 17386.8 255.045  20
  -1   1  -2 17118.3 250.002  12
  -1   1  -2 17121.7 254.765  19
  -1   1  -2 17466.6 256.730  17
  -1   1  -1 12655.3 190.257  20
  -1   1   0 3773.80 64.1106  20
  -1   1   0 3764.34 62.4194  16
  -1   1   0 3790.82 63.4646   1
  -1   1   0 3822.63 64.8784  15
  -1   1   1 3639.03 60.2076  15
  -1   1   1 3560.07 60.5870  20
  -1   1   1 3678.31 61.9766   1
  -1   1   1 3572.12 56.4392  16
  -1   1   2 1853.27 39.3769   1
  -1   1   2 1861.51 32.5505  16
  -1   1   2 1809.39 36.4100   9
  -1   1   3 1368.83 34.1639   1
  -1   1   3 1339.05 28.4479  20
  -1   1   3 1311.87 27.0607  16
  -1   1   3 1374.07 31.2307   9
  -1   1   4 2944.32 52.3238  20
  -1   1   4 3014.97 58.8694  14
  -1   1   5 429.586 17.7327  14
  -1   1   5 455.018 15.0330  23
  -1   1   5 423.652 13.3981  20
  -1   1   5 433.219 18.5360   7
  -1   1   6 3242.89 69.6889   7
  -1   1   6 3137.58 71.4730   6
  -1   1   6 3222.27 54.4496  20
  -1   1   6 3142.54 65.1899  14
  -1   1   6 3108.27 59.7986  23
  -1   1   7 233.393 13.8714  14
  -1   1   7 270.181 13.0759  23
  -1   1   7 224.865 16.3242   6
  -1   1   7 244.865 16.4257   7
  -1   1   8 1230.02 42.1395   7
  -1   1   8 1203.86 33.1237  23
  -1   1   8 1230.07 43.0582   6
  -1   1   8 1229.02 35.9503  14
  -1   1   9 91.2680 11.8918   7
  -1   1   9 110.363 10.2548  14
  -1   1   9 119.844 13.5924   6
  -1   1  10 474.137 28.3717   6
  -1   1  11 134.864 16.3079   6
  -1   1  12 13.1191 6.60109   6
  -1   1  12 10.1006 6.15343  10
  -1   1  13 58.3288 12.2864   6
  -1   1  13 43.0018 10.3521  10
  -1   2 -12 226.241 21.4646  19
  -1   2 -12 217.354 22.6832  17
  -1   2 -12 194.967 23.3937  16
  -1   2 -11 108.782 15.4589  17
  -1   2 -11 127.104 15.8232  19
  -1   2 -10 269.154 22.0348  17
  -1   2 -10 271.400 20.9921  19
  -1   2  -9 27.4778 8.04478  17
  -1   2  -9 47.5346 8.81301  19
  -1   2  -8 92.8401 11.2119  19
  -1   2  -8 75.4879 10.6793  17
  -1   2  -7-1.02613 2.45466  19
  -1   2  -7-1.17738 1.99157  17
  -1   2  -6 1759.36 46.4104  19
  -1   2  -6 1803.82 49.4750  17
  -1   2  -5 4.31641 2.79789  17
  -1   2  -5 12.3686 3.89295  19
  -1   2  -4 4607.48 83.1556  19
  -1   2  -4 4566.75 86.5546  17
  -1   2  -3 1297.77 30.3846  20
  -1   2  -3 1331.51 30.9516  19
  -1   2  -3 1336.05 33.4805  17
  -1   2  -3 1277.92 36.8053  16
  -1   2  -2 3715.30 56.0265  12
  -1   2  -2 3870.50 67.3241  20
  -1   2  -2 3808.79 63.9608  19
  -1   2  -2 3755.90 67.1391  17
  -1   2  -2 3783.22 72.9777  16
  -1   2  -1 81.3141 6.42053  20
  -1   2  -1 90.4696 4.82294  19
  -1   2  -1 91.8678 5.74722  17
  -1   2  -1 96.7442 7.57554  16
  -1   2   0 4539.59 80.8891  15
  -1   2   0 4423.05 70.1646  17
  -1   2   0 4527.04 77.9375  20
  -1   2   0 4538.97 78.0286  16
  -1   2   1 258.494 12.2773  15
  -1   2   1 255.574 10.6906  16
  -1   2   1 241.530 11.8150   1
  -1   2   1 238.200 11.1416  20
  -1   2   1 254.689 11.3139  18
  -1   2   2 260.577 11.6806  20
  -1   2   2 267.173 11.4129  18
  -1   2   2 286.167 13.5669   1
  -1   2   2 250.687 10.5390  16
  -1   2   3 284.702 14.4575   1
  -1   2   3 280.975 12.1645  20
  -1   2   3 283.203 11.5125  16
  -1   2   3 282.132 13.5283   9
  -1   2   4 55.2017 5.35645  20
  -1   2   4 54.1729 6.31454   9
  -1   2   4 45.3559 4.89824  16
  -1   2   4 49.8997 6.58917   1
  -1   2   5 2926.60 55.5355  20
  -1   2   5 2970.47 58.4258  16
  -1   2   6 1984.39 40.7381  20
  -1   2   6 1892.98 47.2472  14
  -1   2   7 2546.41 55.0365  23
  -1   2   7 2442.69 57.4470  14
  -1   2   7 2514.51 63.0669   7
  -1   2   8 260.237 15.8788  14
  -1   2   8 275.115 19.1994   7
  -1   2   8 273.669 15.3179  23
  -1   2   8 290.175 19.9409   6
  -1   2   9 719.279 27.7323  14
  -1   2   9 696.662 33.2057   7
  -1   2   9 690.576 33.1442   6
  -1   2  10 48.3724 9.85631   7
  -1   2  10 46.1104 9.72002   6
  -1   2  11 447.808 29.0996   6
  -1   2  11 466.722 30.0673   7
  -1   2  12 3.77495 4.87731   6
  -1   2  12 6.27336 5.08022  10
  -1   2  13 122.061 15.7863  10
  -1   2  13 110.571 16.6250   6
  -1   2  14 1.92519 5.64031  10
  -1   3 -11 16.5526 8.33543  17
  -1   3 -11 21.7683 9.15203  16
  -1   3 -10 216.946 21.0372  17
  -1   3 -10 204.228 22.2030  16
  -1   3  -9 34.3484 9.87343  16
  -1   3  -9 23.4501 7.50606  17
  -1   3  -8 228.820 19.1737  17
  -1   3  -8 209.972 20.4121  16
  -1   3  -7 11.7431 5.40861  17
  -1   3  -6 483.504 22.3932  19
  -1   3  -6 551.709 26.0273  17
  -1   3  -6 479.730 27.5068  16
  -1   3  -5 1058.12 32.0456  19
  -1   3  -5 1057.24 40.0162  16
  -1   3  -5 1105.58 36.0586  17
  -1   3  -4 607.059 21.0868  19
  -1   3  -4 587.932 23.5246  17
  -1   3  -4 556.809 26.5077  16
  -1   3  -3 233.740 13.1454  17
  -1   3  -3 228.902 11.1510  19
  -1   3  -3 269.608 16.8365  16
  -1   3  -2 491.614 18.9397  20
  -1   3  -2 505.377 17.9725  17
  -1   3  -2 524.254 22.4967  16
  -1   3  -1 894.326 22.8548  17
  -1   3  -1 894.436 26.8255  20
  -1   3  -1 908.995 29.1288  16
  -1   3  -1 896.903 30.5553  15
  -1   3   0 1500.51 37.5888  20
  -1   3   0 1601.44 39.2288  16
  -1   3   0 1579.05 30.2194  17
  -1   3   0 1529.93 41.0875  15
  -1   3   1 6413.69 112.376  20
  -1   3   1 6621.75 112.172  16
  -1   3   1 6630.66 116.143  15
  -1   3   2 110.410 9.22997   1
  -1   3   2 76.8305 7.97789  15
  -1   3   2 100.218 8.25632  20
  -1   3   2 102.277 7.51218  18
  -1   3   2 95.3858 7.73315  16
  -1   3   3 2946.91 55.1370  18
  -1   3   3 2791.99 62.1478   1
  -1   3   3 2854.52 57.4675  16
  -1   3   4 3.55276 2.45471   1
  -1   3   4 10.7952 3.28247  20
  -1   3   4 3.31086 2.42637   9
  -1   3   4 8.72864 2.92119  16
  -1   3   5 2334.16 50.2167  20
  -1   3   5 2297.85 51.2779  16
  -1   3   5 2198.13 55.4324   9
  -1   3   6 492.280 20.6625  16
  -1   3   6 439.157 22.3213   9
  -1   3   7 1011.48 38.0460   1
  -1   3   8 35.5057 6.41050  23
  -1   3   8 42.1214 7.01548  14
  -1   3   9 122.977 14.1068   7
  -1   3   9 131.845 12.3745  14
  -1   3   9 157.099 13.0970  23
  -1   3  10 129.570 15.3459   7
  -1   3  10 125.448 15.0572   6
  -1   3  11 364.751 27.1720   7
  -1   3  11 377.021 26.6961   6
  -1   3  12 287.925 21.3263  10
  -1   3  12 243.675 23.2778   7
  -1   3  12 233.109 22.2383   6
  -1   3  13 49.3797 11.7413   6
  -1   3  13 56.8691 10.7895  10
  -1   3  13 56.8772 12.7864   7
  -1   3  14 139.865 17.2713  10
  -1   4 -10 48.6122 12.5791  16
  -1   4 -10 48.6131 11.7227  17
  -1   4  -9 414.590 28.6671  17
  -1   4  -9 436.228 32.2228  16
  -1   4  -8 27.8112 8.46062  17
  -1   4  -8 20.4550 7.99750  16
  -1   4  -7 196.792 17.5865  17
  -1   4  -6 3.81027 4.29736  17
  -1   4  -6 8.41950 5.45459  16
  -1   4  -5 1080.21 37.7950  17
  -1   4  -5 1009.51 41.9377  16
  -1   4  -4 34.6794 6.35327  17
  -1   4  -4 20.4050 6.10001  16
  -1   4  -3 798.139 27.3065  17
  -1   4  -3 738.476 32.0148  16
  -1   4  -2 12.0242 4.40480  16
  -1   4  -2 14.1127 3.71021  17
  -1   4  -2 9.70179 4.43466  15
  -1   4  -1 149.649 12.4907  16
  -1   4  -1 146.979 13.1718  15
  -1   4   0 119.535 11.5579  15
  -1   4   0 114.232 10.4868  16
  -1   4   1 4194.70 87.0966  15
  -1   4   1 4053.00 81.9070  20
  -1   4   1 4239.65 83.4806  16
  -1   4   2 3227.29 69.9961  20
  -1   4   2 3420.50 66.1581  18
  -1   4   2 3399.01 70.4448  16
  -1   4   2 3490.75 74.6365  15
  -1   4   3 2208.37 46.9156  18
  -1   4   3 2108.01 54.8868   1
  -1   4   3 2167.81 51.3315  16
  -1   4   4 850.957 28.3020  16
  -1   4   4 796.686 30.8811   1
  -1   4   5 4.52939 3.49699   1
  -1   4   5 1.08788 2.60244   9
  -1   4   5 0.85624 2.50865  16
  -1   4   6 105.392 10.0934  16
  -1   4   6 117.235 12.1740   9
  -1   4   7 6.77322 3.96940   1
  -1   4   7 3.91393 3.60439   9
  -1   4   8 485.045 27.5376   1
  -1   4   9 168.342 14.6906  23
  -1   4   9 122.727 12.5854  14
  -1   4  10 699.560 36.7617   7
  -1   4  11 3.91807 4.68654   7
  -1   4  12 456.211 32.2684   7
  -1   4  12 431.350 30.9947   6
  -1   4  13 139.378 19.3521   7
  -1   4  13 142.099 18.9744   6
  -1   5  -9 71.4637 13.7497  17
  -1   5  -9 81.2777 15.8087  16
  -1   5  -8 47.8570 12.0110  16
  -1   5  -8 64.3197 11.9881  17
  -1   5  -7 167.618 17.3820  17
  -1   5  -6 55.7289 11.2920  16
  -1   5  -6 63.5790 10.2678  17
  -1   5  -5 213.821 16.8356  17
  -1   5  -5 184.626 18.8686  16
  -1   5  -4 515.244 29.6028  16
  -1   5  -3 205.821 18.8629  15
  -1   5  -3 209.258 18.0327  16
  -1   5  -2 471.571 25.8620  16
  -1   5  -2 486.984 27.6499  15
  -1   5  -1 4.92978 3.40548  16
  -1   5  -1 9.63737 4.65845  15
  -1   5   0 466.749 25.4313  15
  -1   5   0 451.020 23.6821  16
  -1   5   1 94.3946 11.1311  15
  -1   5   1 94.6900 10.4883  16
  -1   5   2 1573.22 45.6151  16
  -1   5   2 1500.15 47.4679  15
  -1   5   3 205.353 16.0857   1
  -1   5   3 198.611 12.0773  18
  -1   5   3 208.213 15.0882  16
  -1   5   4 1493.86 47.8842   1
  -1   5   4 1523.22 36.8155  18
  -1   5   4 1487.66 44.4153  16
  -1   5   5 2.64349 2.88633   1
  -1   5   5-1.28806 2.81278   9
  -1   5   5 3.15383 3.24660  16
  -1   5   6 196.227 15.1331  16
  -1   5   6 223.998 17.8387   9
  -1   5   7 226.167 19.1629   1
  -1   5   7 257.131 19.8646   9
  -1   5   8 1235.73 47.9334   1
  -1   5   9 141.332 16.3774   1
  -1   5  10 74.0122 11.3877  14
  -1   5  10 91.6207 12.1901  23
  -1   5  11 51.6933 11.6230   7
  -1   5  12 101.432 16.3878   7
  -1   5  13 99.8696 17.3700   7
  -1   5  13 91.3228 15.5923   6
  -1   6  -8 159.422 21.3778  16
  -1   6  -8 159.557 22.0537  15
  -1   6  -7 52.9046 12.8057  15
  -1   6  -6 159.614 19.6598  16
  -1   6  -6 110.064 17.9597  15
  -1   6  -5-2.17049 4.23933  15
  -1   6  -5 8.08618 5.92258  16
  -1   6  -4 214.737 20.7737  16
  -1   6  -3 86.4836 12.8114  16
  -1   6  -2 977.691 41.9749  16
  -1   6  -2 947.571 43.0252  15
  -1   6  -1 323.975 24.0463  15
  -1   6  -1 311.135 22.3331  16
  -1   6   0 42.8469 9.05655  15
  -1   6   0 42.3494 8.40718  16
  -1   6   1 80.3326 10.7614  16
  -1   6   1 78.5257 11.2874  15
  -1   6   2 236.340 17.9965  16
  -1   6   2 257.536 20.0530  15
  -1   6   3 762.769 27.0208  18
  -1   6   3 741.299 32.4932  16
  -1   6   4 484.362 25.7901  16
  -1   6   4 457.234 26.9429   1
  -1   6   5 346.093 21.7928  16
  -1   6   5 403.957 25.5076   1
  -1   6   5 359.572 23.9494   9
  -1   6   6 125.275 13.4384  16
  -1   6   6 125.160 14.6217   9
  -1   6   7 645.364 34.0553   9
  -1   6   7 599.150 33.1167   1
  -1   6   8 177.960 18.4951   9
  -1   6   8 191.285 19.1592   1
  -1   6   9 400.721 28.7752   1
  -1   6  10 30.4712 9.31494   1
  -1   6  12 35.7230 10.9204   7
  -1   7  -7 27.8925 10.9028  15
  -1   7  -6 26.2104 10.5627  15
  -1   7  -6 36.9428 11.7909  16
  -1   7  -5 2.30825 6.37585  16
  -1   7  -5 2.46316 5.89223  15
  -1   7  -4 10.8261 6.34545  16
  -1   7  -4 11.5535 6.77155  15
  -1   7  -3 278.918 25.5304  15
  -1   7  -3 240.006 23.2804  16
  -1   7  -2 190.895 20.0004  16
  -1   7  -1 391.043 27.4183  16
  -1   7   0 84.1042 13.2182  15
  -1   7   0 88.3656 13.1240  16
  -1   7   1 312.901 24.0945  15
  -1   7   1 311.761 23.4005  16
  -1   7   2 26.1987 7.82587  15
  -1   7   2 28.3772 7.70757  16
  -1   7   3 171.052 16.8649  16
  -1   7   4 5.28463 4.86632   1
  -1   7   4 6.10446 5.37417  16
  -1   7   5 493.996 28.6315  16
  -1   7   5 528.213 31.7645   9
  -1   7   5 481.890 30.5355   1
  -1   7   6 146.241 15.8577  16
  -1   7   6 153.493 17.4302   9
  -1   7   7 94.1301 14.5001   1
  -1   7   7 142.445 17.2761   9
  -1   7   8 38.3124 10.4378   1
  -1   7   8 47.8640 10.5059   9
  -1   7   9 268.188 24.8050   9
  -1   7   9 214.237 22.3730   1
  -1   7  10 88.9648 15.4100   1
  -1   7  11 32.5799 10.4246   1
  -1   8  -5 65.6104 14.7601  16
  -1   8  -5 85.3798 17.2540  15
  -1   8  -4 12.3893 8.38365  16
  -1   8  -4 7.85357 7.67086  15
  -1   8  -3 59.8520 14.2274  15
  -1   8  -3 63.1800 14.1137  16
  -1   8  -2 28.7958 9.43969  16
  -1   8  -2 35.7362 11.1670  15
  -1   8  -1 229.223 22.6369  16
  -1   8   0 317.301 26.2568  16
  -1   8   1 127.314 16.6254  16
  -1   8   1 123.402 17.0594  15
  -1   8   2 3.76004 4.85785  16
  -1   8   2 4.08940 5.28331  15
  -1   8   3 1.83696 4.39426  16
  -1   8   4 170.501 18.4951  16
  -1   8   4 187.015 20.5235   1
  -1   8   5 223.962 20.7807  16
  -1   8   5 221.359 22.3049   9
  -1   8   5 183.937 20.2168   1
  -1   8   6 167.426 19.8516   9
  -1   8   7 8.73999 7.39497   1
  -1   8   7 25.8763 9.18176   9
  -1   8   8 38.4169 11.0476   1
  -1   8   8 38.0251 11.1513   9
  -1   8   9 30.5327 10.2645   1
  -1   8   9 23.3781 9.95881   9
  -1   8  10 180.837 22.0218   1
  -1   8  11 88.6054 16.6319   1
  -1   9  -2 10.6841 9.03850  15
  -1   9  -2 20.2618 9.58181  16
  -1   9  -1 2.42283 5.79594  16
  -1   9  -1-7.66959 4.32468  15
  -1   9   0 61.7333 14.2782  15
  -1   9   0 30.2776 10.1882  16
  -1   9   1 24.8874 9.88739  16
  -1   9   2 107.700 17.3724  16
  -1   9   3 92.3711 15.1841  16
  -1   9   4 180.298 21.5974   1
  -1   9   4 137.744 18.4095  16
  -1   9   5 35.9573 10.7411   1
  -1   9   5 27.3113 9.41705  16
  -1   9   6 159.373 20.7699   9
  -1   9   7 46.9060 12.3029   1
  -1   9   7 26.6947 9.78371   9
  -1   9   8 20.1830 9.22298   1
  -1   9   8 19.9813 9.13090   9
  -1   9   9 5.19708 6.71442   1
  -1  10   2 121.009 18.5030  16
  -1  10   3 51.8300 13.0004  16
  -1  10   4 31.5890 10.6218  16
   0 -10  -8 33.7013 10.4994   4
   0 -10  -7-1.98035 6.11570   4
   0 -10  -7 2.47813 7.65295  21
   0 -10  -6 7.36406 8.64317  21
   0 -10  -6-3.72211 4.45188   4
   0 -10  -5 39.9728 9.90891   4
   0 -10  -5 29.1104 10.8676  21
   0 -10  -3 87.1464 15.8171  21
   0 -10  -2 53.0789 13.9131  21
   0 -10  -1 146.816 18.2891  22
   0 -10  -1 117.368 18.4049  21
   0 -10   0 44.0958 11.4367  22
   0 -10   0 50.5640 12.7188  21
   0 -10   1 68.1468 14.1265  21
   0 -10   1 45.3044 11.9380  22
   0  -9 -10 8.65949 7.91139   4
   0  -9  -9 88.2018 15.5734  21
   0  -9  -9 79.7723 14.4529   4
   0  -9  -8 52.2194 11.8212   4
   0  -9  -8 59.1210 13.0307  21
   0  -9  -7 158.519 19.7976  21
   0  -9  -7 163.221 18.1186   4
   0  -9  -6 30.4847 8.76012   4
   0  -9  -6 23.6207 8.90522  21
   0  -9  -5 65.6958 13.6226  21
   0  -9  -5 101.193 13.5131   4
   0  -9  -4 58.5384 13.4139  21
   0  -9  -4 58.6687 10.6550   4
   0  -9  -3 253.451 19.5466   4
   0  -9  -2 133.452 17.3118  21
   0  -9  -2 126.510 15.1777  22
   0  -9  -1 42.6022 10.5472  22
   0  -9  -1 55.5188 12.1118  21
   0  -9   0 19.3423 8.66023  21
   0  -9   0 18.6191 7.50180  22
   0  -9   1 22.2185 8.60673  22
   0  -9   1 33.8700 9.90320  21
   0  -9   2 27.2852 8.88470  21
   0  -9   2 8.70794 6.72652  22
   0  -9   3 27.9816 10.1915  22
   0  -8 -11 50.3610 12.1443   4
   0  -8 -10 5.94179 6.70077   4
   0  -8  -9 46.5569 10.7794   4
   0  -8  -8 193.639 19.8974  21
   0  -8  -7 217.871 21.2473  21
   0  -8  -7 244.150 20.6289   4
   0  -8  -6 411.538 28.5310  21
   0  -8  -6 342.016 23.7335   4
   0  -8  -5 321.458 25.4070  21
   0  -8  -5 338.591 22.9708   4
   0  -8  -4 247.905 22.1875  21
   0  -8  -4 245.477 18.7712   4
   0  -8  -3 2.41445 4.08417   4
   0  -8  -3 1.17282 3.79887  22
   0  -8  -3 7.07261 5.46054  21
   0  -8  -2 75.3262 10.7755  22
   0  -8  -2 65.9003 12.2613  21
   0  -8  -2 87.1930 10.6715   4
   0  -8  -1 8.50483 6.84928  21
   0  -8  -1 2.92721 4.74098  22
   0  -8   0 105.200 13.9318  21
   0  -8   0 125.014 14.6890  22
   0  -8   1 1.74989 4.83397  22
   0  -8   1 9.75102 6.14717  21
   0  -8   2 191.688 19.8955  22
   0  -8   2 198.742 18.7536  21
   0  -8   3 122.780 17.3937  22
   0  -8   5 23.4800 9.17797  22
   0  -7 -12 248.092 23.5919   4
   0  -7 -11 53.8034 11.5928   4
   0  -7 -10 149.851 17.4049   4
   0  -7  -9 18.5801 6.80626   4
   0  -7  -8 168.683 17.2985  21
   0  -7  -8 168.564 16.9514   4
   0  -7  -7 233.696 20.2294  21
   0  -7  -6 1063.98 44.1228  21
   0  -7  -6 1135.66 42.3324   4
   0  -7  -5 123.977 14.4031  21
   0  -7  -5 143.321 13.8027   4
   0  -7  -4 77.9351 8.44337  22
   0  -7  -4 76.0915 11.6566  21
   0  -7  -4 71.9926 9.81323   4
   0  -7  -3 4.26351 3.45243   4
   0  -7  -3-1.49344 4.83722  21
   0  -7  -3 1.93554 2.98881  22
   0  -7  -2 568.021 24.8630   4
   0  -7  -2 582.627 26.6540  22
   0  -7  -1 440.724 24.0235  22
   0  -7  -1 441.535 20.6192   4
   0  -7  -1 425.311 25.7759  21
   0  -7   0 184.729 16.3811  22
   0  -7   0 189.884 17.0569  21
   0  -7   0 213.428 13.3470   4
   0  -7   1 203.835 17.4316  21
   0  -7   1 175.746 16.8616  22
   0  -7   2 169.172 17.1766  22
   0  -7   2 215.291 17.6326  21
   0  -7   3 161.557 14.9493  21
   0  -7   4 53.5521 11.3864  22
   0  -7   5 156.066 18.7280  22
   0  -7   6 13.1940 6.79350  22
   0  -7   7 58.5650 13.7513  22
   0  -6 -13 2.26173 6.62630   3
   0  -6 -12 230.476 21.4178   4
   0  -6 -11 141.641 16.3241   4
   0  -6 -10 307.309 23.2113   4
   0  -6  -9 44.1290 9.41926   4
   0  -6  -8 106.334 12.5425  21
   0  -6  -8 66.0729 10.0615   4
   0  -6  -7 296.964 20.7663  21
   0  -6  -7 301.707 20.3253   4
   0  -6  -6 91.1656 11.0310   4
   0  -6  -6 51.4964 9.25872  21
   0  -6  -5 326.839 19.6627   4
   0  -6  -5 330.077 21.4222  21
   0  -6  -5 344.381 14.8145  25
   0  -6  -4 457.605 18.4021  22
   0  -6  -4 487.047 25.6840  21
   0  -6  -4 480.625 23.1239   4
   0  -6  -3 1516.27 40.0292  22
   0  -6  -3 1485.89 47.7561  21
   0  -6  -3 1463.78 42.3229   4
   0  -6  -2 70.1776 8.30697   4
   0  -6  -2 80.3919 8.81887  22
   0  -6  -2 72.8480 9.97593  21
   0  -6  -1 883.194 32.5449  22
   0  -6  -1 915.319 35.3477  21
   0  -6  -1 946.590 29.5194   4
   0  -6   0 283.777 14.2340   4
   0  -6   0 272.667 18.3422  21
   0  -6   0 272.485 18.1229  22
   0  -6   1 1322.29 32.5687   4
   0  -6   1 1186.57 39.8385   2
   0  -6   1 1303.67 42.3443  21
   0  -6   1 1267.19 43.6519  22
   0  -6   2 29.8944 6.68115  21
   0  -6   2 35.2822 6.99316   2
   0  -6   3 79.2477 9.93888   2
   0  -6   3 67.4480 9.10929  21
   0  -6   3 64.6214 10.6300  22
   0  -6   4 27.9387 6.24064  21
   0  -6   4 24.5236 7.49820  22
   0  -6   4 26.6937 6.61953   2
   0  -6   5 166.863 18.2433  22
   0  -6   5 158.884 14.3188   2
   0  -6   6 32.4516 8.95371  22
   0  -6   6 36.0142 7.70310   2
   0  -6   7 133.110 17.5360  22
   0  -6   8 124.405 17.7922  22
   0  -5 -13 36.9081 10.8236   3
   0  -5 -12 35.5428 8.57094  19
   0  -5 -11 397.278 24.1005  19
   0  -5 -11 419.741 26.6974   4
   0  -5 -10 158.114 13.9898  19
   0  -5 -10 129.486 14.2987   4
   0  -5  -9 1469.45 43.4893  19
   0  -5  -9 1543.44 50.1954   4
   0  -5  -8 32.5806 6.06208  19
   0  -5  -8 21.2673 5.74271   4
   0  -5  -7 239.078 16.9815   4
   0  -5  -7 198.832 12.3336  19
   0  -5  -7 235.204 11.3449  17
   0  -5  -6-1.05214 2.51686   4
   0  -5  -6 2.72749 2.60980  19
   0  -5  -5 1851.61 36.7813  25
   0  -5  -5 1871.68 38.0764  19
   0  -5  -5 1859.85 49.4729   4
   0  -5  -4 564.403 21.3794  12
   0  -5  -4 547.043 14.3912  19
   0  -5  -3 625.902 20.9792  22
   0  -5  -3 634.555 12.5735  19
   0  -5  -3 685.304 22.0664  12
   0  -5  -3 669.795 24.6323   4
   0  -5  -2 16.9029 3.96055   4
   0  -5  -2 21.2002 4.23279  22
   0  -5  -2 22.3604 3.72697  12
   0  -5  -2 15.7197 4.80516  21
   0  -5  -1 818.714 27.7539  22
   0  -5  -1 753.608 19.9228  12
   0  -5  -1 739.823 24.0722   4
   0  -5   0 1819.90 47.3907   2
   0  -5   0 1895.87 49.4229  22
   0  -5   0 1984.13 50.5990  21
   0  -5   0 1905.55 34.5695  12
   0  -5   0 1910.16 42.0923   4
   0  -5   1 833.519 30.0230  21
   0  -5   1 873.013 23.4321   4
   0  -5   2 485.410 24.4424  22
   0  -5   2 465.963 21.5124  21
   0  -5   2 468.137 21.6121   2
   0  -5   2 451.974 14.3530   4
   0  -5   3 23.8923 6.39004  22
   0  -5   3 26.0012 5.74551   2
   0  -5   3 22.3329 5.24949  21
   0  -5   4 138.113 14.4012  22
   0  -5   4 127.529 11.4745   2
   0  -5   4 139.989 11.3338  21
   0  -5   5 18.0980 6.58966  22
   0  -5   5 11.8503 4.62925   2
   0  -5   6 725.457 36.0087  22
   0  -5   6 679.584 28.0482   2
   0  -5   7 46.0484 10.2599  22
   0  -5   7 60.8499 10.9427  10
   0  -5   8 277.838 23.6723  22
   0  -5   8 264.572 22.2854  10
   0  -5   9 2.02878 5.24204  22
   0  -5   9 3.85266 5.94902  10
   0  -5  10 72.8097 14.0666  10
   0  -4 -14 20.2002 9.30375   3
   0  -4 -13 137.224 17.8072   3
   0  -4 -12 12.4489 6.26819  19
   0  -4 -11 269.371 19.9633  19
   0  -4 -10 557.495 27.2660  19
   0  -4 -10 564.821 24.4690  17
   0  -4 -10 575.173 28.8565   4
   0  -4  -9 1561.60 46.1560  19
   0  -4  -9 1603.26 42.2736  17
   0  -4  -9 1507.27 48.2473   4
   0  -4  -8 685.338 26.6218  19
   0  -4  -8 695.439 23.8972  17
   0  -4  -8 659.183 28.6825   4
   0  -4  -7 38.2821 6.62182   4
   0  -4  -7 34.2822 5.71003  19
   0  -4  -7 41.5079 5.25339  17
   0  -4  -6 415.274 17.0227  19
   0  -4  -6 429.369 20.7043   4
   0  -4  -5 36.3831 4.40562  19
   0  -4  -5 38.9457 2.63421  25
   0  -4  -4 858.216 20.2454  25
   0  -4  -4 845.644 25.9497  12
   0  -4  -4 854.520 20.8528  19
   0  -4  -4 849.287 27.6840   4
   0  -4  -3 226.352 9.98859  22
   0  -4  -3 220.889 11.2866  12
   0  -4  -3 222.909 7.50335  19
   0  -4  -2 3391.87 62.6241  22
   0  -4  -2 3474.26 60.5973  12
   0  -4  -2 3300.94 50.2781  19
   0  -4  -2 3377.62 64.6776   4
   0  -4  -1 13.5565 3.18642   4
   0  -4  -1 16.7517 3.60930  22
   0  -4  -1 22.2308 3.00016  12
   0  -4  -1 13.2352 3.20680   2
   0  -4   0 1493.34 38.7320  22
   0  -4   0 1466.30 38.8310  21
   0  -4   0 1529.76 28.2134  12
   0  -4   0 1593.09 38.6058   2
   0  -4   0 1539.85 33.4420   4
   0  -4   1 176.276 8.49395   4
   0  -4   1 200.616 12.3232  21
   0  -4   1 193.179 5.49869  12
   0  -4   1 198.845 9.91977  10
   0  -4   2 3472.64 74.2890  22
   0  -4   2 3515.93 68.9958  21
   0  -4   2 3443.27 65.9370  10
   0  -4   2 3381.22 69.0335   2
   0  -4   2 3466.82 57.5958   4
   0  -4   3 694.661 23.5478  21
   0  -4   3 665.974 23.7995  10
   0  -4   3 704.065 14.5031   4
   0  -4   3 676.135 24.4239   2
   0  -4   3 655.479 27.6399  22
   0  -4   4 1380.17 35.6093  21
   0  -4   4 1372.16 43.8681  22
   0  -4   4 1397.95 39.8897  10
   0  -4   4 1354.05 37.7353   2
   0  -4   5 14.1126 3.74665  21
   0  -4   5 12.6426 4.78532  22
   0  -4   5 12.0549 3.60130   2
   0  -4   5 13.4432 4.74028  10
   0  -4   6 253.586 19.1682  22
   0  -4   6 226.386 17.1074  10
   0  -4   6 213.686 13.9339   2
   0  -4   7 30.1686 7.80864  22
   0  -4   7 33.9561 6.10960   2
   0  -4   7 33.3438 7.56843  10
   0  -4   8 91.5211 13.2227  22
   0  -4   8 88.6802 12.6281  10
   0  -4   9 163.408 18.0075  10
   0  -4  10 11.9486 7.27864  10
   0  -4  11 24.2784 9.40153  10
   0  -3 -14 318.535 27.2917   3
   0  -3 -13 18.0780 8.28440  19
   0  -3 -13 25.7867 8.88048   3
   0  -3 -13 13.5412 6.06333  17
   0  -3 -12 172.868 18.3788   3
   0  -3 -12 180.257 16.4392  17
   0  -3 -12 173.883 17.5623  19
   0  -3 -11 34.6915 7.99758  19
   0  -3 -11 28.5712 7.18028  17
   0  -3 -10 608.965 29.4572  19
   0  -3 -10 663.547 27.6887  17
   0  -3  -9 19.4226 5.37848   4
   0  -3  -9 14.3887 5.40980  19
   0  -3  -9 17.1074 4.74127  17
   0  -3  -8 1583.77 41.2390  17
   0  -3  -8 1571.95 44.4288  19
   0  -3  -8 1538.98 44.7760   4
   0  -3  -7 19.3156 5.00239   4
   0  -3  -7 7.15730 3.29929  19
   0  -3  -7 13.9807 3.67540  17
   0  -3  -6 1332.30 34.3955  19
   0  -3  -6 1225.15 30.6176  17
   0  -3  -6 1242.94 35.9241   4
   0  -3  -5 159.810 10.8411   4
   0  -3  -5 147.777 9.00001  19
   0  -3  -4 5127.86 89.8612   4
   0  -3  -4 5081.40 83.1296  19
   0  -3  -4 4934.68 74.8455  25
   0  -3  -3 2444.64 48.8486  12
   0  -3  -3 2550.50 43.6600  19
   0  -3  -3 2545.55 42.7603  22
   0  -3  -3 2443.74 50.6404   4
   0  -3  -2 5118.34 82.0377  22
   0  -3  -2 4925.05 82.9919  12
   0  -3  -2 5076.36 76.1749  19
   0  -3  -1 6.56899 2.26551   4
   0  -3  -1 7.47240 2.29468  22
   0  -3  -1 9.56673 2.47826   2
   0  -3  -1 4.70812 1.51321  12
   0  -3  -1 4.96074 1.01260  11
   0  -3  -1 4.94959 1.51135  26
   0  -3   0 56.2242 3.47691  26
   0  -3   0 54.3519 3.79270  10
   0  -3   0 55.9298 5.43888   2
   0  -3   0 57.8154 3.32282  12
   0  -3   0 63.6788 4.72122   4
   0  -3   1 574.612 20.4177  22
   0  -3   1 580.481 19.0874  21
   0  -3   1 564.534 10.9040  12
   0  -3   1 571.459 14.3618   4
   0  -3   1 576.056 16.5051  10
   0  -3   2 543.801 12.4316   4
   0  -3   2 518.617 20.6258  22
   0  -3   2 525.100 17.9779  21
   0  -3   2 547.345 17.9338  10
   0  -3   2 521.787 18.3017   2
   0  -3   3 3433.81 51.3780   4
   0  -3   3 3493.54 71.5817  22
   0  -3   3 3319.69 66.2314  10
   0  -3   3 3341.97 62.6234  21
   0  -3   3 3333.83 64.9857   2
   0  -3   4 956.926 32.6269  22
   0  -3   4 953.476 30.2160  10
   0  -3   4 946.948 24.7332  21
   0  -3   4 936.595 27.0851   2
   0  -3   5 996.979 34.5789  22
   0  -3   5 891.820 23.7120  21
   0  -3   5 951.987 32.4761  10
   0  -3   5 915.928 27.3244   2
   0  -3   6 26.4583 6.17542  22
   0  -3   6 35.3409 5.47335   2
   0  -3   7 1074.68 39.5896   6
   0  -3   7 1016.64 38.8277  22
   0  -3   7 1049.12 39.2814  10
   0  -3   7 1062.79 30.9089   2
   0  -3   8 20.8684 6.37904   6
   0  -3   8 15.1944 5.88693  22
   0  -3   8 27.5430 7.36164  10
   0  -3   9 314.225 23.4843  10
   0  -3  10 9.24178 5.98811  10
   0  -3  11 165.230 19.5913  10
   0  -2 -14 277.471 24.0835  17
   0  -2 -13 199.050 18.9455  17
   0  -2 -12 480.647 29.8556   3
   0  -2 -12 451.714 28.8238  19
   0  -2 -12 483.842 28.0336  17
   0  -2 -11 22.6172 7.36660  19
   0  -2 -11 14.1279 6.32553   3
   0  -2 -11 17.0605 6.01634  17
   0  -2 -10 1.32929 2.90284  19
   0  -2 -10 2.30791 4.06323  17
   0  -2  -9 18.5736 5.78398  19
   0  -2  -9 11.0042 4.88882  17
   0  -2  -8 559.572 25.0787  19
   0  -2  -8 590.936 23.7533  17
   0  -2  -8 571.793 23.6193   4
   0  -2  -7 3153.45 67.1129  19
   0  -2  -7 3005.10 63.3564  17
   0  -2  -7 3046.03 64.6446   4
   0  -2  -6 1263.58 34.2520  19
   0  -2  -6 1252.61 32.1414  17
   0  -2  -6 1182.12 33.0134   4
   0  -2  -5 2926.27 58.0307   4
   0  -2  -5 2910.29 57.2985  19
   0  -2  -5 2868.17 54.7123  17
   0  -2  -4 386.371 14.9074   4
   0  -2  -4 380.958 13.7329  19
   0  -2  -4 385.344 15.0118  12
   0  -2  -3 5399.19 90.9868   4
   0  -2  -3 5448.13 90.6403  12
   0  -2  -3 5571.82 87.2983  19
   0  -2  -2 1654.16 28.1039  22
   0  -2  -2 1642.01 28.5309  19
   0  -2  -2 1617.80 32.9719   4
   0  -2  -1 10474.8 158.750   4
   0  -2  -1 10915.4 159.621   2
   0  -2  -1 10378.1 156.226  12
   0  -2   0 6032.03 90.8203  26
   0  -2   0 6133.24 97.1354  22
   0  -2   0 6062.35 96.1810   2
   0  -2   0 6073.44 89.9966  12
   0  -2   0 6125.36 91.2306  10
   0  -2   1 66.5775 5.63488  22
   0  -2   1 66.0747 5.09338  21
   0  -2   1 57.9997 4.20320  10
   0  -2   2 188.962 10.4732  22
   0  -2   2 219.642 8.94455  21
   0  -2   2 203.853 9.16523   2
   0  -2   3 4378.10 82.6010   6
   0  -2   3 4644.89 84.3643  22
   0  -2   3 4670.59 77.9527   2
   0  -2   3 4629.26 74.8453  21
   0  -2   4 1184.21 33.2600   6
   0  -2   4 1155.32 33.2533  22
   0  -2   4 1137.42 24.3965  21
   0  -2   4 1145.82 27.7235   2
   0  -2   5 3533.38 73.3129   6
   0  -2   5 3610.67 73.5461  22
   0  -2   5 3405.49 53.5095  13
   0  -2   5 3623.30 73.4239  10
   0  -2   5 3574.53 64.5577   2
   0  -2   5 3602.23 58.2922  21
   0  -2   6 371.713 19.4483   6
   0  -2   6 393.184 19.8689  22
   0  -2   6 364.009 19.7232  10
   0  -2   6 343.147 14.2320   2
   0  -2   7 462.222 23.2644   6
   0  -2   7 450.284 22.6141  22
   0  -2   7 460.357 23.7292  10
   0  -2   7 419.447 16.3942   2
   0  -2   8 120.756 12.6023   6
   0  -2   8 100.381 12.1317  10
   0  -2   9 50.8127 9.41168   6
   0  -2   9 43.7146 9.09905  10
   0  -2  10 381.581 25.1965   6
   0  -2  10 381.355 26.3692  10
   0  -2  11 54.4480 10.4813   6
   0  -2  11 80.0209 13.7025  10
   0  -2  12 38.3954 11.0361  10
   0  -1 -14 1.97326 5.09852  17
   0  -1 -13 262.177 23.0977  17
   0  -1 -12 8.79576 5.95204  19
   0  -1 -12 6.48189 5.00543  17
   0  -1 -11 237.322 20.2254  19
   0  -1 -11 279.089 20.7868  17
   0  -1 -10 1.38808 4.06672  19
   0  -1 -10 7.99357 4.86811   3
   0  -1 -10-1.27289 2.77963  17
   0  -1  -9 1139.65 40.7795  19
   0  -1  -9 1232.00 40.5711  17
   0  -1  -8 26.2626 5.90389  19
   0  -1  -8 23.8704 5.44853  17
   0  -1  -7 4070.66 84.7652  19
   0  -1  -7 4309.24 83.9377  17
   0  -1  -7 4317.27 79.7599   4
   0  -1  -6 203.517 12.6416  19
   0  -1  -6 186.380 11.6611  17
   0  -1  -6 202.704 11.0039   4
   0  -1  -5 724.607 23.3577  19
   0  -1  -5 770.498 22.9001  17
   0  -1  -5 787.110 21.9872   4
   0  -1  -4 126.793 7.32639   4
   0  -1  -4 124.514 7.96471  19
   0  -1  -4 116.221 7.14042  17
   0  -1  -3 3772.31 64.3632  19
   0  -1  -3 3801.43 64.8991  12
   0  -1  -3 3825.80 63.9806   4
   0  -1  -2 145.260 6.31708  12
   0  -1  -2 139.826 5.74427  19
   0  -1  -2 136.449 6.13669   4
   0  -1  -1 3979.48 61.1437  12
   0  -1  -1 3966.08 61.7739   4
   0  -1   0 3603.63 56.9236  22
   0  -1   0 3667.22 56.5783   2
   0  -1   1 2503.29 42.6384   6
   0  -1   1 2428.16 42.8925  22
   0  -1   1 2478.85 40.7867   2
   0  -1   2 4978.13 79.4981   2
   0  -1   2 4911.07 83.1803  22
   0  -1   3 13.1215 2.64330  23
   0  -1   3 12.8303 2.77574  22
   0  -1   3 18.9335 1.84968  21
   0  -1   3 15.6212 2.29472   2
   0  -1   4 2033.81 43.1584  23
   0  -1   4 2027.59 43.6789  22
   0  -1   4 2062.43 38.3832   2
   0  -1   4 2038.21 44.5602   6
   0  -1   5 810.257 20.5720   2
   0  -1   5 852.985 25.7897  22
   0  -1   5 801.973 26.2809   6
   0  -1   5 801.056 24.9152  23
   0  -1   6 2265.74 43.6765   2
   0  -1   6 2201.29 50.6023  23
   0  -1   6 2348.40 52.0925  22
   0  -1   6 2191.58 53.2947   6
   0  -1   7 223.445 14.1240  22
   0  -1   7 219.936 14.9980   6
   0  -1   7 235.274 14.3618  23
   0  -1   7 193.891 14.6799  10
   0  -1   7 213.748 10.1203   2
   0  -1   8 929.715 32.2309  23
   0  -1   8 955.159 35.2506   6
   0  -1   8 997.908 37.3390  10
   0  -1   9 27.6229 6.09737  23
   0  -1   9 31.1236 7.00158   6
   0  -1  10 835.716 35.9814   6
   0  -1  10 759.071 36.3240  10
   0  -1  11 22.9082 7.31046   6
   0  -1  11 12.3739 6.46368  10
   0  -1  12 192.115 20.8296  10
   0   0 -13 111.648 15.7369  17
   0   0 -12 102.940 14.6771  17
   0   0 -11 646.186 34.1599  19
   0   0 -11 673.939 34.2933  17
   0   0 -10 227.696 18.7676  19
   0   0 -10 202.603 17.6428  17
   0   0  -9 535.368 27.4614  19
   0   0  -9 560.314 27.5735  17
   0   0  -8 264.724 17.6274  19
   0   0  -8 287.964 17.5529   3
   0   0  -8 296.452 18.4212  17
   0   0  -7 111.285 10.7613  19
   0   0  -7 96.6977 9.90822  17
   0   0  -6 1501.44 40.1103  19
   0   0  -5 6.25895 2.03476   4
   0   0  -5 1.92733 2.08165  19
   0   0  -4 627.946 19.8740  19
   0   0  -4 625.934 19.7856  17
   0   0  -4 671.041 16.6841   4
   0   0  -3 1973.64 38.5935  19
   0   0  -3 1970.05 38.4080  17
   0   0  -3 1956.93 34.5734   4
   0   0  -2 979.255 20.5757  19
   0   0  -2 982.859 20.6425  17
   0   0  -2 969.608 18.0799   4
   0   0  -1 4367.08 65.8536  19
   0   0  -1 4376.06 65.8729  17
   0   0   1 4659.51 69.9662   7
   0   0   1 4581.69 69.3310   6
   0   0   2 970.716 20.9949   7
   0   0   2 958.601 18.5333  22
   0   0   2 885.471 19.7355   6
   0   0   3 1960.03 40.1684   7
   0   0   3 1981.31 33.9986  14
   0   0   3 1980.77 36.1912  22
   0   0   3 1976.66 37.5705  23
   0   0   4 589.276 18.7132  23
   0   0   4 641.293 17.5440  22
   0   0   4 607.814 19.3435   6
   0   0   4 624.604 15.1710  14
   0   0   4 612.645 20.7761   7
   0   0   5 5.61179 2.32750  23
   0   0   5 9.79339 2.53706  22
   0   0   5 8.53008 1.93096  14
   0   0   5 5.54689 2.48387   6
   0   0   6 1463.62 38.2102  23
   0   0   6 1597.09 36.3773  22
   0   0   6 1540.70 40.3213   6
   0   0   7 94.6431 9.14360  23
   0   0   7 104.801 6.42926   2
   0   0   7 114.068 10.3949   6
   0   0   8 284.866 16.7498  23
   0   0   8 308.621 18.4210   6
   0   0   9 557.762 25.3581  23
   0   0   9 602.708 27.8057   6
   0   0  10 194.410 16.5481   6
   0   0  11 668.986 32.8873   6
   0   0  11 759.336 36.9523  10
   0   0  12 97.5598 14.3349  10
   0   0  13 83.6578 14.5548  10
   0   1 -13 2.12082 5.85812  17
   0   1 -12 193.257 20.1597  17
   0   1 -11 22.6391 7.98327  17
   0   1 -10 752.045 35.6603  19
   0   1 -10 744.187 35.7021  17
   0   1  -9 45.3054 8.45770  19
   0   1  -8 888.167 34.3875  19
   0   1  -7 234.609 15.7209  19
   0   1  -7 225.046 15.7610  17
   0   1  -6 2329.67 50.5133   3
   0   1  -6 2310.87 54.6370  19
   0   1  -6 2269.90 55.1268  17
   0   1  -5 883.608 24.4200   3
   0   1  -5 817.676 26.4651  19
   0   1  -5 820.698 27.0938  17
   0   1  -4 2059.44 44.6518  19
   0   1  -4 2120.07 41.4265   3
   0   1  -4 2109.03 45.9097  17
   0   1  -3 13.6209 2.85605  19
   0   1  -3 13.0432 2.24224   3
   0   1  -3 11.8321 2.85149  17
   0   1  -2 5213.81 78.7804   3
   0   1  -2 5066.43 81.9812  19
   0   1  -2 5145.63 83.6379  17
   0   1  -1 2523.60 40.4747  19
   0   1  -1 2487.08 42.0218  17
   0   1  -1 2444.10 43.4500  16
   0   1   0 3622.44 58.3186  15
   0   1   0 3700.33 58.0015  16
   0   1   1 3923.11 61.7265  16
   0   1   2 141.739 6.61801   1
   0   1   2 145.536 6.63690  16
   0   1   2 147.354 7.02345   9
   0   1   3 3869.56 58.0514  22
   0   1   3 3873.26 66.9000  16
   0   1   4 132.798 9.07464   7
   0   1   4 124.656 6.32484  14
   0   1   4 132.479 5.25342  22
   0   1   4 114.872 7.57637  23
   0   1   5 734.811 25.3735   7
   0   1   5 730.162 18.9076  14
   0   1   5 733.668 23.1681  23
   0   1   5 759.754 17.5082  22
   0   1   6 170.512 12.7515   7
   0   1   6 162.311 11.1088  23
   0   1   6 180.351 11.9287   6
   0   1   6 177.751 8.66659  14
   0   1   7 4240.74 84.7434   6
   0   1   7 4282.12 83.4173  23
   0   1   7 4085.22 88.9642   7
   0   1   7 4226.28 72.7225  14
   0   1   8 12.5857 2.72039  14
   0   1   8 13.8407 5.49849   7
   0   1   8 9.98068 4.13958   6
   0   1   8 20.3517 4.86867  23
   0   1   9 1209.28 39.5360  23
   0   1   9 1205.03 40.6082   6
   0   1   9 1292.33 42.4091  10
   0   1  10 3.46702 3.38604  23
   0   1  10 3.80680 3.50523   6
   0   1  10 1.33351 3.44572  10
   0   1  11 295.167 21.1985   6
   0   1  11 303.242 22.1693  10
   0   1  12 17.0574 6.87241  10
   0   1  13 322.764 25.7762  10
   0   1  14 10.5589 7.43723  10
   0   2 -13-2.37029 4.62963  16
   0   2 -12 43.9405 11.7681  16
   0   2 -11 60.3363 11.9776  16
   0   2 -10 371.497 26.0871  17
   0   2 -10 355.389 26.3603  16
   0   2  -9 56.3106 10.3279  17
   0   2  -8 107.150 12.3666  17
   0   2  -8 110.677 12.1525  19
   0   2  -7 466.564 24.3201  17
   0   2  -7 455.002 22.9283  19
   0   2  -6 356.350 19.5959  17
   0   2  -6 383.737 19.1733  19
   0   2  -5 3430.68 70.1897  19
   0   2  -5 3568.11 73.5782  17
   0   2  -4 1114.52 30.5040  19
   0   2  -4 1190.05 33.1401  17
   0   2  -3 4636.27 73.7621   3
   0   2  -3 4731.63 80.2546  19
   0   2  -3 4603.36 83.4140  17
   0   2  -2 210.109 8.89981  19
   0   2  -2 205.634 10.0062  17
   0   2  -2 224.048 11.5359  16
   0   2  -1 62.0865 4.82656  17
   0   2  -1 67.5480 5.70806  16
   0   2   0 6015.52 96.9185  15
   0   2   0 5840.93 87.3689   5
   0   2   0 5989.82 96.1923  16
   0   2   1 10587.1 162.486  15
   0   2   1 10668.9 161.760  16
   0   2   1 10511.9 156.034   8
   0   2   2 1628.75 26.7509  18
   0   2   2 1638.83 34.0725  16
   0   2   3 5465.89 91.8812  16
   0   2   3 5434.91 93.1928   9
   0   2   4 377.734 15.4626   1
   0   2   4 369.571 15.3567  16
   0   2   5 2866.24 59.2650  23
   0   2   5 2854.12 60.2260  16
   0   2   5 3023.87 60.6695   1
   0   2   6 1189.46 34.4665  23
   0   2   6 1222.85 37.6177   7
   0   2   7 2964.99 65.0377  23
   0   2   7 2981.13 56.6903  14
   0   2   8 603.057 25.8644  23
   0   2   8 593.234 25.9899   6
   0   2   8 583.245 19.7827  14
   0   2   8 542.382 27.4842   7
   0   2   9 7.21160 4.22871   7
   0   2   9 16.5265 5.27357  23
   0   2   9 11.4488 4.87620   6
   0   2   9 12.6887 4.50401  10
   0   2  10 3.30630 4.27179   7
   0   2  10 6.06309 4.43133  23
   0   2  10 2.56154 3.75279   6
   0   2  10 6.12231 4.31186  10
   0   2  11 14.1279 5.69600   6
   0   2  11 26.6067 7.37016  10
   0   2  11 26.1411 8.15998   7
   0   2  12 525.312 30.0085  10
   0   2  13 174.313 18.7903  10
   0   2  14 278.439 24.6346  10
   0   3 -12 11.8256 7.66228  16
   0   3 -11 139.254 18.1351  17
   0   3 -11 122.692 17.3487  16
   0   3 -10 12.0359 7.06486  16
   0   3 -10 9.39738 6.86926  17
   0   3  -9 294.965 24.0741  16
   0   3  -9 284.492 22.6130  17
   0   3  -8 18.0243 6.60708  16
   0   3  -8 35.9339 8.40689  17
   0   3  -7 937.625 37.9662  17
   0   3  -7 1063.98 41.8616  16
   0   3  -6 49.3072 8.33264  16
   0   3  -6 40.0903 7.18960  17
   0   3  -5 983.262 33.6969  17
   0   3  -5 886.663 34.3745  16
   0   3  -4 938.236 30.9129  17
   0   3  -3 3378.68 67.9233  17
   0   3  -2 523.023 18.7263  17
   0   3  -2 555.406 21.7254  16
   0   3  -1 551.397 20.4679  16
   0   3   0 55.9315 6.17750  15
   0   3   0 52.4220 3.10679   5
   0   3   0 60.7252 6.11853  16
   0   3   1 7.14455 1.95102   8
   0   3   1 1.76000 1.90103  15
   0   3   1 3.34151 1.96179  16
   0   3   2 5006.58 87.7666  16
   0   3   2 4942.71 79.1037   8
   0   3   3 2538.66 52.6998  16
   0   3   3 2486.20 53.4251   9
   0   3   4 4974.05 90.2932  16
   0   3   4 4895.63 90.2473   1
   0   3   4 4862.49 91.6389   9
   0   3   5 151.611 11.0510   1
   0   3   5 163.534 11.6269  16
   0   3   5 177.310 12.5890   9
   0   3   6 1268.54 37.4344   1
   0   3   6 1262.95 37.9098  16
   0   3   7 11.6975 4.04155   1
   0   3   7 12.4994 3.87432  23
   0   3   7 8.03930 3.54153  16
   0   3   8 1622.17 47.3109  23
   0   3   8 1632.29 42.6838  10
   0   3   8 1545.68 50.4371   7
   0   3   9 13.4054 5.44462   7
   0   3   9 7.18369 4.05306  23
   0   3   9 13.3781 5.28100  10
   0   3  10 644.702 34.0477   7
   0   3  10 624.892 30.0066  23
   0   3  10 580.457 29.2630   6
   0   3  10 658.317 28.5435  10
   0   3  11 28.3854 7.34962  23
   0   3  11 43.5591 8.86794   6
   0   3  11 38.5234 8.33195  10
   0   3  11 26.2107 8.78132   7
   0   3  12 190.778 18.1440   6
   0   3  12 196.497 18.0177  10
   0   3  12 161.476 19.2786   7
   0   3  13 27.9760 8.66350  10
   0   3  14 304.237 24.9157  10
   0   4 -11 38.0580 11.3926  16
   0   4 -10 17.6799 8.08159  16
   0   4 -10 30.8024 10.4252  17
   0   4  -9 203.853 20.3779  17
   0   4  -9 144.106 18.3265  16
   0   4  -8 78.0652 12.5155  17
   0   4  -8 90.6790 13.6958  16
   0   4  -7 26.8466 8.03636  16
   0   4  -7 26.5569 7.21398  17
   0   4  -6 206.397 16.9634  17
   0   4  -6 196.291 17.5554  16
   0   4  -5 19.0035 6.08027  16
   0   4  -5 18.0707 5.40969  17
   0   4  -4 1355.96 41.0886  17
   0   4  -3 666.962 25.0309  17
   0   4  -3 551.240 26.0628  16
   0   4  -2 3299.83 74.7931  15
   0   4  -2 3392.57 74.4207  16
   0   4  -1 193.630 13.4895  16
   0   4   0 1549.85 35.5296   8
   0   4   0 1505.79 41.0986  16
   0   4   1 9.69370 3.35104  15
   0   4   1 13.9222 3.85501  16
   0   4   1 11.9110 2.79167   8
   0   4   2 3416.66 70.5822  15
   0   4   2 3340.51 69.8253  16
   0   4   2 3405.14 59.7332   8
   0   4   3 233.838 8.59049  18
   0   4   3 239.850 14.2370  16
   0   4   4 787.183 28.6802   1
   0   4   4 886.166 16.7130  10
   0   4   4 797.732 28.4259  16
   0   4   4 825.800 29.8146   9
   0   4   5 28.5970 5.64136   1
   0   4   5 31.5121 3.25319  10
   0   4   5 23.6659 5.20250   9
   0   4   5 30.9103 5.97029  16
   0   4   6 426.775 21.4104   1
   0   4   6 459.251 15.2757  10
   0   4   6 411.568 21.3335  16
   0   4   6 458.808 23.1720   9
   0   4   7 44.1659 5.34930  10
   0   4   7 35.0669 6.87410   1
   0   4   7 33.1439 6.58541  16
   0   4   8 713.817 30.7634  23
   0   4   8 696.138 23.9980  10
   0   4   8 613.217 29.1344  16
   0   4   8 621.362 28.9228   1
   0   4   9 1590.27 51.0229  23
   0   4   9 1588.23 54.3477   7
   0   4   9 1665.60 43.8867  10
   0   4  10 527.599 31.5057   7
   0   4  10 556.612 29.5417  23
   0   4  10 596.372 25.7129  10
   0   4  11 254.034 22.8600   7
   0   4  11 266.335 21.2690  23
   0   4  11 239.331 20.1100   6
   0   4  11 269.689 18.5688  10
   0   4  12 2.13749 6.60114   7
   0   4  12 3.30127 5.34648   6
   0   4  12 4.02730 5.24413  10
   0   4  13 143.120 19.5473   7
   0   4  14 23.0819 10.0236   7
   0   5 -10 94.5061 17.1172  16
   0   5  -9 6.76458 6.22902  16
   0   5  -8 270.848 24.4622  16
   0   5  -7 47.8118 10.7502  16
   0   5  -6 763.459 38.3496  16
   0   5  -5 23.9545 7.48704  16
   0   5  -4 142.329 15.0690  15
   0   5  -3 17.9318 6.03137  15
   0   5  -3 23.8689 6.35088  16
   0   5  -2 503.747 25.6585  16
   0   5  -2 450.465 24.7958  15
   0   5  -1 811.274 32.2929  16
   0   5  -1 818.554 33.2325  15
   0   5   0 1876.01 51.6906  16
   0   5   1 801.631 30.6180  16
   0   5   2 11.8983 3.99592  16
   0   5   3 670.319 27.4096  16
   0   5   4 562.955 14.1696  18
   0   5   4 498.685 24.1278  16
   0   5   4 539.553 25.4557   9
   0   5   5 1798.95 50.6407  16
   0   5   5 1790.62 51.6817   9
   0   5   5 1774.20 51.2678   1
   0   5   6 5.01517 3.87297   9
   0   5   6 6.95717 4.23784  16
   0   5   6 7.08084 4.15632   1
   0   5   7 190.933 15.8962   1
   0   5   7 238.194 17.7745  16
   0   5   7 208.681 17.5301   9
   0   5   8 37.8799 7.94943   1
   0   5   8 47.3829 8.69003  16
   0   5   9 1433.07 50.3655  16
   0   5   9 1529.54 51.8308  23
   0   5   9 1468.74 50.7012   1
   0   5  10 160.381 16.4799  23
   0   5  11 405.779 29.8761   7
   0   5  11 404.030 27.1294  23
   0   5  12 31.1491 9.72710   7
   0   5  13 41.1320 12.0622   7
   0   6  -9 69.8340 15.2426  16
   0   6  -8 144.795 19.9879  16
   0   6  -7 125.851 17.4306  16
   0   6  -7 117.984 17.6716  15
   0   6  -6 33.4978 10.0263  15
   0   6  -6 30.1847 9.01669  16
   0   6  -5 194.789 20.0037  15
   0   6  -5 165.454 18.2401  16
   0   6  -4 24.8897 8.15103  15
   0   6  -3 52.7530 9.89887  16
   0   6  -3 47.6343 9.65060  15
   0   6  -2 35.8871 8.01844  16
   0   6  -2 45.7919 9.08505  15
   0   6  -1 1346.10 47.5495  15
   0   6  -1 1284.58 45.9199  16
   0   6   0 335.915 21.8989  15
   0   6   0 287.500 20.0173  16
   0   6   1 870.309 35.1976  16
   0   6   1 873.436 35.6175  15
   0   6   2 57.0825 8.85933  16
   0   6   3 1485.24 47.5276  16
   0   6   4 466.982 25.1788  16
   0   6   5 327.414 21.2737  16
   0   6   5 351.790 22.5167   9
   0   6   5 379.420 23.3038   1
   0   6   6 81.2612 10.9641  16
   0   6   6 79.2530 11.3133   9
   0   6   6 77.0804 10.9208   1
   0   6   7 306.046 21.6789   1
   0   6   7 303.285 21.4334  16
   0   6   7 296.426 22.3142   9
   0   6   8 83.4142 11.9824  16
   0   6   8 68.4958 11.2292   9
   0   6   8 61.5580 10.7789   1
   0   6   9 24.4949 7.98639   1
   0   6   9 42.2300 9.52771  16
   0   6  10 270.034 22.6842  23
   0   6  10 297.395 23.2529   1
   0   6  11 124.249 16.1924  23
   0   6  12 230.848 24.4610   7
   0   6  12 265.347 23.9251  23
   0   6  13 15.1291 8.88106   7
   0   7  -8 8.06684 8.30476  15
   0   7  -7 68.1406 15.0227  15
   0   7  -7 68.3785 14.9248  16
   0   7  -6 2.35753 5.63986  15
   0   7  -6 9.18820 7.44028  16
   0   7  -5 118.639 17.0928  16
   0   7  -5 160.588 20.0158  15
   0   7  -4 24.6335 8.51236  15
   0   7  -3 171.226 18.9438  15
   0   7  -2 195.744 19.7419  15
   0   7  -2 192.286 19.0064  16
   0   7  -1 172.256 17.8778  15
   0   7  -1 159.772 17.2290  16
   0   7   0 182.691 17.5996  16
   0   7   0 164.913 17.2016  15
   0   7   1 381.359 25.2202  15
   0   7   1 428.907 26.5874  16
   0   7   2 579.941 30.8592  16
   0   7   2 555.294 30.4296  15
   0   7   3 5.98310 4.62002  16
   0   7   4 67.5277 10.9101  16
   0   7   5 111.660 14.0437   1
   0   7   5 108.416 13.5108  16
   0   7   6 1194.89 46.2782  16
   0   7   6 1049.82 44.7236   9
   0   7   6 1147.87 46.4180   1
   0   7   7 259.916 21.9484   1
   0   7   7 281.283 22.2800  16
   0   7   7 248.722 21.4146   9
   0   7   8 194.828 19.2808   1
   0   7   8 209.776 19.6282  16
   0   7   8 174.702 18.7089   9
   0   7   9 16.5646 7.19080   1
   0   7   9 5.42043 5.29509  16
   0   7  10 109.902 15.4907   1
   0   7  11 45.2291 11.0123  23
   0   7  11 38.2314 10.2275   1
   0   7  12 223.596 23.5023  23
   0   7  12 226.407 24.8313   7
   0   8  -6 49.6928 13.2903  15
   0   8  -5 24.6049 9.61639  16
   0   8  -5 19.8023 8.72124  15
   0   8  -4 316.116 28.2696  15
   0   8  -3 164.346 20.2472  15
   0   8  -2 177.403 20.2397  16
   0   8  -2 188.154 20.8068  15
   0   8  -1-2.00149 4.37065  15
   0   8  -1 7.95292 6.43974  16
   0   8   0 112.450 15.4338  16
   0   8   0 116.578 15.3624  15
   0   8   1 7.41400 5.43059  16
   0   8   1 1.84883 5.10714  15
   0   8   2 77.8099 12.5484  16
   0   8   2 85.0867 13.1618  15
   0   8   3 1.78339 4.26613  16
   0   8   4 256.141 22.1338  16
   0   8   5 311.284 25.2884   1
   0   8   5 326.499 24.8776  16
   0   8   6 362.577 26.7157  16
   0   8   6 360.009 27.2161   1
   0   8   7 273.936 23.8591   1
   0   8   7 264.231 23.0958  16
   0   8   7 245.687 23.0285   9
   0   8   8 191.153 20.5046   1
   0   8   8 210.694 21.1300  16
   0   8   8 172.327 20.0488   9
   0   8   9 62.2166 12.6694   1
   0   8   9 37.2932 10.5209   9
   0   8   9 62.6822 12.5103  16
   0   8  10 8.60449 6.96838   1
   0   8  11 50.1567 12.2176  23
   0   8  11 55.6176 12.5029   1
   0   8  12 14.1577 7.98447  23
   0   8  12 11.4372 7.41099   1
   0   9  -4 94.6595 17.2776  15
   0   9  -3 40.0791 12.4864  15
   0   9  -2 16.7400 8.42287  15
   0   9  -2 12.0359 8.47832  16
   0   9  -1 2.30926 5.04345  16
   0   9  -1 18.2687 8.92078  15
   0   9   0 15.6452 7.56506  16
   0   9   0 19.8227 8.33417  15
   0   9   1 43.5134 11.2657  16
   0   9   1 59.9763 12.7443  15
   0   9   2 121.138 17.3249  16
   0   9   3 294.998 25.7777  16
   0   9   4 60.2868 12.7070  16
   0   9   5 84.5320 15.2631   1
   0   9   5 91.6760 15.0093  16
   0   9   5 102.012 15.9955   9
   0   9   6 49.2934 11.7970   1
   0   9   6 34.7545 10.8312   9
   0   9   6 37.9312 10.0977  16
   0   9   7 155.096 19.1868  16
   0   9   7 169.824 20.3960   1
   0   9   8 64.1527 13.8092   1
   0   9   8 37.4477 10.7770  16
   0   9   9 86.2774 15.4851   1
   0   9   9 72.4558 14.7719   9
   0   9  10-2.39703 6.19346   1
   0   9  11 17.1895 10.1772   1
   0  10  -1 51.2840 13.7348  15
   0  10   0 37.3858 12.1842  15
   0  10   0 46.3169 12.8267  16
   0  10   1 132.742 19.9592  16
   0  10   2 63.7078 13.9820  16
   0  10   3 106.269 17.3973  16
   0  10   4 28.7097 10.9663  16
   0  10   5 38.5553 11.5436   9
   0  10   5 33.4412 10.7060  16
   0  10   5 61.2854 14.3375   1
   0  10   6 5.12129 6.61612   1
   0  10   6 2.44494 6.75334   9
   0  10   6-2.40028 5.24147  16
   0  10   7-2.57287 5.02531   1
   0  10   7-2.49392 5.44605   9
   0  10   7-2.43598 5.31952  16
   0  10   8 28.4681 11.3096   1
   0  10   8 27.1963 10.8050  16
   1 -10  -6 21.7025 8.62206   4
   1 -10  -5 25.6775 8.40903   4
   1 -10  -3 55.9997 13.4099  21
   1 -10  -2 107.546 18.0129  21
   1 -10  -1 101.519 16.4765  25
   1 -10   0 14.3368 8.08599  25
   1  -9 -10 43.5459 12.1658   3
   1  -9  -9 4.42020 7.47690   4
   1  -9  -8 33.3638 10.1890   4
   1  -9  -8 21.2339 9.50744  21
   1  -9  -7 52.9532 11.8308   4
   1  -9  -7 54.0856 13.2138  21
   1  -9  -6 126.123 18.6203  21
   1  -9  -6 132.067 17.0920   4
   1  -9  -5 39.3209 11.7561  21
   1  -9  -5 54.5135 11.3031   4
   1  -9  -4 144.008 19.9210  21
   1  -9  -4 116.072 14.8794   4
   1  -9  -2 110.849 17.2778  21
   1  -9  -2 141.558 16.7890  25
   1  -9  -1 34.8075 10.6298  21
   1  -9  -1 23.5977 8.38014  25
   1  -9   0 62.2138 12.9342  21
   1  -9   0 40.6822 11.4749  25
   1  -9   1 2.12441 5.48907  21
   1  -9   2 12.4378 8.09952  21
   1  -8 -11 70.3188 14.1073   3
   1  -8 -10 207.661 21.6955   3
   1  -8 -10 226.857 23.5999   4
   1  -8  -9 27.5485 8.79517   3
   1  -8  -8 42.2770 10.4656   4
   1  -8  -8 33.0067 9.88725  21
   1  -8  -8 51.3717 10.3793   3
   1  -8  -7 7.19399 5.82674   4
   1  -8  -7 14.3687 7.50167  21
   1  -8  -7 8.86779 5.77492   3
   1  -8  -6 193.050 18.9635   4
   1  -8  -6 195.417 20.5544  21
   1  -8  -5 227.574 22.1904  21
   1  -8  -5 199.331 18.4291   4
   1  -8  -4 143.179 18.2825  21
   1  -8  -4 205.021 17.7728   4
   1  -8  -3 1.30670 3.37626   4
   1  -8  -3 1.39940 3.86543  25
   1  -8  -3 1.96082 6.05541  21
   1  -8  -2 8.23710 4.59757   4
   1  -8  -2 4.65957 4.79744  25
   1  -8  -1 155.472 18.0861  21
   1  -8   0 338.418 26.1233  21
   1  -8   1 249.272 22.1321  21
   1  -8   2 25.4091 7.93462  21
   1  -8   3 76.5056 14.8237  22
   1  -8   3 67.5248 12.5543  21
   1  -7 -12 34.6422 11.5106   3
   1  -7 -11 37.9038 10.7051   4
   1  -7 -11 57.4776 13.1642   3
   1  -7 -10 97.5757 14.9447   3
   1  -7 -10 91.5130 14.7287   4
   1  -7  -9 216.346 20.5395   3
   1  -7  -9 256.182 22.6100   4
   1  -7  -8 40.2677 9.53060   4
   1  -7  -8 28.3925 8.50216  21
   1  -7  -8 30.3880 8.56721   3
   1  -7  -7 132.443 16.3656  21
   1  -7  -7 119.944 14.2629   3
   1  -7  -6 149.721 14.5359   3
   1  -7  -6 157.987 16.1172   4
   1  -7  -6 139.964 16.3462  21
   1  -7  -5 482.414 29.9054  21
   1  -7  -5 571.742 26.1816   3
   1  -7  -5 480.536 27.2110   4
   1  -7  -4 10.3295 5.04510   4
   1  -7  -4 11.9419 6.66512  21
   1  -7  -4 6.43364 4.11480   3
   1  -7  -4 7.30736 4.20494  25
   1  -7  -3 174.081 14.7138  25
   1  -7  -3 157.854 16.8846  21
   1  -7  -3 158.688 14.3875   4
   1  -7  -2 20.1119 5.47957   4
   1  -7  -2 24.7952 8.07797  21
   1  -7  -2 26.3938 7.18294  25
   1  -7  -1 302.329 23.0407  21
   1  -7  -1 316.215 18.0479   4
   1  -7   0 92.5470 12.8220  21
   1  -7   1 395.804 26.4166  22
   1  -7   1 408.239 26.2303  21
   1  -7   2 225.031 20.6359  22
   1  -7   2 214.594 18.9783  21
   1  -7   3 213.072 18.9390  21
   1  -7   4 4.12175 6.36464  22
   1  -7   5 2.20387 6.45678  22
   1  -7   6 18.7391 9.15388  22
   1  -6 -12 20.4368 8.47241   4
   1  -6 -11 153.913 18.4942   3
   1  -6 -11 150.939 18.6413   4
   1  -6 -10 36.3973 9.74900   4
   1  -6 -10 39.3488 10.0368   3
   1  -6  -9 342.257 25.4004   3
   1  -6  -9 376.393 26.2623   4
   1  -6  -8 179.286 17.2932   3
   1  -6  -8 158.738 16.5783   4
   1  -6  -7 583.708 30.8683  21
   1  -6  -7 595.841 29.7095   3
   1  -6  -7 576.119 30.4961   4
   1  -6  -6 112.097 13.6221  21
   1  -6  -6 131.276 13.1580   3
   1  -6  -5 359.777 23.8111  21
   1  -6  -5 332.182 19.4556   3
   1  -6  -5 368.857 22.2725   4
   1  -6  -4 412.807 25.1378  21
   1  -6  -4 457.335 21.1084   3
   1  -6  -4 439.254 20.4819  25
   1  -6  -4 423.505 22.8951   4
   1  -6  -3 751.913 34.3950  21
   1  -6  -3 732.779 25.7277   3
   1  -6  -3 759.884 29.9582   4
   1  -6  -3 754.888 28.9839  25
   1  -6  -2 269.435 13.0563   3
   1  -6  -2 259.658 16.2363   4
   1  -6  -2 253.302 19.2497  21
   1  -6  -2 270.329 17.9570  25
   1  -6  -1 78.2072 8.50422   4
   1  -6   0 37.6904 7.68054  22
   1  -6   0 43.0492 8.63141  21
   1  -6   0 35.3039 5.62707   4
   1  -6   1 365.787 23.2434  22
   1  -6   1 328.742 21.5130  21
   1  -6   2 969.489 38.5201  21
   1  -6   3 79.4222 12.2559  22
   1  -6   3 85.8849 11.2129  21
   1  -6   4 173.799 18.3626  22
   1  -6   4 185.416 16.0496  21
   1  -6   5 3.85842 5.65230  22
   1  -6   6 144.583 18.1571  22
   1  -6   7 65.8417 13.5875  22
   1  -6   8 190.261 22.0168  22
   1  -5 -13 110.082 17.9322   3
   1  -5 -12 101.129 16.2034   3
   1  -5 -11 49.5569 10.9565   4
   1  -5 -11 55.1832 11.5716   3
   1  -5 -10 97.7795 13.4177   4
   1  -5  -9 157.426 16.2464   4
   1  -5  -8 1220.65 45.3336   3
   1  -5  -8 1171.96 44.2278   4
   1  -5  -7 220.012 17.2933  21
   1  -5  -7 234.664 17.8873   3
   1  -5  -7 235.200 18.1275   4
   1  -5  -6 197.860 16.1291  21
   1  -5  -6 191.523 15.1664   3
   1  -5  -6 170.286 14.7838   4
   1  -5  -5 11.8510 4.52384   3
   1  -5  -5 2.91877 2.20825  25
   1  -5  -5 7.23084 4.85267  21
   1  -5  -5 0.43740 1.91069   5
   1  -5  -4 1451.29 46.3879  21
   1  -5  -4 1490.28 41.1725   3
   1  -5  -4 1421.34 43.2996   4
   1  -5  -4 1549.74 38.6460  25
   1  -5  -3 184.435 15.3030  21
   1  -5  -3 196.038 12.0728   3
   1  -5  -3 207.453 14.1674   4
   1  -5  -3 212.196 13.2319  25
   1  -5  -2 1435.01 46.2155  21
   1  -5  -2 1644.12 36.9705   3
   1  -5  -2 1508.97 41.3339   4
   1  -5  -2 1611.05 43.8643  25
   1  -5  -1 107.303 11.4807  21
   1  -5  -1 85.5438 6.11043   3
   1  -5  -1 89.2503 8.22517   4
   1  -5   0 459.392 22.7309  22
   1  -5   0 427.755 22.8804  21
   1  -5   0 460.414 17.9389   4
   1  -5   1 6.87595 2.62791   4
   1  -5   1 9.25326 4.51873  22
   1  -5   1 1.09232 2.61379  21
   1  -5   2 430.487 22.4887  21
   1  -5   3 231.689 16.2697  21
   1  -5   3 183.880 16.7120  22
   1  -5   4 531.481 29.4288  22
   1  -5   4 527.891 25.1287  21
   1  -5   5 174.422 17.8373  22
   1  -5   5 210.498 15.4657  21
   1  -5   6 44.7892 10.5167  22
   1  -5   7 182.486 19.4856  22
   1  -5   8 53.1096 11.9925  22
   1  -5   9 62.6134 12.8561  22
   1  -4 -13 198.757 22.2356   3
   1  -4 -12 444.948 31.6802   3
   1  -4 -11 1.88946 4.12607   3
   1  -4 -10 740.729 36.8362   3
   1  -4 -10 632.092 32.4257   4
   1  -4  -9 159.443 16.4342   3
   1  -4  -9 156.331 15.2817   4
   1  -4  -8 502.538 27.4378   3
   1  -4  -8 471.087 25.9111   4
   1  -4  -7 5.90324 3.82494   4
   1  -4  -6 118.032 11.3218  21
   1  -4  -6 114.182 11.3026   4
   1  -4  -5 0.97797 2.33991   4
   1  -4  -5 1.94107 3.14385  21
   1  -4  -5 3.87194 0.90482  17
   1  -4  -4 709.753 28.1518  21
   1  -4  -4 818.862 27.2950   3
   1  -4  -4 776.065 20.1931   5
   1  -4  -4 676.388 26.4720   4
   1  -4  -4 734.800 22.3685  25
   1  -4  -3 2149.40 54.0835  21
   1  -4  -3 2227.60 48.6209   3
   1  -4  -3 2124.71 37.4951   5
   1  -4  -3 2136.55 50.8516   4
   1  -4  -3 2171.29 46.8991  25
   1  -4  -2 3412.11 67.7582  26
   1  -4  -2 3391.34 73.5497  21
   1  -4  -2 3482.62 63.5247   3
   1  -4  -2 3342.09 67.8415  25
   1  -4  -2 3254.75 67.0904   4
   1  -4  -1 4385.64 86.9401  21
   1  -4  -1 4283.28 72.5720   3
   1  -4  -1 4201.54 78.3322   4
   1  -4  -1 4286.95 79.5141  26
   1  -4   0 91.8755 4.96206   3
   1  -4   0 109.045 9.78422  22
   1  -4   0 99.7111 7.46784   4
   1  -4   0 101.622 8.11729  26
   1  -4   1 158.623 12.1203  21
   1  -4   1 133.009 9.58155  11
   1  -4   1 138.398 7.83165   4
   1  -4   2 8.82825 3.75976  21
   1  -4   2 6.31618 3.41155  22
   1  -4   2 9.23240 3.18032  10
   1  -4   3 823.923 29.4295  21
   1  -4   3 875.771 29.4570  10
   1  -4   3 768.654 31.8801  22
   1  -4   4 43.6236 8.03581  22
   1  -4   4 26.4485 5.46402  21
   1  -4   4 32.3066 6.17376  10
   1  -4   5 1072.68 41.8582  22
   1  -4   5 1068.73 34.2522  21
   1  -4   5 1068.67 38.4535  10
   1  -4   6 1.53138 3.95674  22
   1  -4   6-2.68760 3.93696  10
   1  -4   7 185.239 18.3044  22
   1  -4   7 171.815 16.8716  10
   1  -4   8 37.2760 9.50468  22
   1  -4   8 25.9763 8.46728  10
   1  -4   9 400.306 28.6069  22
   1  -4   9 410.091 29.1750  10
   1  -4  10 28.0662 9.66988  10
   1  -3 -13 28.4585 10.0354   3
   1  -3 -12 329.913 26.4666   3
   1  -3 -11 353.713 26.2139   3
   1  -3 -10 98.3845 13.2996   3
   1  -3 -10 122.002 11.5349  17
   1  -3  -9 147.210 15.2592   3
   1  -3  -9 122.531 10.6942  17
   1  -3  -9 131.879 13.4522   4
   1  -3  -8 34.5712 7.13607   4
   1  -3  -8 33.1825 5.27429  17
   1  -3  -8 47.2849 8.52400   3
   1  -3  -7 917.996 26.0413  17
   1  -3  -7 953.360 34.3980   4
   1  -3  -6 438.834 19.3270  21
   1  -3  -6 396.768 20.9440   3
   1  -3  -6 406.805 14.0931  17
   1  -3  -6 416.916 20.7351   4
   1  -3  -5 2145.06 51.2877  21
   1  -3  -5 2286.86 40.2944  17
   1  -3  -5 2258.63 53.8629   4
   1  -3  -4 8.35100 3.31706   4
   1  -3  -4 6.67255 2.89774  21
   1  -3  -4 9.46445 3.25957   3
   1  -3  -4 6.48426 1.10032  17
   1  -3  -3 2893.27 53.1179  24
   1  -3  -3 2843.77 61.2570  21
   1  -3  -3 3041.45 59.0528   3
   1  -3  -3 3000.64 51.5584   5
   1  -3  -3 2809.04 59.7149   4
   1  -3  -3 2831.25 55.0076  25
   1  -3  -2 95.2280 8.63448  21
   1  -3  -2 100.224 7.03897   3
   1  -3  -2 94.9695 4.61792   5
   1  -3  -2 85.3450 7.49243  26
   1  -3  -2 88.7766 5.75147  24
   1  -3  -2 87.2229 7.00389  25
   1  -3  -1 6407.20 109.993  26
   1  -3  -1 6712.69 114.945  21
   1  -3  -1 6440.42 104.062   3
   1  -3  -1 6604.66 108.669   4
   1  -3  -1 6601.23 104.383  24
   1  -3  -1 6628.49 112.328  25
   1  -3   0 1502.83 28.3198   3
   1  -3   0 1520.64 38.8968  21
   1  -3   0 1491.98 33.7219  11
   1  -3   0 1536.11 32.6743   4
   1  -3   0 1543.66 35.7796  26
   1  -3   1 882.511 28.3115  22
   1  -3   1 881.354 27.6189  21
   1  -3   1 908.567 25.5628  11
   1  -3   1 872.776 24.9226  26
   1  -3   2 538.681 18.7063  26
   1  -3   2 496.363 21.6333  22
   1  -3   2 529.350 20.6225  21
   1  -3   2 534.171 19.7490  10
   1  -3   3 248.803 15.7123  22
   1  -3   3 254.475 13.9786  21
   1  -3   3 260.409 14.5909  10
   1  -3   4 604.951 22.3889  21
   1  -3   4 640.526 25.4315  10
   1  -3   5 967.149 36.6677  22
   1  -3   5 1012.76 30.5756  21
   1  -3   5 1086.93 37.0207  10
   1  -3   6 545.529 27.5013  22
   1  -3   6 499.971 20.2675  21
   1  -3   6 471.622 25.1579  10
   1  -3   7 11.2164 5.30586  22
   1  -3   7 14.0461 5.65847  10
   1  -3   8 245.681 20.0395  22
   1  -3   8 226.552 19.6213  10
   1  -3   9 34.0700 9.27875  10
   1  -3  10 225.456 22.2960  10
   1  -3  11 17.7426 8.10781  10
   1  -2 -13 123.294 17.2075   3
   1  -2 -12 3.86683 5.97084   3
   1  -2 -12 1.44113 4.22221  17
   1  -2 -11 428.410 28.2955   3
   1  -2 -11 426.966 24.3837  17
   1  -2 -10 43.9579 9.35246   3
   1  -2 -10 54.7361 8.47948  17
   1  -2  -9 728.763 33.7197   3
   1  -2  -9 697.576 27.6857  17
   1  -2  -8 306.604 19.9651   3
   1  -2  -8 254.341 14.9812  17
   1  -2  -7 2474.71 62.0602   3
   1  -2  -7 2423.83 52.9336  17
   1  -2  -7 2456.68 58.9630   4
   1  -2  -6 1871.39 49.5168   3
   1  -2  -6 1902.55 41.0219  17
   1  -2  -6 1774.78 46.4101   4
   1  -2  -5 2823.48 56.2879  21
   1  -2  -5 2884.53 62.9250   3
   1  -2  -5 2879.43 52.2264  17
   1  -2  -5 2799.71 60.6598   4
   1  -2  -4 51.7985 5.77280  21
   1  -2  -4 56.0567 6.30190   3
   1  -2  -4 53.8491 3.92940  17
   1  -2  -4 49.4477 5.93983   4
   1  -2  -3 258.837 12.4288  21
   1  -2  -3 277.553 13.1546   4
   1  -2  -2 283.316 10.8902  24
   1  -2  -2 263.905 12.4872  21
   1  -2  -2 270.389 11.4564   3
   1  -2  -2 272.390 9.54773   5
   1  -2  -2 282.452 12.2829   4
   1  -2  -2 264.355 11.0108  25
   1  -2  -1 249.745 9.75439  24
   1  -2  -1 251.382 11.5358  26
   1  -2  -1 222.121 11.4297  21
   1  -2  -1 247.518 9.53410   3
   1  -2  -1 230.996 10.7057  25
   1  -2   0 4537.93 75.5205  24
   1  -2   0 4405.95 79.6265  25
   1  -2   0 4608.02 80.2631  21
   1  -2   0 4519.89 76.3667  11
   1  -2   0 4526.99 78.4159  26
   1  -2   1 109.999 7.43417  26
   1  -2   1 110.437 7.42068  11
   1  -2   2 3647.08 71.6761  22
   1  -2   2 3734.63 69.3107  21
   1  -2   2 3722.38 68.8649  10
   1  -2   2 3776.49 68.1401  26
   1  -2   3 1279.29 35.9767  22
   1  -2   3 1288.55 32.7938  21
   1  -2   3 1378.39 35.1512  10
   1  -2   4 4449.23 79.8661  21
   1  -2   4 4503.74 85.7070  10
   1  -2   5 12.3245 4.34560  22
   1  -2   5 10.3851 3.03862  21
   1  -2   5 13.1028 3.98735  10
   1  -2   6 1729.01 49.1034  22
   1  -2   6 1726.29 49.8666  10
   1  -2   7-1.16494 2.78665  22
   1  -2   7 1.26540 3.49523  10
   1  -2   8 67.1650 10.6174  10
   1  -2   9 47.8823 10.2204  10
   1  -2  10 258.755 22.8394  10
   1  -2  11 126.028 17.0942  10
   1  -2  12 217.255 23.5185  10
   1  -1 -14 25.2031 9.66045  17
   1  -1 -13 58.6072 11.5344  17
   1  -1 -12 4.81531 5.65210  17
   1  -1 -11 145.822 16.5123   3
   1  -1 -11 136.120 14.6100  17
   1  -1 -10 469.791 27.9641   3
   1  -1 -10 441.903 24.6341  17
   1  -1  -9 110.626 12.7351   3
   1  -1  -9 112.268 11.7332  17
   1  -1  -8 1210.37 41.5207   3
   1  -1  -8 1216.17 37.7584  17
   1  -1  -7 244.958 16.6585   3
   1  -1  -7 251.989 14.6949  17
   1  -1  -6 3087.48 67.9117   3
   1  -1  -6 3072.37 62.2654  17
   1  -1  -5 434.926 19.1311   3
   1  -1  -5 425.577 16.0007  17
   1  -1  -4 2893.46 52.6687  21
   1  -1  -4 3040.49 60.2524   3
   1  -1  -4 2961.01 53.4522  17
   1  -1  -3 1330.55 28.8099  21
   1  -1  -3 1384.31 32.3170   3
   1  -1  -3 1288.12 26.0493  17
   1  -1  -2 1810.64 36.3266  21
   1  -1  -2 1804.41 37.1594   3
   1  -1  -2 1758.01 35.2577   5
   1  -1  -2 1863.33 31.2421   8
   1  -1  -1 3566.60 62.1786  21
   1  -1  -1 3532.27 58.5080   5
   1  -1  -1 3568.46 60.6852  24
   1  -1  -1 3538.11 62.4833  26
   1  -1   0 3859.88 64.9936  24
   1  -1   0 3918.67 66.8918  21
   1  -1   0 3839.10 65.5239  11
   1  -1   0 3853.04 66.4028  25
   1  -1   0 3895.06 66.8330  26
   1  -1   1 12466.1 191.340  24
   1  -1   1 12805.7 194.329  23
   1  -1   1 12727.4 192.601  21
   1  -1   1 12666.8 191.971  11
   1  -1   1 12516.9 192.371  26
   1  -1   1 12776.6 193.999  25
   1  -1   2 17293.5 261.657  23
   1  -1   2 17184.0 257.426  21
   1  -1   2 16720.6 257.698  10
   1  -1   2 17472.9 258.050  26
   1  -1   3 186.383 11.5537  23
   1  -1   3 195.628 10.8135  22
   1  -1   3 188.577 9.73556  21
   1  -1   3 193.978 10.7704  10
   1  -1   4 114.190 9.63371  23
   1  -1   4 121.426 9.18338  22
   1  -1   4 139.450 10.0128  10
   1  -1   5 264.116 15.8658  23
   1  -1   5 278.553 12.8152   6
   1  -1   5 257.680 14.4685  22
   1  -1   5 257.845 15.0713  10
   1  -1   6 642.375 26.9356  23
   1  -1   6 606.679 21.6860   6
   1  -1   6 630.281 24.6373  22
   1  -1   6 616.524 26.0174  10
   1  -1   7 1091.79 38.1346  23
   1  -1   7 1098.19 32.6995   6
   1  -1   7 1074.03 35.4349  22
   1  -1   7 1069.78 38.2284  10
   1  -1   8 3.76964 3.47143  23
   1  -1   8 5.29696 3.33974   6
   1  -1   8 5.31101 4.30101  10
   1  -1   9 143.008 14.6026  23
   1  -1   9 135.711 12.1514   6
   1  -1   9 152.652 15.8188  10
   1  -1  10-1.48924 3.25204  23
   1  -1  10 8.58617 7.11491  10
   1  -1  11 407.662 28.9272  10
   1  -1  12 34.0922 10.2054  10
   1   0 -13 15.6320 7.87090  17
   1   0 -12 351.703 26.0336  17
   1   0 -11 4.78647 5.39787  17
   1   0 -10 582.428 30.1134  17
   1   0  -9 16.9301 5.83431   3
   1   0  -9 21.1956 6.09385  17
   1   0  -8 839.528 33.4092   3
   1   0  -8 824.690 32.2810  17
   1   0  -7 88.7647 9.76849   3
   1   0  -7 84.8250 9.35118  17
   1   0  -6 508.352 22.3117   3
   1   0  -6 524.100 21.4280  17
   1   0  -5 343.827 16.5493   3
   1   0  -5 341.738 15.5278  17
   1   0  -4 5539.28 85.6534  21
   1   0  -4 5750.43 98.4414   3
   1   0  -4 5643.84 95.3204  17
   1   0  -3 3510.15 56.9373  21
   1   0  -3 3552.51 64.6578   3
   1   0  -3 3464.23 61.2111  17
   1   0  -2 444.068 14.5771   3
   1   0  -2 436.630 12.2302  21
   1   0  -2 485.415 15.1737   5
   1   0  -1 4292.47 69.6038  21
   1   0  -1 4301.48 70.7925   5
   1   0   0 844.353 19.4110  24
   1   0   0 802.266 17.7890  23
   1   0   0 797.035 19.2432  21
   1   0   0 758.426 17.5070   8
   1   0   0 837.339 19.5340  26
   1   0   1 9846.22 152.156  24
   1   0   1 10097.5 153.392  23
   1   0   1 10057.0 152.586  11
   1   0   1 10081.4 153.010  26
   1   0   1 10097.7 152.567  25
   1   0   2 209.040 9.15831  25
   1   0   2 194.709 9.92957  23
   1   0   2 206.008 9.25239  10
   1   0   2 220.436 9.67318  26
   1   0   3 229.759 11.9539  23
   1   0   3 218.360 7.07230   6
   1   0   3 231.870 10.9306  10
   1   0   3 236.748 10.6690  25
   1   0   4 434.969 12.8724   6
   1   0   4 455.586 17.4667  10
   1   0   5 3491.49 72.8830  23
   1   0   5 3518.63 62.2000   6
   1   0   5 3525.68 71.1174  10
   1   0   6-1.89442 1.60218  23
   1   0   6 2.08716 2.03826   6
   1   0   6 0.87255 2.08724  10
   1   0   7 2929.08 69.9558  23
   1   0   7 2942.15 60.3271   6
   1   0   7 2998.89 69.0478  10
   1   0   8 539.281 26.6386  23
   1   0   8 474.311 20.3543   6
   1   0   8 479.152 24.9958  10
   1   0   9 848.973 35.8413  23
   1   0   9 845.119 30.0286   6
   1   0  10 5.87554 4.30422  23
   1   0  11 153.473 16.2773  23
   1   0  12 9.87756 7.21987  10
   1   0  13 45.9378 12.1020  10
   1   1 -12 99.5828 15.3199  17
   1   1 -11 44.1439 10.5076  17
   1   1 -10 172.550 17.3184  17
   1   1  -9 805.549 35.4783  17
   1   1  -8 1.22896 3.39462  17
   1   1  -7 338.248 18.9096   3
   1   1  -7 318.602 19.1830  17
   1   1  -6 126.508 10.7477   3
   1   1  -5 2484.20 54.6383   3
   1   1  -4 1383.45 34.6394   3
   1   1  -3 10334.6 163.897   3
   1   1  -3 10559.3 160.870  16
   1   1  -2 115.069 7.52682   5
   1   1  -2 93.0398 5.25764  16
   1   1  -1 10725.4 161.048   5
   1   1  -1 10384.0 154.808  16
   1   1  -1 10556.0 160.213   8
   1   1   0 586.667 13.7059  23
   1   1   0 557.675 15.4938   8
   1   1   1 9.57690 2.02539  24
   1   1   1 10.8924 2.30155  23
   1   1   1 19.5438 2.50516  16
   1   1   2 141.122 8.10873  23
   1   1   2 138.790 7.52229  16
   1   1   3 3782.19 68.8415   7
   1   1   3 3964.49 72.1363  23
   1   1   3 3966.05 64.9296  25
   1   1   4 42.2552 5.37960   7
   1   1   4 49.7185 6.07504  23
   1   1   4 50.2859 3.72290   6
   1   1   4 44.6651 4.14133  25
   1   1   5 373.842 17.8320   7
   1   1   5 355.222 13.0868  25
   1   1   5 335.536 16.9966  23
   1   1   5 363.074 12.6312   6
   1   1   6 1119.45 35.4639  23
   1   1   6 1122.15 27.8704   6
   1   1   6 1069.40 32.6284  10
   1   1   6 1070.26 35.3243   7
   1   1   7 864.399 26.0915   6
   1   1   7 889.529 31.3741  10
   1   1   8 3500.02 81.4939  23
   1   1   8 3594.34 71.0435   6
   1   1   8 3428.99 78.8824  10
   1   1   9 317.123 21.3550  23
   1   1   9 373.534 18.6142   6
   1   1   9 389.227 23.1824  10
   1   1  10 353.133 23.4834  23
   1   1  10 356.605 23.5862  10
   1   1  11 171.610 17.3949  10
   1   1  11 133.762 15.3845  23
   1   1  12 68.0301 11.9494  10
   1   1  13 2.04640 5.99543  10
   1   1  14 414.451 31.8850  10
   1   2 -10 71.9396 12.2962  17
   1   2 -10 101.102 13.5353  16
   1   2  -9 811.646 36.0943  16
   1   2  -8 11.3968 5.10134  16
   1   2  -7 494.249 25.5799  17
   1   2  -7 486.823 24.1647  16
   1   2  -6 266.022 17.2252  17
   1   2  -6 246.827 15.6844  16
   1   2  -5 415.831 20.2163  17
   1   2  -5 408.389 18.9746  16
   1   2  -4 8.03272 2.92569  16
   1   2  -3 1344.58 35.1542   5
   1   2  -3 1336.04 33.0113  16
   1   2  -2 3853.33 69.4853   5
   1   2  -2 3694.44 67.0692  16
   1   2  -1 1020.08 27.0107   8
   1   2  -1 1037.90 25.6499   5
   1   2  -1 1055.86 24.8293  16
   1   2   0 5723.21 85.8207  26
   1   2   0 5739.19 89.2772  15
   1   2   0 5681.27 94.3725   8
   1   2   1 29.2953 3.10659  24
   1   2   1 20.2120 3.16029  16
   1   2   1 16.6257 3.37509   8
   1   2   2 4968.64 77.8342  24
   1   2   2 4868.96 78.3000  11
   1   2   2 4901.10 83.8234  16
   1   2   3 749.315 23.3924  23
   1   2   3 789.267 23.4061  16
   1   2   4 6287.00 108.484  23
   1   2   4 6166.76 97.8709   1
   1   2   4 6075.38 100.286  10
   1   2   4 5969.35 106.990  16
   1   2   5 2.96970 1.70890   1
   1   2   5 4.34340 2.12137  10
   1   2   5 3.08561 2.38273   7
   1   2   6 1932.27 50.4223   7
   1   2   6 1904.90 50.4147  23
   1   2   6 2001.66 46.0010  10
   1   2   7 138.265 12.5318   7
   1   2   7 147.395 12.9020  23
   1   2   7 144.668 9.90330   6
   1   2   7 143.289 5.45647  14
   1   2   7 154.145 11.5422  10
   1   2   8 1089.93 40.5450   7
   1   2   8 1162.92 40.6706  23
   1   2   8 1101.06 32.5318   6
   1   2   8 1130.03 36.6535  10
   1   2   9 226.853 14.5507   6
   1   2   9 235.454 16.9469  10
   1   2   9 241.632 18.6181  23
   1   2   9 270.351 20.6496   7
   1   2  10 452.536 26.7611  23
   1   2  10 440.583 25.2880  10
   1   2  11 17.8711 6.92221  23
   1   2  11 24.3100 6.80612  10
   1   2  12 273.042 22.9402  23
   1   2  12 223.098 20.5288  10
   1   2  13 100.875 14.8220  10
   1   2  14 46.2801 11.8196  10
   1   3 -11 109.200 17.3489   5
   1   3 -10 55.2623 11.1745  16
   1   3  -9 21.0001 6.69956  16
   1   3  -8 623.396 31.6215  16
   1   3  -7 70.9085 10.4307  16
   1   3  -6 851.529 33.2495  16
   1   3  -5 21.8016 5.30964  16
   1   3  -4 1193.55 36.2623   5
   1   3  -4 1114.21 34.9149  16
   1   3  -3 155.663 10.9929   5
   1   3  -3 140.118 10.5283  16
   1   3  -2 4611.74 83.1967   5
   1   3  -2 4538.53 84.3413  16
   1   3  -1 77.6033 6.58717  15
   1   3  -1 76.3138 6.50314   5
   1   3  -1 65.2845 6.42287  16
   1   3  -1 73.9559 7.18775   8
   1   3   0 3941.41 71.2563   8
   1   3   0 3772.53 68.3748  15
   1   3   1 38.7888 4.80488  16
   1   3   1 38.4043 4.77711   8
   1   3   1 41.5532 4.49484  15
   1   3   2 2095.30 36.6105  24
   1   3   2 2184.09 46.4002  16
   1   3   2 2115.84 43.7467   9
   1   3   2 2111.27 44.9047   8
   1   3   3 3730.65 72.8534  16
   1   3   3 3624.21 70.2305   9
   1   3   4 4898.79 84.5700   1
   1   3   4 4721.98 90.1884  16
   1   3   5 316.579 17.3462  23
   1   3   5 318.761 14.1594   1
   1   3   5 323.236 12.9660  10
   1   3   5 347.491 17.8182  16
   1   3   6 6.00806 3.38962  23
   1   3   6 9.38632 2.97931  10
   1   3   6 5.66671 2.88657   1
   1   3   7 194.111 15.2180   7
   1   3   7 191.333 15.0982  23
   1   3   7 177.840 11.6767  10
   1   3   7 176.376 11.7718   1
   1   3   8 21.0103 6.15194   7
   1   3   8 6.34723 4.47237  23
   1   3   8 9.70417 4.13451  10
   1   3   9 785.588 36.0375   7
   1   3   9 795.467 35.2824  23
   1   3   9 791.287 29.1143   6
   1   3   9 776.300 30.4761  10
   1   3  10 206.248 19.1228   7
   1   3  10 220.364 18.9048  23
   1   3  10 215.331 15.4725   6
   1   3  10 190.563 15.9971  10
   1   3  11 1128.91 50.3111   7
   1   3  11 1201.63 47.8947  23
   1   3  11 1162.47 43.2505  10
   1   3  12 52.4996 11.3427  23
   1   3  12 48.9018 10.1271  10
   1   3  13 210.897 20.4763  10
   1   3  14-3.93568 5.08475  10
   1   4 -10 88.9230 14.7505  16
   1   4  -9 5.44919 5.60991  16
   1   4  -8 487.963 30.4168   5
   1   4  -8 473.346 29.0343  16
   1   4  -7 87.7253 12.2491   5
   1   4  -7 95.7710 12.6378  16
   1   4  -6 623.079 29.8645   5
   1   4  -6 598.091 29.6249  16
   1   4  -5 886.942 34.0209   5
   1   4  -5 829.402 33.8253  16
   1   4  -4 936.009 32.5630   5
   1   4  -4 894.096 33.6466  16
   1   4  -3 357.420 17.7681   5
   1   4  -3 319.351 18.2928  16
   1   4  -2 148.468 10.4813   5
   1   4  -2 183.273 12.9359  16
   1   4  -2 162.199 11.9571  15
   1   4  -1 313.111 14.1635   5
   1   4  -1 288.320 15.8226  16
   1   4  -1 308.963 15.5938  15
   1   4  -1 278.135 15.1614   8
   1   4   0 78.9090 7.49365  15
   1   4   0 67.0692 7.27171   8
   1   4   1 2360.21 54.0034  16
   1   4   1 2412.09 51.9840   8
   1   4   1 2471.31 52.2685  15
   1   4   2 410.609 10.5173  24
   1   4   2 423.866 18.8276  16
   1   4   2 409.164 16.9608   8
   1   4   3 2499.59 56.7122  16
   1   4   3 2452.39 54.5106   9
   1   4   4 97.7017 5.14973  11
   1   4   4 122.065 10.6075  16
   1   4   4 101.990 9.29245   9
   1   4   5 3514.79 77.5683  16
   1   4   5 3619.45 72.4995   1
   1   4   6 548.760 22.0650   1
   1   4   6 542.674 17.9496  10
   1   4   6 547.823 25.6020  16
   1   4   7 1635.09 50.5572  23
   1   4   7 1706.05 44.7387   1
   1   4   7 1686.26 39.9527  10
   1   4   7 1655.71 50.7823  16
   1   4   8 118.868 13.1100  23
   1   4   8 124.070 10.2482  10
   1   4   8 137.589 13.9272  16
   1   4   8 118.077 11.1589   1
   1   4   8 125.447 13.4313   7
   1   4   9 182.517 17.1328   7
   1   4   9 144.760 15.4131  23
   1   4   9 191.093 13.8445  10
   1   4  10 225.863 20.4818   7
   1   4  10 262.706 21.2809  23
   1   4  10 286.423 18.4217  10
   1   4  11 537.977 33.4834   7
   1   4  11 533.523 31.8726  23
   1   4  11 568.689 28.1681  10
   1   4  12 85.8855 15.0239   7
   1   4  12 75.7009 13.2548  23
   1   4  12 95.1787 12.3377  10
   1   4  13 61.7359 13.1463   7
   1   5 -10 26.2369 9.79169  16
   1   5  -9 75.4986 13.8471  16
   1   5  -8 58.4017 11.9518  16
   1   5  -7 704.941 36.6623  16
   1   5  -6 66.6221 11.2103  16
   1   5  -5 572.813 29.8975  16
   1   5  -4 16.8651 5.81073  15
   1   5  -4 17.1419 6.04470  16
   1   5  -3 579.353 27.8523  16
   1   5  -3 599.656 27.7104  15
   1   5  -2 7.35371 4.10437  15
   1   5  -2 2.24369 3.09964  16
   1   5  -2 9.35953 4.42748   8
   1   5  -1 996.730 33.7292   8
   1   5  -1 1052.57 34.9673  15
   1   5  -1 1003.65 35.2621  16
   1   5   0 197.927 13.3126   8
   1   5   0 172.259 12.9987  15
   1   5   1 1798.45 46.2724  15
   1   5   1 1784.53 44.9272   8
   1   5   2 141.381 5.39386  24
   1   5   2 152.692 12.6163  16
   1   5   2 134.929 10.3686   8
   1   5   3 238.837 15.8909  16
   1   5   3 241.272 13.7630   8
   1   5   4 948.482 34.2419  16
   1   5   4 916.274 32.3399   9
   1   5   5 2290.09 60.8296  16
   1   5   5 2397.50 59.9696   9
   1   5   6 1155.44 26.3385  11
   1   5   6 1260.44 42.4609  16
   1   5   6 1189.33 37.9751   1
   1   5   7 80.1397 9.47519   1
   1   5   7 73.1304 10.3639  16
   1   5   8 430.305 22.9610   1
   1   5   8 445.853 26.4573  16
   1   5   8 470.679 27.1622  23
   1   5   9 36.9165 8.59391  23
   1   5   9 18.8262 5.87169   1
   1   5   9 35.0606 8.53298  16
   1   5  10 446.677 29.4657   7
   1   5  10 399.043 27.1878  23
   1   5  11 14.0253 7.32253   7
   1   5  11 7.53578 5.52120  23
   1   5  12 288.499 25.8043   7
   1   5  12 239.643 23.0636  23
   1   5  13 4.79742 7.02799   7
   1   5  13 6.39455 6.24526  23
   1   6  -9 149.980 19.7139  16
   1   6  -8 25.5744 9.07638  16
   1   6  -8 15.3151 7.99937  15
   1   6  -7 102.630 15.4230  15
   1   6  -7 111.181 15.8237  16
   1   6  -6 12.9066 7.20248  16
   1   6  -6-1.84325 4.76266  15
   1   6  -5 31.9914 8.71899  15
   1   6  -5 49.6752 9.91239  16
   1   6  -4 139.299 15.0600   8
   1   6  -4 132.237 15.1152  16
   1   6  -4 116.789 14.3535  15
   1   6  -3 189.727 17.2766  16
   1   6  -3 177.772 16.3042   8
   1   6  -3 205.291 18.0003  15
   1   6  -2 512.908 25.9806   8
   1   6  -2 433.799 24.8162  15
   1   6  -2 503.157 27.2479  16
   1   6  -1 881.675 34.9464  15
   1   6  -1 887.214 36.1375  16
   1   6  -1 882.779 33.6964   8
   1   6   0 1755.74 50.7255  15
   1   6   0 1704.92 48.0432   8
   1   6   1 128.119 12.7684  16
   1   6   1 102.765 11.0575  15
   1   6   2 798.039 32.7775  16
   1   6   3 56.1833 8.63781  16
   1   6   4 450.309 24.4589  16
   1   6   4 442.950 23.5375   9
   1   6   5 52.8996 8.60649   9
   1   6   5 43.5261 8.07253  16
   1   6   6 458.324 26.2601  16
   1   6   6 460.694 25.6975   9
   1   6   6 503.471 25.6641   1
   1   6   7 301.029 19.9670   1
   1   6   7 279.298 21.1695  16
   1   6   7 273.255 20.6142   9
   1   6   8 1686.22 51.6762   1
   1   6   8 1504.67 53.8103  16
   1   6   9 179.544 18.4410  23
   1   6   9 174.195 16.0303   1
   1   6   9 172.826 17.8747  16
   1   6  10 119.223 16.0510  16
   1   6  10 115.913 13.5083   1
   1   6  10 120.407 15.8932  23
   1   6  11 46.0808 10.8383   7
   1   6  11 34.3408 9.68050  23
   1   6  12 98.3994 16.3518   7
   1   6  12 137.833 18.2879  23
   1   6  13 84.1691 16.0641  23
   1   6  13 84.3799 16.1207   7
   1   7  -8 7.20258 6.63234  16
   1   7  -7 2.23730 5.35194  15
   1   7  -7 2.26965 5.42934  16
   1   7  -7 2.31674 4.52504   8
   1   7  -6 209.059 21.8295   8
   1   7  -6 220.342 22.5003  16
   1   7  -6 197.580 21.3129  15
   1   7  -5 18.0377 7.32741  16
   1   7  -5 13.4943 7.29540  15
   1   7  -5 21.0946 7.94924   8
   1   7  -4 116.328 15.4003  15
   1   7  -4 116.412 15.5140  16
   1   7  -4 76.2056 12.6218   8
   1   7  -3 40.0351 9.08343  15
   1   7  -3 30.0007 8.45717  16
   1   7  -2 792.292 38.1494  16
   1   7  -2 761.924 36.4046  15
   1   7  -1 309.420 22.9354  16
   1   7  -1 312.288 22.1162  15
   1   7   0 641.309 31.3833  15
   1   7   1 84.6233 11.4327  15
   1   7   1 98.4426 12.5961  16
   1   7   2 230.863 19.0063  16
   1   7   3 44.1713 8.52957  16
   1   7   4 4.12891 4.25152   9
   1   7   4 11.9488 5.26008  16
   1   7   5 97.6945 12.3549   9
   1   7   5 56.9897 10.0311  16
   1   7   6 463.230 27.1196   1
   1   7   6 427.046 27.1384  16
   1   7   6 418.850 26.1077   9
   1   7   7 683.438 35.6321  16
   1   7   7 707.483 35.5476   9
   1   7   7 714.677 34.4126   1
   1   7   8 186.125 17.5041   1
   1   7   8 180.209 18.4583  16
   1   7   9 417.646 29.6024  23
   1   7   9 416.762 26.7685   1
   1   7   9 463.904 30.4900  16
   1   7  10 43.3330 10.6773  23
   1   7  10 36.0013 9.19678   1
   1   7  10 38.3871 9.88054  16
   1   7  11 135.386 18.4392  23
   1   7  11 128.917 17.6546  16
   1   7  12 21.5772 9.37110   7
   1   7  12 25.4361 9.31674  23
   1   7  13 126.648 19.2595  23
   1   8  -6 55.6467 13.4030  16
   1   8  -6 94.9877 17.1107  15
   1   8  -5 52.8081 12.9047  16
   1   8  -5 58.9468 13.1667  15
   1   8  -4 74.0656 14.1435  16
   1   8  -4 61.7124 12.8984  15
   1   8  -3 149.579 18.4011  15
   1   8  -3 130.317 17.7210  16
   1   8  -2 70.9681 12.3484  16
   1   8  -2 38.5134 9.99832  15
   1   8  -1 22.6516 7.82586  16
   1   8  -1 17.3431 6.78038  15
   1   8   0 9.94098 5.83552  15
   1   8   1 219.554 20.3660  16
   1   8   1 241.258 20.4981  15
   1   8   2 75.4814 12.2888  16
   1   8   3 529.913 31.7363  16
   1   8   4 258.496 21.9178  16
   1   8   4 278.507 22.0121   9
   1   8   5 586.498 33.8018  16
   1   8   5 560.358 32.1129   9
   1   8   6 46.8161 10.0435   9
   1   8   6 57.3482 11.3051  16
   1   8   6 49.3049 10.8996   1
   1   8   7 215.248 20.9491  16
   1   8   7 224.671 21.0961   9
   1   8   7 202.092 19.5130   1
   1   8   8 35.8573 9.27310   1
   1   8   8 30.9554 9.06978   9
   1   8   8 20.0011 7.82299  16
   1   8   9 147.125 17.4881   1
   1   8   9 127.622 17.4454  16
   1   8  10 9.09785 6.66601  23
   1   8  10 8.80934 6.80366  16
   1   8  10 24.2590 8.15188   1
   1   8  11 42.8305 11.8638  23
   1   8  11 41.8003 11.7992  16
   1   8  12 32.3577 10.8849  23
   1   8  12 48.8024 12.6217  16
   1   9  -4 103.977 17.2187  15
   1   9  -4 57.1280 14.3910  16
   1   9  -3 40.4907 11.6469  16
   1   9  -3 48.3214 11.9591  15
   1   9  -2 2.09428 4.57352  15
   1   9  -2 6.86480 7.06677  16
   1   9  -1 24.3433 9.17077  16
   1   9  -1 7.99881 5.52626  15
   1   9   0 17.3976 7.31549  15
   1   9   1 235.088 22.9759  16
   1   9   2 251.752 23.6841  16
   1   9   3 262.045 23.9446  16
   1   9   4 145.442 17.9318  16
   1   9   4 186.103 19.4802   9
   1   9   5 114.017 16.0057  16
   1   9   5 92.0993 14.2199   9
   1   9   6 99.2941 15.8840   1
   1   9   6 154.600 19.3776  16
   1   9   6 146.244 17.7831   9
   1   9   7 53.8362 12.1561   1
   1   9   7 43.0900 11.1824   9
   1   9   7 67.5444 13.4786  16
   1   9   8 22.8638 8.61265   1
   1   9   8 6.44355 6.63400   9
   1   9   8 2.24295 6.19650  16
   1   9   9 4.17550 6.11668   1
   1   9   9 2.31971 5.99377  16
   1   9  10 102.853 17.7256  23
   1   9  10 111.978 17.0763   1
   1   9  10 93.9932 16.2008  16
   1   9  11 70.3293 14.7511  16
   1  10  -2 30.4197 10.2286  15
   1  10  -1 47.6162 12.5442  15
   1  10   0 59.5855 12.9585  15
   1  10   1 46.0510 11.8527  16
   1  10   2 100.179 16.6951  16
   1  10   3 28.3582 9.52385  16
   1  10   4 90.2977 15.9079   9
   1  10   4 98.9474 16.1604  16
   1  10   5 47.9770 11.8740   9
   1  10   5 40.3071 11.5941  16
   1  10   6 40.1159 10.6850   9
   1  10   6 57.7409 13.5148  16
   1  10   6 55.0403 13.4430   1
   1  10   7 2.38411 6.16022   1
   1  10   7 6.88898 6.34306   9
   1  10   7 2.45359 5.86948  16
   1  10   8 57.0985 13.3669   1
   1  10   8 71.2038 14.4936   9
   1  10   8 35.0549 11.7500  16
   1  10   9 113.816 17.8594   1
   2  -9  -7 15.6966 9.56180  21
   2  -9  -6 23.5128 9.55198  21
   2  -9  -5 59.7584 14.3781  21
   2  -9  -4 75.1822 15.6430  21
   2  -9  -3 79.4555 16.6413  21
   2  -9  -2 7.61450 7.01165  21
   2  -9  -1 4.33611 5.98857  25
   2  -9  -1-2.50572 7.73818  21
   2  -9   0-4.93584 6.37669  21
   2  -9   0-2.33966 4.56992  25
   2  -9   1 113.926 18.2580  21
   2  -9   1 120.438 19.0525  25
   2  -9   2 45.0457 12.9067  21
   2  -8 -10-4.45187 4.34803   3
   2  -8  -9 32.4716 9.72029   3
   2  -8  -7 64.8013 13.4024  21
   2  -8  -6 9.15610 8.36510  21
   2  -8  -5 141.130 19.4821  21
   2  -8  -4 156.980 19.9960  21
   2  -8  -3 182.257 21.1197  21
   2  -8  -2 5.31586 5.19186  25
   2  -8  -1 17.6992 8.91459  21
   2  -8  -1 30.7592 9.57885  25
   2  -8   0 39.3044 11.4947  21
   2  -8   0 33.2857 10.1708  25
   2  -8   1 105.455 16.4594  21
   2  -8   1 69.4867 14.5702  25
   2  -8   2 40.3952 10.8030  21
   2  -8   2 38.4528 12.2082  25
   2  -8   3 35.4062 10.1829  21
   2  -8   3 38.5287 11.7769  25
   2  -7 -11 7.08826 7.99369   3
   2  -7 -10 4.34637 5.19885   3
   2  -7  -9 136.662 17.6215   3
   2  -7  -8 84.0369 13.3512   3
   2  -7  -7 63.9597 12.6730  21
   2  -7  -7 47.8879 10.0109   3
   2  -7  -6 79.1589 11.5195   3
   2  -7  -6 75.7587 13.9475  21
   2  -7  -5 116.914 16.6167  21
   2  -7  -4 202.339 20.8598  21
   2  -7  -3 135.226 16.8823  21
   2  -7  -3 113.373 13.2418  25
   2  -7  -2 339.787 23.7038  25
   2  -7  -2 371.821 27.9221  21
   2  -7  -1 142.756 16.1133  25
   2  -7   0 76.1378 13.3024  21
   2  -7   0 50.9661 10.4002  25
   2  -7   1 9.40176 6.87273  21
   2  -7   1 13.7832 7.19666  25
   2  -7   2 160.276 18.2585  21
   2  -7   2 170.067 19.7237  25
   2  -7   3 103.305 14.6930  21
   2  -7   3 79.8972 14.8444  25
   2  -7   4 107.202 15.2643  21
   2  -7   4 158.600 20.4363  25
   2  -7   5 2.59385 7.16472  25
   2  -6 -11 46.0846 12.1355   3
   2  -6 -10 273.594 25.0498   3
   2  -6  -9 67.0620 12.4482   3
   2  -6  -8 219.582 20.3593   3
   2  -6  -7 145.779 16.7063  21
   2  -6  -7 143.687 15.8134   3
   2  -6  -6 607.408 33.6462  21
   2  -6  -6 607.288 30.3287   3
   2  -6  -5 5.10410 5.25461  21
   2  -6  -5 4.79818 5.10667   3
   2  -6  -4 51.4488 8.00122   3
   2  -6  -4 30.3697 8.58517  21
   2  -6  -4 51.6699 8.44974  25
   2  -6  -3 37.3119 6.63564   3
   2  -6  -3 35.0805 8.79821  21
   2  -6  -3 29.3363 6.87403  25
   2  -6  -2 479.660 29.3662  21
   2  -6  -2 518.825 27.3944  25
   2  -6  -1 183.786 18.2199  21
   2  -6  -1 209.667 18.0227  25
   2  -6   0 305.490 23.0649  21
   2  -6   0 286.111 21.8416  25
   2  -6   1 107.373 13.9387  21
   2  -6   1 114.431 14.8137  25
   2  -6   2 152.169 16.5003  21
   2  -6   2 159.234 17.6686  25
   2  -6   3 119.114 14.7586  21
   2  -6   4 45.1727 11.3275  25
   2  -6   4 38.2869 9.36553  21
   2  -6   5 98.8972 16.1010  25
   2  -6   6 17.1202 8.61508  25
   2  -6   7 38.7321 11.5686  25
   2  -5 -12 285.931 27.7911   3
   2  -5 -10 169.122 19.4406   3
   2  -5  -9 83.3129 13.4604   3
   2  -5  -8 599.241 32.9293   3
   2  -5  -7 366.719 24.2169   3
   2  -5  -6 115.616 13.5388  21
   2  -5  -6 89.5859 11.8078   3
   2  -5  -5 2.87775 3.97444  21
   2  -5  -5-1.15443 2.52096   3
   2  -5  -5 6.87059 4.83840  26
   2  -5  -4 29.9791 5.98032  25
   2  -5  -4 9.99864 5.03815  21
   2  -5  -4 26.8929 6.08171   3
   2  -5  -4 21.4940 6.30288  26
   2  -5  -3 329.018 17.4426   3
   2  -5  -3 343.986 22.7855  21
   2  -5  -3 320.922 19.1233  25
   2  -5  -2 180.870 16.4211  21
   2  -5  -2 188.735 15.1182  25
   2  -5  -1 1325.72 47.0910  21
   2  -5  -1 1424.41 45.9966  25
   2  -5   0 577.174 28.9524  25
   2  -5   1 809.721 35.5491  21
   2  -5   1 788.882 35.8064  25
   2  -5   2 1.38845 2.71191  21
   2  -5   3 374.707 23.8908  21
   2  -5   3 414.977 27.6833  25
   2  -5   4 37.3582 8.12721  21
   2  -5   4 44.8390 10.4965  25
   2  -5   5 224.898 18.6189  21
   2  -5   5 243.108 22.8651  25
   2  -5   6 21.4929 9.15409  25
   2  -5   7 45.7225 11.4023  25
   2  -5   8 2.41357 4.71417  25
   2  -5   9 45.5816 12.3817  25
   2  -4 -13 174.212 20.8730   5
   2  -4 -12 21.2771 9.52618   3
   2  -4 -12 30.6737 9.79014   5
   2  -4 -11 121.198 17.3803   3
   2  -4 -11 115.171 15.5507   5
   2  -4 -10 23.7335 7.96400   3
   2  -4 -10 1.61471 3.86343   5
   2  -4  -9 328.441 25.0785   3
   2  -4  -9 408.393 24.8469   5
   2  -4  -8 27.8694 6.70551   5
   2  -4  -7 262.247 19.8854   3
   2  -4  -7 257.936 17.1319   5
   2  -4  -6 7.28489 4.27556  21
   2  -4  -6 2.53150 3.49675   3
   2  -4  -6 4.30198 3.14450   5
   2  -4  -5 1726.26 49.5814   3
   2  -4  -5 1750.51 42.3451   5
   2  -4  -4 259.797 18.0508  26
   2  -4  -4 219.428 16.8405  21
   2  -4  -4 256.641 12.7221   5
   2  -4  -3 1193.26 36.7450  25
   2  -4  -3 1240.73 35.9942   3
   2  -4  -3 1132.26 40.3274  21
   2  -4  -3 1229.02 40.2975  26
   2  -4  -2 205.819 14.9156  26
   2  -4  -2 208.762 12.5108   3
   2  -4  -2 184.266 15.2388  21
   2  -4  -2 221.842 14.9365  25
   2  -4  -1 466.774 24.4051  21
   2  -4  -1 495.597 23.1043  26
   2  -4  -1 465.846 22.8881  25
   2  -4   0 177.110 14.7160  21
   2  -4   0 169.951 13.2284  26
   2  -4   0 196.857 15.4409  25
   2  -4   1 615.319 28.1593  21
   2  -4   1 578.305 24.7751  26
   2  -4   2 164.571 14.3766  21
   2  -4   2 183.337 14.0505  11
   2  -4   2 178.121 15.8981  25
   2  -4   3 7.13406 4.34747  21
   2  -4   3 12.4118 4.54599  11
   2  -4   3 16.1925 5.92927  25
   2  -4   4 222.626 19.3191  25
   2  -4   4 192.138 15.8789  21
   2  -4   4 216.872 17.2990  11
   2  -4   5 160.620 14.4998  21
   2  -4   5 143.791 16.3719  25
   2  -4   6 826.696 33.7099  21
   2  -4   6 829.672 41.2158  25
   2  -4   7 72.7002 12.0009  10
   2  -4   7 79.8160 13.9574  25
   2  -4   8 52.2651 11.3704  10
   2  -4   8 61.4841 12.6195  25
   2  -4   9 2.14539 6.28625  10
   2  -4   9 15.6771 7.88646  25
   2  -4  10 89.5139 16.1529  10
   2  -3 -13 307.980 29.2460   3
   2  -3 -13 322.489 29.0118   5
   2  -3 -12 2.30303 5.95085   3
   2  -3 -12-6.49969 2.99295   5
   2  -3 -11 187.300 20.7360   3
   2  -3 -11 202.038 20.5306   5
   2  -3 -10-1.90869 3.72802   3
   2  -3 -10 12.0670 6.29900   5
   2  -3  -9 13.8269 6.09192   3
   2  -3  -9 28.7226 7.81669   5
   2  -3  -8 18.6337 6.25577   3
   2  -3  -8 11.7867 5.11992   5
   2  -3  -7 517.488 27.8396   3
   2  -3  -7 571.186 26.5642   5
   2  -3  -6 1188.00 37.6547   5
   2  -3  -5 1639.67 46.8828  21
   2  -3  -5 1708.54 48.9429   3
   2  -3  -5 1748.47 44.4954   5
   2  -3  -4 2895.16 65.1424   3
   2  -3  -4 2836.91 66.3075  21
   2  -3  -4 2786.75 58.6179   5
   2  -3  -3 143.705 10.4757  24
   2  -3  -3 154.388 11.4794   3
   2  -3  -3 152.800 12.6550  21
   2  -3  -3 148.175 9.45558   5
   2  -3  -3 147.448 12.5238  26
   2  -3  -2 596.825 21.7146  24
   2  -3  -2 569.261 21.4227   3
   2  -3  -2 611.189 25.8412  21
   2  -3  -2 567.923 24.6126  26
   2  -3  -2 595.605 23.6570  25
   2  -3  -1 54.7251 6.32887  24
   2  -3  -1 48.1752 6.95491  26
   2  -3  -1 46.1891 7.09145  21
   2  -3  -1 61.4175 7.60369  25
   2  -3   0 952.786 28.9150  24
   2  -3   0 961.287 31.8127  26
   2  -3   0 917.192 32.7052  21
   2  -3   1 17.9576 4.44383  11
   2  -3   1 13.9683 4.26864  26
   2  -3   1 15.4632 4.61879  25
   2  -3   2 648.458 27.1641  21
   2  -3   2 694.644 26.8178  11
   2  -3   2 651.957 25.9635  26
   2  -3   2 641.974 28.5614  25
   2  -3   3 96.8562 10.3492  21
   2  -3   3 109.378 10.9370  11
   2  -3   3 97.8671 9.88765  26
   2  -3   3 98.9484 11.4836  25
   2  -3   4 1670.57 47.8302  21
   2  -3   4 1691.89 53.5849  25
   2  -3   5 672.048 28.2987  21
   2  -3   5 680.849 33.2309  25
   2  -3   6 1025.80 35.9331  21
   2  -3   6 1017.16 40.7108  10
   2  -3   6 978.214 41.9348  25
   2  -3   7 122.387 14.6059  10
   2  -3   7 127.169 15.3910  25
   2  -3   8 172.030 18.1126  10
   2  -3   8 172.675 18.7162  25
   2  -3   9 4.03690 5.91376  10
   2  -3  10 6.68890 6.88618  10
   2  -3  11 21.9604 9.53658  10
   2  -2 -13 43.7682 12.5892   3
   2  -2 -13 70.1738 14.7055   5
   2  -2 -12 190.519 21.8784   3
   2  -2 -12 243.720 25.1508   5
   2  -2 -11 6.14101 6.32302   3
   2  -2 -11 14.3473 7.21815   5
   2  -2 -10 456.046 30.0131   3
   2  -2 -10 425.152 28.7998   5
   2  -2  -9 6.70564 5.43116   3
   2  -2  -9 11.2587 6.08458   5
   2  -2  -8 747.465 35.1222   3
   2  -2  -8 733.091 33.6569   5
   2  -2  -7 29.4318 6.92810   3
   2  -2  -7 35.0197 7.18770   5
   2  -2  -6 1360.75 44.5154   3
   2  -2  -6 1475.48 43.8174   5
   2  -2  -5 99.7398 9.21426  21
   2  -2  -5 77.1401 9.30508   3
   2  -2  -5 97.2483 9.53912   5
   2  -2  -5 103.493 7.22376   8
   2  -2  -4 3053.13 65.8875  21
   2  -2  -4 3202.39 65.4320   5
   2  -2  -4 3093.92 54.7852   8
   2  -2  -3 34.6406 5.59729   3
   2  -2  -3 32.8688 5.61304  21
   2  -2  -3 33.4590 5.05081   5
   2  -2  -3 36.7181 3.39121   8
   2  -2  -3 35.3662 5.50230  24
   2  -2  -2 965.596 29.0036  24
   2  -2  -2 968.313 31.0790  21
   2  -2  -2 958.840 31.5717  26
   2  -2  -1 489.513 19.1530  24
   2  -2  -1 465.635 20.6891  21
   2  -2  -1 518.646 21.6233  26
   2  -2  -1 465.979 20.0641  25
   2  -2   0 1043.52 30.4363  24
   2  -2   0 1075.88 33.2177  21
   2  -2   0 1097.94 33.2357  26
   2  -2   1 188.815 11.9463  24
   2  -2   1 210.721 13.6748  21
   2  -2   1 208.136 13.0971  11
   2  -2   1 184.529 12.5603  26
   2  -2   1 181.082 12.8128  25
   2  -2   2 1605.40 43.2826  21
   2  -2   2 1561.51 42.4907  11
   2  -2   2 1607.79 42.4887  26
   2  -2   2 1583.08 44.5058  25
   2  -2   3 2626.85 59.3179  26
   2  -2   3 2517.47 59.3224  21
   2  -2   3 2566.45 60.7400  11
   2  -2   3 2530.60 62.5125  25
   2  -2   4 260.228 15.8400  21
   2  -2   4 261.249 17.6725  25
   2  -2   5 276.331 16.5407  21
   2  -2   5 231.236 16.6928  10
   2  -2   5 292.262 19.5166  25
   2  -2   6 17.0429 5.89104  23
   2  -2   6 29.9756 6.97677  10
   2  -2   6 16.1288 5.25775  25
   2  -2   7 735.927 34.8163  10
   2  -2   7 817.152 36.3337  25
   2  -2   8 134.516 15.7907  10
   2  -2   8 147.395 15.9649  25
   2  -2   9 346.692 26.2884  10
   2  -2  10 10.4685 6.46746  10
   2  -2  11 188.972 22.3262  10
   2  -1 -13-2.61680 6.76130   5
   2  -1 -12 429.038 31.8365   3
   2  -1 -12 424.501 32.7491   5
   2  -1 -11 86.0178 14.6619   3
   2  -1 -11 73.1671 13.6656   5
   2  -1 -10 598.224 34.2210   3
   2  -1 -10 592.328 35.0923   5
   2  -1  -9 182.423 17.8179   3
   2  -1  -9 171.907 17.5337   5
   2  -1  -8 137.259 14.7966   3
   2  -1  -8 123.746 14.0108   5
   2  -1  -7 125.921 13.2686   3
   2  -1  -7 164.077 14.8518   5
   2  -1  -6 685.279 29.3326   3
   2  -1  -6 648.904 28.4905   5
   2  -1  -5 480.223 22.8463   3
   2  -1  -5 463.231 21.9260   5
   2  -1  -4 24.8425 4.45465  21
   2  -1  -4 25.3460 5.27179   3
   2  -1  -4 23.2049 4.89111   5
   2  -1  -4 21.3224 3.67086   8
   2  -1  -3 1764.09 44.3587   3
   2  -1  -3 1707.22 41.9290  21
   2  -1  -3 1865.92 43.6870   5
   2  -1  -3 1857.77 37.7577   8
   2  -1  -2 314.455 16.1960  26
   2  -1  -2 307.780 15.1593  21
   2  -1  -2 325.891 14.8098   5
   2  -1  -2 343.958 12.2948   8
   2  -1  -2 355.915 16.3247  24
   2  -1  -1 5513.26 99.7010  24
   2  -1  -1 5637.25 101.963  26
   2  -1  -1 5795.05 101.336  21
   2  -1   0 817.255 25.4080  24
   2  -1   0 822.718 26.5622  21
   2  -1   0 797.653 26.3039  26
   2  -1   0 830.123 26.5503  25
   2  -1   1 6727.83 116.270  24
   2  -1   1 6852.02 117.886  23
   2  -1   1 6672.14 118.049  21
   2  -1   1 6843.52 117.324  11
   2  -1   1 6736.33 118.148  26
   2  -1   1 6778.49 118.473  25
   2  -1   2 1205.63 35.6981  23
   2  -1   2 1251.09 34.2495  24
   2  -1   2 1179.53 34.3124  11
   2  -1   2 1218.64 34.4898  26
   2  -1   2 1225.97 35.1076  25
   2  -1   3 3223.41 71.5817  23
   2  -1   3 3316.12 68.6404  21
   2  -1   3 3347.47 69.8841  11
   2  -1   3 3276.57 69.9591  25
   2  -1   3 3301.75 68.7031  26
   2  -1   4 1185.66 38.6477  23
   2  -1   4 1173.97 37.0541  25
   2  -1   5 45.1339 7.18531  10
   2  -1   5 49.9846 7.48504  25
   2  -1   6 3.93808 3.84608  23
   2  -1   6 5.58014 3.92988  25
   2  -1   6 1.18749 3.06852  10
   2  -1   7 538.274 29.1360  23
   2  -1   7 507.438 27.3905  10
   2  -1   7 596.419 28.0641  25
   2  -1   8 238.001 20.0598  23
   2  -1   8 282.939 21.3409  10
   2  -1   9 598.785 33.4728  23
   2  -1   9 584.130 33.1901  10
   2  -1  10 235.325 21.8865  23
   2  -1  10 228.465 21.8067  10
   2  -1  11 85.0160 13.9550  23
   2  -1  11 53.5699 11.6891  10
   2  -1  12 97.1762 16.9068  10
   2   0 -12 17.4313 8.77159   5
   2   0 -11 342.456 28.5057   5
   2   0 -10 3.53979 4.88892   3
   2   0 -10-4.04105 1.97364   5
   2   0  -9 685.097 34.7525   3
   2   0  -9 685.761 36.9251   5
   2   0  -8 170.048 16.4035   3
   2   0  -8 181.690 17.2911   5
   2   0  -7 1609.61 50.8619   3
   2   0  -7 1692.05 53.5967   5
   2   0  -6 2.25497 3.11432   3
   2   0  -6-1.18831 3.48142   5
   2   0  -5 1000.32 34.1416   3
   2   0  -5 948.530 33.7395   5
   2   0  -4 59.0916 7.63429   5
   2   0  -4 56.7871 6.41685   8
   2   0  -3 4207.48 76.3109   8
   2   0  -2 642.728 22.7694  26
   2   0  -2 628.216 21.0041  21
   2   0  -2 653.574 19.9728   8
   2   0  -1 845.024 25.4490  21
   2   0  -1 847.731 23.1642   8
   2   0  -1 876.724 26.3303  26
   2   0  -1 827.814 25.8622  24
   2   0   0 1014.65 28.6368  26
   2   0   0 972.247 27.9561  24
   2   0   0 997.927 25.8757  23
   2   0   1 3750.87 70.1348  24
   2   0   1 3598.29 69.2358  23
   2   0   1 3628.41 70.2237  26
   2   0   2 818.677 26.0093  25
   2   0   2 813.552 25.5411  24
   2   0   2 842.288 26.9618  23
   2   0   2 815.965 26.0450  11
   2   0   2 860.525 26.4541  26
   2   0   3 753.239 24.9686  24
   2   0   3 652.539 23.5137  25
   2   0   3 637.532 25.0645  23
   2   0   3 701.915 24.5539  11
   2   0   3 705.936 24.3491  26
   2   0   4 2263.97 56.2563  23
   2   0   4 2263.59 52.3278  25
   2   0   5 4.37567 3.02250  23
   2   0   5 5.52689 2.84566  10
   2   0   5 5.82772 2.93235  25
   2   0   6 725.590 29.4967  10
   2   0   6 709.888 27.7637  25
   2   0   7 13.7688 5.03199  23
   2   0   7 3.73070 3.21446  10
   2   0   8 906.277 39.7437  23
   2   0   8 983.744 39.5469  10
   2   0   9 181.819 18.0112  23
   2   0   9 164.825 16.6450  10
   2   0  10 936.185 43.2135  23
   2   0  11 1.94727 4.65816  23
   2   0  12 130.106 17.6669  23
   2   0  12 114.527 17.4267  10
   2   0  13 4.84842 6.69641  10
   2   1 -12 20.7399 10.1312   5
   2   1 -11 171.926 21.4675   5
   2   1 -10 57.2372 12.0986   5
   2   1  -9 858.060 42.0607   5
   2   1  -8 561.333 31.7919   5
   2   1  -7 162.530 16.1137   5
   2   1  -7 181.321 12.1770  16
   2   1  -6 103.090 12.0854   5
   2   1  -6 112.312 8.61602  16
   2   1  -5 932.216 34.6177   5
   2   1  -5 957.757 25.1928  16
   2   1  -4 2948.28 67.6270   5
   2   1  -4 2971.87 52.5272  16
   2   1  -4 2934.02 63.7486   8
   2   1  -3 30.2349 4.99246   8
   2   1  -3 36.2546 5.92631   5
   2   1  -3 25.9740 2.53518  16
   2   1  -2 1472.61 38.5252   5
   2   1  -2 1467.69 25.0740  16
   2   1  -1 270.662 9.60565  23
   2   1  -1 281.072 14.0454   5
   2   1  -1 274.756 7.39103  16
   2   1  -1 280.276 13.1411  26
   2   1   0 2631.41 54.5762  24
   2   1   0 2593.65 49.5709  23
   2   1   0 2706.41 45.1769  16
   2   1   1 57.5888 6.15130  24
   2   1   1 54.3327 5.62131  23
   2   1   2 5171.03 90.2274  24
   2   1   2 5316.18 92.0622  23
   2   1   2 5133.53 90.4373  11
   2   1   3 280.773 14.1289  26
   2   1   3 291.310 15.6782  23
   2   1   4 6851.83 124.156  23
   2   1   4 6795.73 116.736  25
   2   1   5 371.013 20.2547  23
   2   1   5 364.496 16.6643  25
   2   1   7 177.181 15.8036  23
   2   1   7 216.077 16.0921  10
   2   1   8 169.182 16.2629  23
   2   1   8 180.183 15.6419  10
   2   1   9 24.5006 7.32068  23
   2   1   9 32.3172 7.46492  10
   2   1  10 178.479 18.6254  23
   2   1  10 185.861 18.1575  10
   2   1  11 84.9705 13.9001  23
   2   1  11 68.6703 12.3396  10
   2   1  12-2.06829 5.34407  23
   2   1  13 136.361 18.5368  10
   2   2 -11 2.45789 5.36736   5
   2   2 -10 566.442 36.5359   5
   2   2  -9 1.98684 4.33871   5
   2   2  -8 435.793 28.8221   5
   2   2  -7 4.56040 3.21186  16
   2   2  -7 1.55553 4.01941   5
   2   2  -6 1108.83 41.3242   5
   2   2  -6 1039.50 32.0067  16
   2   2  -5 67.3041 9.34503   5
   2   2  -5 66.9568 6.80260  16
   2   2  -4 2284.86 59.0053   5
   2   2  -4 2386.95 48.3845  16
   2   2  -3 209.805 13.9882   5
   2   2  -3 174.541 9.03256  16
   2   2  -3 198.546 13.3321   8
   2   2  -2 4932.70 93.1232   8
   2   2  -2 5082.37 94.5983   5
   2   2  -2 5014.33 82.2520  16
   2   2  -1 1619.19 27.6334  15
   2   2  -1 1731.12 33.4698  23
   2   2  -1 1708.94 41.9879   5
   2   2  -1 1712.46 33.6033  16
   2   2  -1 1760.80 41.9095   8
   2   2  -1 1683.11 36.9041  26
   2   2   0 507.660 16.4833  23
   2   2   0 522.679 15.5269  16
   2   2   0 506.786 19.5649   8
   2   2   0 521.994 17.1690  26
   2   2   1 48.9314 3.26625   7
   2   2   1 42.8919 5.15768  23
   2   2   1 45.9277 5.39075  24
   2   2   1 46.5827 4.78229  16
   2   2   1 49.2523 5.95110   8
   2   2   1 51.5216 5.23889  26
   2   2   2 202.668 11.1155  24
   2   2   2 207.174 8.87335   7
   2   2   2 211.829 12.3663  23
   2   2   2 205.333 10.8782  16
   2   2   2 201.698 10.5592  26
   2   2   3 390.501 14.7512   7
   2   2   3 376.260 15.5387  24
   2   2   3 370.445 17.7371  23
   2   2   3 357.168 15.8143  11
   2   2   4 1138.15 31.6656   7
   2   2   4 1135.38 36.4723  23
   2   2   4 1212.14 21.2387   1
   2   2   4 1241.06 33.5944  11
   2   2   5 5851.49 107.244   7
   2   2   5 5742.84 113.093  23
   2   2   5 5822.24 87.6647   6
   2   2   6 228.180 15.2881   7
   2   2   6 204.359 15.8265  23
   2   2   6 221.912 7.47720   6
   2   2   7 858.014 33.8785   7
   2   2   7 861.841 20.0303   6
   2   2   7 867.510 32.1709  10
   2   2   8 5.85894 4.04865  23
   2   2   8 18.7877 5.25709  10
   2   2   9 594.683 32.3270  23
   2   2   9 632.130 30.4387  10
   2   2  10 3.56562 4.60659  23
   2   2  10 3.04410 3.93289  10
   2   2  11 515.236 32.6509  23
   2   2  11 422.680 28.1282  10
   2   2  12 4.15615 5.36927  23
   2   2  12-1.92171 4.19640  10
   2   2  13 296.041 26.8860  23
   2   2  13 260.240 24.5860  10
   2   2  14 2.30392 5.03112  10
   2   3 -11 2.55574 6.60353   5
   2   3 -10 83.5737 15.4217   5
   2   3  -9 2.08980 4.56355   5
   2   3  -8 113.741 15.4276   5
   2   3  -7 311.955 23.4371   5
   2   3  -7 308.957 19.1345  16
   2   3  -6 190.852 17.4000   5
   2   3  -6 189.292 13.9246  16
   2   3  -5 235.319 17.8670   5
   2   3  -5 222.783 14.2686  16
   2   3  -4 625.143 27.8483   8
   2   3  -4 645.721 28.2607   5
   2   3  -4 635.051 23.2966  16
   2   3  -3 4091.35 85.5720   5
   2   3  -3 4076.71 77.0449  16
   2   3  -3 4157.22 86.5539   8
   2   3  -2 1007.57 32.9361   5
   2   3  -2 1037.72 28.1643  16
   2   3  -2 1022.51 26.4614  26
   2   3  -2 1038.48 33.6204   8
   2   3  -2 1021.75 25.5279  15
   2   3  -1 4088.18 81.5209   8
   2   3  -1 4178.00 81.4173   5
   2   3  -1 3986.95 73.8144  16
   2   3  -1 4111.42 68.2773  15
   2   3  -1 4097.99 70.5599  26
   2   3   0 49.1798 5.42900  16
   2   3   0 54.4345 6.75057   8
   2   3   0 57.8059 4.83394  26
   2   3   1 291.917 13.4918  24
   2   3   1 279.397 13.4162  16
   2   3   1 288.556 10.3927   9
   2   3   1 279.055 15.2001   8
   2   3   1 300.277 11.3035  26
   2   3   2 426.696 16.3478  24
   2   3   2 453.115 19.1654  23
   2   3   2 405.693 17.3879  16
   2   3   2 437.293 19.2747   8
   2   3   3 2652.88 52.9894  24
   2   3   3 2624.01 59.7503  23
   2   3   4 99.9440 7.74888  24
   2   3   4 108.442 10.3168  23
   2   3   4 104.295 8.67446   7
   2   3   4 92.7774 7.91147  11
   2   3   5 2167.98 51.3858   7
   2   3   5 2073.58 56.0177  23
   2   3   5 2113.13 48.7389  11
   2   3   5 2132.39 40.9454   1
   2   3   5 2114.74 54.1507  16
   2   3   6 88.5269 6.20759   1
   2   3   6 86.2410 9.54665   7
   2   3   6 78.9646 10.0652  23
   2   3   6 73.2372 8.03290  11
   2   3   7 1266.90 42.0862   7
   2   3   8 911.694 37.0903   7
   2   3   8 847.674 37.8462  23
   2   3   8 908.856 33.1097  10
   2   3   9 354.809 24.1830   7
   2   3   9 395.282 26.1952  23
   2   3   9 393.069 22.5359  10
   2   3  10 61.1816 11.5450  23
   2   3  10 43.2275 8.85343  10
   2   3  11 121.192 16.7612  23
   2   3  11 160.967 16.6473  10
   2   3  12 325.228 27.1524  23
   2   3  12 346.150 25.4427  10
   2   3  13 11.2638 7.62094  23
   2   3  13-1.95429 3.81703  10
   2   3  14 53.3941 12.3624  10
   2   4 -10 7.26371 6.25675   5
   2   4  -9 184.046 21.0172   5
   2   4  -8 37.3540 9.80407   5
   2   4  -7 886.526 41.8482   5
   2   4  -7 859.847 35.8983  16
   2   4  -6 236.434 19.9067   5
   2   4  -6 231.414 17.1041  16
   2   4  -5 858.189 36.6876   5
   2   4  -5 861.845 32.4359  16
   2   4  -5 877.679 37.6812   8
   2   4  -4 9.66774 4.86666   5
   2   4  -4 3.81086 3.08696  16
   2   4  -4 7.87312 4.62111   8
   2   4  -3 522.625 26.2027   8
   2   4  -3 540.406 25.2767   5
   2   4  -3 575.792 23.5149  16
   2   4  -3 550.596 21.7200  15
   2   4  -2 19.9108 5.07761   5
   2   4  -2 20.5645 4.44417  16
   2   4  -2 15.5701 2.81103  26
   2   4  -2 19.1393 4.05228  15
   2   4  -2 15.9731 4.99354   8
   2   4  -1 1394.23 39.8312   5
   2   4  -1 1463.01 38.2207  16
   2   4  -1 1363.66 41.5458   8
   2   4  -1 1417.48 27.9528  26
   2   4  -1 1356.34 33.5306  15
   2   4   0 933.988 19.4020  26
   2   4   0 947.451 29.4473  16
   2   4   0 933.702 32.0288   8
   2   4   0 934.507 25.1985  15
   2   4   1 896.324 29.1192  16
   2   4   1 940.541 31.7968   8
   2   4   1 961.815 27.0476  24
   2   4   2 1805.09 39.0904  24
   2   4   2 1710.03 44.1255  16
   2   4   2 1685.31 39.0484   9
   2   4   2 1699.11 45.5247   8
   2   4   3 1033.83 26.7217  24
   2   4   3 1043.44 29.4264   9
   2   4   4 520.205 17.5120  24
   2   4   4 523.961 24.3899  23
   2   4   5 26.6546 5.89492  23
   2   4   5 25.2324 4.63772  11
   2   4   5 40.4558 6.98639  16
   2   4   6 2238.34 62.6253  23
   2   4   6 2244.79 51.3908  11
   2   4   6 2325.51 48.9964   1
   2   4   6 2294.30 61.0211  16
   2   4   7 148.991 13.6718   7
   2   4   7 168.929 15.9751  23
   2   4   7 168.870 10.6051   1
   2   4   7 178.111 12.5726  11
   2   4   7 146.166 14.3438  16
   2   4   8 611.486 30.1393   7
   2   4   9 1.55202 4.28700   7
   2   4   9 1.71470 4.73633  23
   2   4  10 649.571 35.0888   7
   2   4  10 686.264 37.0893  23
   2   4  10 663.903 30.3858  10
   2   4  11 92.5604 14.6349  23
   2   4  11 96.6717 12.6435  10
   2   4  12 501.005 33.9895  23
   2   4  12 442.153 27.8431  10
   2   4  13-2.31092 5.97089  23
   2   4  13 3.56217 5.50034  10
   2   4  14 63.4074 14.1184  23
   2   5  -9 123.580 18.7781   8
   2   5  -8 165.097 20.2567   8
   2   5  -7 333.893 23.5148  16
   2   5  -7 289.731 25.2948   8
   2   5  -6 393.401 24.5430  16
   2   5  -6 393.914 27.9010   8
   2   5  -5 35.2648 7.87545  16
   2   5  -5 25.1544 7.86673   8
   2   5  -5 34.0173 7.32739  15
   2   5  -4 4.53084 4.17228   8
   2   5  -4 3.20726 3.61740  15
   2   5  -4 9.60056 4.83265  16
   2   5  -3 12.2808 5.16562   8
   2   5  -3 11.0601 4.45874  16
   2   5  -3 26.2873 5.65600  15
   2   5  -2 512.110 26.7270   8
   2   5  -2 571.656 23.3541  15
   2   5  -1 70.7249 8.73057  16
   2   5  -1 62.9621 8.91645   8
   2   5  -1 55.6202 6.90212  15
   2   5   0 3362.71 72.9972  16
   2   5   0 3299.58 75.2565   8
   2   5   0 3192.72 66.1651  15
   2   5   1 1589.63 44.6094  16
   2   5   1 1599.04 45.8081   8
   2   5   1 1521.76 37.4403  24
   2   5   2 2705.89 53.6602  24
   2   5   2 2769.25 64.8971  16
   2   5   2 2722.26 58.7087   9
   2   5   2 2823.92 65.4835   8
   2   5   3 117.525 7.48474  24
   2   5   3 123.050 10.1168   9
   2   5   4 1439.79 31.3726  24
   2   5   4 1408.12 40.1585   9
   2   5   5 69.7452 9.51909  16
   2   5   6 466.103 20.4571   1
   2   5   6 474.818 26.7004  23
   2   5   6 418.274 24.2635  16
   2   5   7 21.2998 6.65073  23
   2   5   7 23.1039 4.69605  11
   2   5   7 17.9839 4.45395   1
   2   5   7 18.6289 6.10665  16
   2   5   8 89.9649 11.7972   7
   2   5   8 68.4223 8.31533   1
   2   5   8 70.7131 8.24638  11
   2   5   8 75.5383 11.6500  16
   2   5   9 429.589 27.2329   7
   2   5   9 442.481 29.1534  23
   2   5  10 485.137 30.6992   7
   2   5  10 510.722 32.4615  23
   2   5  11 262.885 23.8951   7
   2   5  11 212.669 22.2077  23
   2   5  12 101.205 15.8369   7
   2   5  12 76.5285 13.9568  23
   2   5  13 171.676 21.6050  23
   2   5  14 2.51611 6.01889  23
   2   6  -8 89.5802 16.1689   8
   2   6  -7 3.62316 5.30771  16
   2   6  -7 4.56157 6.68228   8
   2   6  -6 126.523 15.7498  16
   2   6  -6 153.893 19.1508   8
   2   6  -5 174.158 17.3298  16
   2   6  -5 128.655 16.2467   8
   2   6  -4 729.669 34.6503  16
   2   6  -4 710.857 36.5883   8
   2   6  -4 772.463 33.2658  15
   2   6  -3 3.48540 3.76438  15
   2   6  -3 4.70290 4.59387   8
   2   6  -2 165.914 13.9223  15
   2   6  -2 168.111 15.1103  16
   2   6  -2 140.771 15.0801   8
   2   6  -1 184.803 15.4918  16
   2   6  -1 147.306 14.5552   8
   2   6  -1 157.989 12.9820  15
   2   6   0 1148.96 40.7124  16
   2   6   0 1161.73 41.3450   8
   2   6   0 1136.46 36.3002  15
   2   6   1 1076.89 38.7361  16
   2   6   1 1046.11 38.2179   8
   2   6   1 1059.42 29.8409  24
   2   6   2 231.470 11.2360  24
   2   6   2 247.162 17.6144  16
   2   6   2 221.838 16.3833   8
   2   6   3 208.675 14.6815   9
   2   6   3 197.602 15.4864   8
   2   6   4 112.282 11.0426   9
   2   6   5 351.125 22.6004  16
   2   6   5 394.769 21.8899   9
   2   6   6 39.6091 8.49410  16
   2   6   7 1095.74 45.3237  23
   2   6   7 1076.26 43.9036  16
   2   6   7 1089.61 37.2297   1
   2   6   8 231.007 21.1171  23
   2   6   8 200.083 15.3358   1
   2   6   8 198.959 19.0157  16
   2   6   9 485.292 29.9068   7
   2   6   9 600.386 34.1585  16
   2   6  10 13.1230 6.60222   7
   2   6  10 6.23413 5.37068  23
   2   6  11 218.968 22.1376   7
   2   6  11 224.816 23.2180  23
   2   6  12 6.77800 6.62057   7
   2   6  12 14.2217 8.66203  23
   2   6  13 139.581 19.8377   7
   2   6  13 167.859 21.8531  23
   2   7  -7-2.51319 5.48811   8
   2   7  -6 48.9666 11.3390  16
   2   7  -6 53.1551 12.1754   8
   2   7  -5 356.616 26.7033  16
   2   7  -5 416.249 30.4675   8
   2   7  -4 284.335 23.1213  16
   2   7  -4 264.939 23.6992   8
   2   7  -3 275.920 22.1578  16
   2   7  -3 314.259 24.4520   8
   2   7  -3 291.589 20.9488  15
   2   7  -2 55.0552 10.3578  16
   2   7  -2 76.8062 10.6877  15
   2   7  -1 500.629 25.8060  15
   2   7  -1 482.893 28.3512   8
   2   7   0-1.47832 3.81967  16
   2   7   0 4.27020 4.17019   8
   2   7   1 160.051 15.7294  16
   2   7   2 2.90746 3.47772  16
   2   7   3 347.075 20.8733   9
   2   7   4 86.9256 10.8307   9
   2   7   5 897.962 39.8065  16
   2   7   5 933.461 37.2683   9
   2   7   6 573.349 31.9049  16
   2   7   6 480.064 27.1253   9
   2   7   7 835.745 40.1547  16
   2   7   7 895.318 36.4875   1
   2   7   8 202.462 20.8328  23
   2   7   8 245.069 18.4693   1
   2   7   8 225.433 21.3810  16
   2   7   9 83.6588 13.9419  16
   2   7  10 41.4882 10.2226   7
   2   7  10 35.4782 10.6214  23
   2   7  10 34.1086 10.2124  16
   2   7  11 12.9585 6.67044   7
   2   7  11 2.37086 5.67216  23
   2   7  12 16.4323 8.58426   7
   2   7  12 35.1650 10.6974  23
   2   7  13 15.8440 8.55586  23
   2   8  -6 2.23726 4.88557  16
   2   8  -5 61.9905 12.8890  16
   2   8  -5 42.3746 11.9681   8
   2   8  -4 67.2974 13.2537  16
   2   8  -4 86.7757 15.3147   8
   2   8  -3 466.094 31.4098  16
   2   8  -2 129.519 16.4980  16
   2   8  -1 25.4610 7.95208  16
   2   8  -1 29.1454 7.93307  15
   2   8   0 5.30829 5.98588  16
   2   8   0-1.40388 3.87776  15
   2   8   1 66.0477 11.7969  16
   2   8   2 450.840 28.9886  16
   2   8   3 393.812 24.4990   9
   2   8   4 283.761 20.9188   9
   2   8   5 98.2680 14.0515  16
   2   8   5 84.1410 12.3428   9
   2   8   6 230.613 21.5427  16
   2   8   6 234.910 20.0624   9
   2   8   7 81.1899 12.5885   1
   2   8   7 94.8992 13.6968   9
   2   8   7 72.8140 13.0869  16
   2   8   8 489.008 34.1435  23
   2   8   8 503.267 33.4010  16
   2   8   8 486.888 29.0208   1
   2   8   9 27.4027 9.47360  23
   2   8   9 43.4396 11.2341  16
   2   8  10 38.4259 11.5013  23
   2   8  10 34.4945 10.7825  16
   2   8  11 2.27498 5.87817   7
   2   8  11 5.06917 7.00106  23
   2   8  11 2.42872 4.74382  16
   2   8  12 149.595 20.5715   7
   2   8  12 149.549 21.4517  23
   2   9  -4 44.4757 12.5367  16
   2   9  -3 56.6158 13.2936  16
   2   9  -2 160.310 20.1317  16
   2   9  -1 40.4853 10.6259  16
   2   9   0 158.002 19.2836  16
   2   9   1 49.0094 11.1250  16
   2   9   2 271.190 24.2680  16
   2   9   3 106.604 14.1351   9
   2   9   4 137.292 15.9712   9
   2   9   5 5.17211 5.32524   9
   2   9   5 12.4917 7.60819  16
   2   9   6 57.5840 11.4312   9
   2   9   6 87.9080 14.2352  16
   2   9   7 35.9173 9.78918   1
   2   9   7 47.2937 11.1027   9
   2   9   7 57.4466 13.1402  16
   2   9   8 48.6246 11.1332   1
   2   9   8 54.9831 12.4780  16
   2   9   9 20.0587 9.80136  23
   2   9   9 33.3398 10.6638  16
   2   9  10 127.099 19.2476  16
   2  10  -1 63.6577 13.9710  16
   2  10   0 23.9674 9.36848  16
   2  10   1 25.9720 10.0574  16
   2  10   2 56.0326 12.7192  16
   2  10   3 127.962 18.6773  16
   2  10   3 117.246 15.7646   9
   2  10   4 105.553 15.7515   9
   2  10   5 131.519 17.6385   9
   2  10   5 92.3526 16.0975  16
   2  10   6 12.1408 7.12648   9
   2  10   6 9.66558 7.08103  16
   2  10   7 4.40401 6.08263   1
   2  10   7 4.20569 5.80875   9
   2  10   7 4.94598 7.63732  16
   2  10   8 6.60924 7.45326   9
   2  10   8 4.34044 6.35856   1
   2  10   8 5.07320 7.83385  16
   2  11   5 92.1184 16.0815   9
   2  11   6 29.2224 10.5360   9
   3  -8  -7 68.8800 15.3369  21
   3  -8  -6 66.2093 15.5462  21
   3  -8  -5 2.64791 6.84168  21
   3  -8  -4 76.7559 15.5465  21
   3  -8  -3 23.6432 11.1877  21
   3  -8  -2 33.9774 11.9799  21
   3  -8  -2 28.9386 9.69083  25
   3  -8  -1 10.3205 8.35790  21
   3  -8  -1 8.84778 7.48409  25
   3  -8   0 79.1449 15.4178  21
   3  -8   0 94.6938 16.8749  25
   3  -8   1 20.1490 10.7231  21
   3  -8   1 10.1030 8.54674  25
   3  -8   2 14.9496 8.07285  21
   3  -8   3 14.6595 8.60539  21
   3  -7  -9 51.7041 13.0084   3
   3  -7  -8 221.193 22.5799   3
   3  -7  -7 44.1001 11.0794   3
   3  -7  -6 110.304 17.5244  21
   3  -7  -5 145.514 19.2867  21
   3  -7  -4 128.581 18.7761  21
   3  -7  -3 2.33255 5.57998  21
   3  -7  -3 5.18866 4.77764  25
   3  -7  -2 2.31256 6.38816  21
   3  -7  -2 7.41819 4.79237  25
   3  -7  -1 11.8974 6.98401  25
   3  -7   0 36.5046 11.5997  21
   3  -7   0 67.9604 12.8052  25
   3  -7   1 63.5627 13.3251  25
   3  -7   1 49.7006 12.1097  21
   3  -7   2 22.3514 9.26762  21
   3  -7   2 29.0566 10.5811  25
   3  -7   3 97.5088 16.6880  21
   3  -7   3 110.682 18.0111  25
   3  -7   4 43.5947 11.8680  21
   3  -6 -10 119.423 19.4781  26
   3  -6 -10 135.783 19.6095   3
   3  -6  -9 82.1550 15.2316   3
   3  -6  -9 98.5900 16.7244  26
   3  -6  -8 54.4440 11.9929   3
   3  -6  -8 31.9893 10.7180  26
   3  -6  -7 141.485 17.4714   3
   3  -6  -6 113.560 14.7078   3
   3  -6  -6 133.981 17.7477  21
   3  -6  -5 255.833 23.6887  21
   3  -6  -4-2.05820 4.02007  21
   3  -6  -3 45.0473 11.5039  21
   3  -6  -3 43.2942 9.32903  25
   3  -6  -2 14.2329 7.69677  21
   3  -6  -2 31.4008 8.23560  25
   3  -6  -1 249.153 23.3058  21
   3  -6  -1 296.437 23.6276  25
   3  -6   0 35.7710 9.74200  25
   3  -6   1 278.383 24.3426  21
   3  -6   1 267.991 23.8464  25
   3  -6   2 25.9921 8.95936  21
   3  -6   2 40.9340 10.5296  25
   3  -6   3 33.7422 9.89515  21
   3  -6   4 21.6181 8.14666  21
   3  -6   4 14.6838 7.93076  25
   3  -6   5 92.8683 14.9236  21
   3  -6   5 72.5099 15.2191  25
   3  -6   6 35.4988 11.9364  25
   3  -5 -11 213.771 25.3335   3
   3  -5 -10 16.5639 9.24631   3
   3  -5  -9 69.3127 14.0654   3
   3  -5  -8 17.7936 7.96512   3
   3  -5  -8 19.8585 8.62332  26
   3  -5  -7 299.198 23.9833   3
   3  -5  -7 311.597 26.0616  26
   3  -5  -6 1.78916 5.24180  21
   3  -5  -6-1.59741 4.68004   3
   3  -5  -6 5.66145 4.51435  26
   3  -5  -5 36.9475 9.41930  26
   3  -5  -5 21.4370 8.19240  21
   3  -5  -4 83.9190 13.1049  21
   3  -5  -4 87.5508 12.6579  26
   3  -5  -3 523.990 31.7383  21
   3  -5  -3 557.284 30.6088  26
   3  -5  -3 541.532 28.3396  25
   3  -5  -2 590.878 33.7197  21
   3  -5  -2 528.012 29.0741  25
   3  -5  -1 556.205 32.3120  21
   3  -5  -1 508.399 29.5025  25
   3  -5   0 242.595 20.5942  25
   3  -5   0 219.769 20.8833  21
   3  -5   1 33.6150 8.99422  21
   3  -5   1 44.2850 9.80095  25
   3  -5   2 100.643 13.7602  21
   3  -5   3-1.76595 2.98707  21
   3  -5   3 4.05482 5.60003  25
   3  -5   4 73.8876 12.5330  21
   3  -5   4 43.3333 11.0238  25
   3  -5   5-1.74891 4.18356  21
   3  -5   5 2.30297 4.49803  25
   3  -5   6 104.953 17.0869  25
   3  -5   7 28.2924 10.0551  25
   3  -5   8 212.753 25.8101  25
   3  -4 -11 125.943 19.6057   3
   3  -4  -9 50.7375 11.8799   3
   3  -4  -9 47.3406 9.85140   5
   3  -4  -8 57.8739 11.9421   3
   3  -4  -8 55.9920 10.3343   5
   3  -4  -7 19.1250 7.59801   3
   3  -4  -7 18.8475 5.76167   5
   3  -4  -6 323.531 23.1099   3
   3  -4  -6 316.324 19.4070   5
   3  -4  -6 285.282 23.3939  26
   3  -4  -5 72.5350 11.7166  21
   3  -4  -5 68.1126 11.4000  26
   3  -4  -4 818.834 37.4494  21
   3  -4  -4 790.727 36.9547  26
   3  -4  -3 210.504 18.7585  21
   3  -4  -3 216.968 18.3603  26
   3  -4  -2 846.720 37.9756  21
   3  -4  -2 826.062 36.1810  26
   3  -4  -2 892.924 36.2634  25
   3  -4  -1 116.340 13.0255  26
   3  -4  -1 102.094 12.9886  21
   3  -4  -1 92.2648 11.7370  25
   3  -4   0 582.931 31.2445  21
   3  -4   0 614.033 29.9162  26
   3  -4   0 613.555 31.1872  25
   3  -4   1 1.31318 3.62727  26
   3  -4   2 410.007 26.1395  21
   3  -4   2 412.962 24.2303  26
   3  -4   2 418.604 27.3394  25
   3  -4   3 15.6452 6.30271  21
   3  -4   3 14.2610 5.74567  11
   3  -4   3 12.4451 6.26323  25
   3  -4   4 18.8069 6.50105  21
   3  -4   4 20.3824 7.18855  11
   3  -4   4 30.3994 8.50851  25
   3  -4   5 14.1676 6.15622  21
   3  -4   5 29.3776 8.27279  11
   3  -4   5 24.3570 8.41490  25
   3  -4   6 318.987 23.3542  21
   3  -4   6 271.629 23.7372  11
   3  -4   6 243.584 23.9571  25
   3  -4   7 196.316 21.4772  11
   3  -4   7 166.650 20.5925  25
   3  -4   8 69.5619 13.7965  11
   3  -4   8 45.7653 11.7878  25
   3  -4   9 60.9615 14.0435  11
   3  -4   9 27.7005 10.7344  25
   3  -3 -12 207.927 24.1427   5
   3  -3 -11 34.3943 11.7596   3
   3  -3 -11 21.9522 9.35224   5
   3  -3 -10 190.081 21.9723   3
   3  -3 -10 236.880 22.5180   5
   3  -3  -9 14.4870 7.29027   3
   3  -3  -9 15.9206 7.72865   5
   3  -3  -8 343.887 26.6019   3
   3  -3  -8 492.030 28.5591   5
   3  -3  -7 109.558 12.9212   5
   3  -3  -6 1165.36 45.2519   3
   3  -3  -6 1158.82 40.7728   5
   3  -3  -5 152.841 14.7546  21
   3  -3  -5 136.080 12.5698   5
   3  -3  -5 144.126 15.5838  26
   3  -3  -4 221.887 17.6711  21
   3  -3  -4 247.080 19.3790  26
   3  -3  -3 121.531 13.2085  21
   3  -3  -3 109.533 12.8591  26
   3  -3  -2 97.2911 10.3410  24
   3  -3  -2 106.740 12.0720  26
   3  -3  -2 89.7480 11.5618  21
   3  -3  -1 67.8460 8.60719  24
   3  -3  -1 62.0596 9.63011  21
   3  -3  -1 56.5924 8.98228  26
   3  -3  -1 56.3104 8.66335  25
   3  -3   0 399.363 21.0305  24
   3  -3   0 369.310 22.9899  21
   3  -3   0 382.227 22.4421  26
   3  -3   0 377.637 22.8146  25
   3  -3   1 1068.53 36.5966  24
   3  -3   1 1111.24 39.4854  26
   3  -3   2 150.034 15.0767  21
   3  -3   2 170.664 15.0007  11
   3  -3   2 151.953 14.3619  26
   3  -3   2 163.775 15.7943  25
   3  -3   3 837.314 35.9445  21
   3  -3   3 792.608 34.3630  11
   3  -3   3 858.930 34.9781  26
   3  -3   3 797.835 37.1859  25
   3  -3   4 152.003 15.4949  21
   3  -3   4 177.449 16.4361  11
   3  -3   4 189.395 16.3248  26
   3  -3   4 165.719 17.0681  25
   3  -3   5 734.864 34.1020  21
   3  -3   5 809.698 37.7067  11
   3  -3   5 731.006 37.8861  25
   3  -3   6 8.91411 6.03288  11
   3  -3   6 11.3376 6.12192  25
   3  -3   7 69.1737 12.8407  11
   3  -3   7 70.3033 13.3408  25
   3  -3   8 19.6509 8.26385  11
   3  -3   8 23.3677 8.55906  25
   3  -3   9 161.144 20.7364  11
   3  -3  10 5.25776 7.70223  11
   3  -2 -12 17.7881 10.2351   5
   3  -2 -11 81.8027 15.6433   3
   3  -2 -11 111.024 17.2550   5
   3  -2 -10 175.052 20.4676   3
   3  -2 -10 195.009 20.7454   5
   3  -2  -9 235.014 22.8331   3
   3  -2  -9 264.347 23.2830   5
   3  -2  -8 167.455 18.7442   3
   3  -2  -8 172.474 17.6252   5
   3  -2  -7 225.876 19.9103   3
   3  -2  -7 272.123 20.6662   5
   3  -2  -6 46.6456 8.69539   5
   3  -2  -6 38.4124 8.06056  24
   3  -2  -5 1869.65 53.5642   5
   3  -2  -5 1971.29 43.1780   8
   3  -2  -5 1805.27 54.7097  24
   3  -2  -4 296.604 19.1384  24
   3  -2  -4 296.874 19.1613  21
   3  -2  -4 279.482 17.3823   5
   3  -2  -4 264.565 12.2809   8
   3  -2  -4 274.611 19.6825  26
   3  -2  -3 624.231 27.4250  24
   3  -2  -3 584.285 27.3326  21
   3  -2  -3 605.485 28.9037  26
   3  -2  -2 218.618 15.4242  24
   3  -2  -2 217.755 16.4295  21
   3  -2  -2 189.670 15.5738  26
   3  -2  -1 417.493 21.2755  24
   3  -2  -1 357.378 21.3167  21
   3  -2  -1 385.814 21.9853  26
   3  -2   0 95.9301 10.2746  24
   3  -2   0 111.823 11.7507  21
   3  -2   0 79.1347 9.98057  26
   3  -2   1 2454.11 60.5577  24
   3  -2   1 2427.18 63.7343  21
   3  -2   1 2383.39 62.5244  26
   3  -2   1 2408.65 63.5850  25
   3  -2   2 259.146 17.2597  24
   3  -2   2 259.078 17.8662  11
   3  -2   2 256.274 17.7825  26
   3  -2   2 259.858 18.6868  25
   3  -2   3 1822.43 53.8908  21
   3  -2   3 1771.91 52.6823  11
   3  -2   3 1828.29 52.8124  26
   3  -2   3 1747.84 54.5039  25
   3  -2   4 586.180 28.5857  21
   3  -2   4 546.702 28.4503  11
   3  -2   4 645.913 29.5641  26
   3  -2   4 576.951 30.0767  25
   3  -2   5 166.719 16.1926  11
   3  -2   5 197.165 18.1682  25
   3  -2   6 3.30143 4.55978  11
   3  -2   6 3.28522 3.92957  25
   3  -2   7 38.6020 9.51863  11
   3  -2   7 49.0324 10.5597  25
   3  -2   8 118.572 16.2917  11
   3  -2   8 100.334 14.5969  25
   3  -2   9 31.6791 9.89261  11
   3  -1 -12 21.3389 9.75119   5
   3  -1 -11 129.034 18.9595   5
   3  -1 -10 35.2201 10.0952   5
   3  -1  -9 373.269 28.5750   5
   3  -1  -8 5.30656 4.57098   5
   3  -1  -8 5.76468 3.90111   8
   3  -1  -7 533.743 24.6052   8
   3  -1  -7 532.844 30.2881   5
   3  -1  -6 166.244 15.5010   5
   3  -1  -6 132.545 11.3615   8
   3  -1  -5 1944.81 55.8115   5
   3  -1  -5 1935.16 47.1101   8
   3  -1  -4 600.070 25.4909  21
   3  -1  -4 569.798 26.1580   5
   3  -1  -4 549.903 21.1916   8
   3  -1  -4 612.421 28.9386  26
   3  -1  -4 556.700 27.0417  24
   3  -1  -3 517.547 23.8408  21
   3  -1  -3 507.465 23.5272   5
   3  -1  -3 542.083 19.8555   8
   3  -1  -3 517.144 25.7372  26
   3  -1  -3 564.123 26.1490  24
   3  -1  -2 754.437 29.7577  24
   3  -1  -2 715.925 28.9804  21
   3  -1  -2 701.914 29.5515  26
   3  -1  -1 695.064 27.8924  24
   3  -1  -1 710.340 28.9632  21
   3  -1  -1 694.161 28.8507  26
   3  -1   0 182.460 13.6336  24
   3  -1   0 178.390 14.0859  21
   3  -1   0 202.248 14.8939  26
   3  -1   1 20.6521 5.00239  24
   3  -1   1 26.1000 5.82727  21
   3  -1   1 30.7143 6.04092  26
   3  -1   1 22.6316 5.47966  25
   3  -1   2 1464.65 43.0826  24
   3  -1   2 1377.79 44.0145  25
   3  -1   2 1420.12 43.8206  23
   3  -1   2 1445.84 44.7346  21
   3  -1   2 1453.48 44.0985  11
   3  -1   2 1393.46 43.7027  26
   3  -1   3 41.9964 7.39252  24
   3  -1   3 50.8585 8.30569  23
   3  -1   3 43.3291 7.41751  11
   3  -1   3 40.3404 7.45027  25
   3  -1   4 1020.50 39.4789  23
   3  -1   4 1020.12 38.0899  11
   3  -1   4 1042.70 37.7541  26
   3  -1   4 1050.40 39.0752  25
   3  -1   5 26.7248 6.65013  23
   3  -1   5 21.9699 6.29566  11
   3  -1   5 13.3670 5.22884  25
   3  -1   6 873.254 39.5422  23
   3  -1   6 858.979 38.4612  11
   3  -1   6 915.112 38.3363  25
   3  -1   7 80.1259 12.3832  11
   3  -1   7 57.6837 10.3141  25
   3  -1   8 575.435 34.6299  23
   3  -1   8 597.660 35.1177  11
   3  -1   9-4.15704 3.51625  23
   3  -1  10 306.816 27.1186  23
   3  -1  11 14.1582 7.98527  23
   3  -1  12 37.2357 12.1326  23
   3   0 -11 15.3057 8.26361   5
   3   0 -11 7.51521 6.35759   8
   3   0 -10 142.912 16.4882   8
   3   0  -9 171.134 16.6588   8
   3   0  -8 575.850 29.1720   8
   3   0  -7 359.966 21.6718   8
   3   0  -6 372.187 24.1843   5
   3   0  -6 416.191 21.8308   8
   3   0  -5 157.104 14.6837   5
   3   0  -5 197.319 13.8730   8
   3   0  -4 1646.21 49.7503   5
   3   0  -4 1707.24 44.6795   8
   3   0  -3 1048.75 36.6107   5
   3   0  -3 1080.83 32.5937   8
   3   0  -3 1125.52 38.5230  24
   3   0  -2 4397.70 83.6491   8
   3   0  -2 4344.87 91.3957  24
   3   0  -1 41.6491 6.80955  24
   3   0  -1 44.1088 6.01134   8
   3   0  -1 52.9677 7.63046  26
   3   0   0 649.844 26.4997  24
   3   0   0 691.755 24.2438  23
   3   0   0 683.900 27.1747  26
   3   0   1 46.5046 6.91163  24
   3   0   1 55.8760 7.19654  23
   3   0   1 51.4201 7.25186  26
   3   0   2 2153.96 54.3389  24
   3   0   2 2084.98 53.8147  23
   3   0   2 2081.28 54.2429  26
   3   0   3 103.266 10.5209  24
   3   0   3 114.053 11.4962  23
   3   0   3 103.199 10.7065  11
   3   0   3 114.591 11.1959  26
   3   0   3 109.472 11.0827  25
   3   0   4 695.978 30.7056  23
   3   0   4 643.505 28.8096  11
   3   0   4 685.066 28.7949  26
   3   0   4 635.736 28.2093  25
   3   0   5 377.036 23.5594  23
   3   0   5 394.126 22.8499  11
   3   0   5 369.831 21.6558  25
   3   0   6 406.847 25.6810  23
   3   0   6 442.609 25.8023  11
   3   0   6 432.898 24.0096  25
   3   0   7 357.165 24.2379  11
   3   0   8 455.623 30.2396  23
   3   0   8 520.089 31.1823  11
   3   0   9 385.589 28.7401  23
   3   0  10 4.32689 5.59017  23
   3   0  11 136.522 18.8699  23
   3   0  12 7.34600 7.17465  23
   3   0  13 53.5842 13.6695  23
   3   1 -12 330.826 29.0243   8
   3   1 -11-2.67878 5.23205   5
   3   1 -11 6.34450 6.53102   8
   3   1 -10 281.368 27.3117   5
   3   1 -10 291.408 24.6913   8
   3   1  -9 134.361 17.9614   5
   3   1  -9 125.588 15.7191   8
   3   1  -8 1083.01 48.6881   5
   3   1  -8 1026.50 43.1109   8
   3   1  -7 17.7421 7.14839   5
   3   1  -7 18.1866 6.55699   8
   3   1  -6 175.941 17.2733   5
   3   1  -6 184.508 15.7054   8
   3   1  -5 146.710 14.7358   5
   3   1  -5 164.932 14.1113   8
   3   1  -4 483.604 25.3445   5
   3   1  -4 427.320 21.6248   8
   3   1  -3 868.281 33.5495   5
   3   1  -3 819.327 29.8245   8
   3   1  -3 899.874 32.5397  26
   3   1  -2 1296.30 40.7738   5
   3   1  -2 1332.66 38.1930   8
   3   1  -2 1283.17 39.3300  26
   3   1  -2 1232.49 40.2867  24
   3   1  -1 2565.42 62.3841  24
   3   1  -1 2745.24 59.8368   8
   3   1  -1 2583.75 60.6810  26
   3   1   0 2479.38 59.9631  24
   3   1   0 2549.25 53.9134  23
   3   1   0 2433.51 58.3210  26
   3   1   1 1697.17 46.3059  24
   3   1   1 1734.32 43.5651  23
   3   1   2 29.6261 5.80591  24
   3   1   2 32.4928 5.72925  23
   3   1   3 1625.29 45.0611  24
   3   1   3 1570.39 45.9879  23
   3   1   3 1527.93 44.6472  11
   3   1   4 72.0143 9.55142  23
   3   1   4 59.8590 8.10153  26
   3   1   5 818.772 34.6763  23
   3   1   6 39.9261 8.44391  23
   3   1   6 48.1887 7.78107  25
   3   1   7 1071.60 44.3359  23
   3   1   8 4.87652 4.49044  11
   3   1   9 528.795 33.5976  23
   3   1   9 606.007 34.3858  11
   3   1  10 6.36618 5.48365  23
   3   1  11 344.543 29.1207  23
   3   1  12 14.5440 8.53757  23
   3   1  13 40.8693 11.9771  23
   3   2 -11 47.3871 13.0675   5
   3   2 -11 35.3198 10.8006   8
   3   2 -10 12.7425 8.25608   5
   3   2 -10 10.8144 7.61745   8
   3   2  -9 120.183 18.0139   5
   3   2  -9 145.751 17.6248   8
   3   2  -8 85.8783 14.3840   5
   3   2  -8 108.627 15.0224   8
   3   2  -7 320.941 25.4083   5
   3   2  -7 322.228 23.4551   8
   3   2  -6 170.158 17.3380   5
   3   2  -6 175.736 16.4070   8
   3   2  -5 792.472 35.8559   5
   3   2  -5 768.431 33.3839   8
   3   2  -4 109.575 12.3538   5
   3   2  -4 125.102 12.4090   8
   3   2  -3 1129.67 40.2998   5
   3   2  -3 1211.15 24.5157  16
   3   2  -3 1190.49 39.3295   8
   3   2  -3 1176.94 36.9682  26
   3   2  -2 552.614 25.9677   5
   3   2  -2 580.475 14.7397  16
   3   2  -2 546.744 24.7038   8
   3   2  -2 535.193 22.9993  26
   3   2  -1 5065.42 81.7804  16
   3   2  -1 5005.67 95.6940  26
   3   2   0 584.047 20.7908  23
   3   2   0 620.077 17.9005  16
   3   2   0 592.757 23.2811  26
   3   2   1 1584.63 42.1566  26
   3   2   1 1672.04 41.8893  23
   3   2   1 1618.67 36.6937  16
   3   2   2 136.713 11.2960  24
   3   2   2 152.819 11.8422  23
   3   2   2 147.646 11.3174  26
   3   2   3 957.906 32.2542  24
   3   2   3 949.247 33.7800  23
   3   2   3 1005.44 32.3792  26
   3   2   4 490.473 22.3274  24
   3   2   4 464.870 24.0178  23
   3   2   4 451.447 22.3510  11
   3   2   5 1248.39 43.7709  23
   3   2   5 1293.53 41.2399  11
   3   2   6 462.100 26.6653  23
   3   2   6 482.150 24.8305  11
   3   2   7 28.9207 7.53838  23
   3   2   7 34.5688 7.47240  11
   3   2   8 64.2015 10.5535  11
   3   2   9 207.072 20.7294  23
   3   2   9 199.202 18.9295  11
   3   2  10 693.868 39.3244  23
   3   2  10 633.971 35.9393  11
   3   2  11 9.05534 6.99233  23
   3   2  12 268.814 27.0262  23
   3   2  13 17.9442 9.02969  23
   3   3 -10 8.01042 7.82276   5
   3   3 -10-2.39590 5.23189   8
   3   3  -9 38.9295 11.1616   5
   3   3  -9 48.3485 12.1560   8
   3   3  -8-2.00161 5.52886   8
   3   3  -8-2.20156 4.30006   5
   3   3  -7 715.987 39.6498   5
   3   3  -7 716.857 37.7107   8
   3   3  -6 499.138 30.8168   5
   3   3  -6 532.397 30.5615   8
   3   3  -5 1917.48 60.2920   8
   3   3  -5 2112.74 64.2138   5
   3   3  -4 300.595 21.3517   5
   3   3  -4 301.590 13.8649  16
   3   3  -3 197.152 16.3623   5
   3   3  -3 192.845 10.5600  16
   3   3  -3 205.540 13.6958  26
   3   3  -2 87.6062 8.60976  26
   3   3  -2 92.7282 10.7921   5
   3   3  -2 103.182 7.44075  16
   3   3  -2 106.484 11.4862   8
   3   3  -1 25.8234 5.62468  24
   3   3  -1 21.8157 3.65362  16
   3   3  -1 19.3449 4.38021  26
   3   3  -1 20.5190 5.28205   8
   3   3   0 565.590 19.5236  16
   3   3   0 617.878 26.4023   8
   3   3   0 582.077 21.6599  26
   3   3   0 555.402 24.3909  24
   3   3   1 306.001 17.2137  24
   3   3   1 323.290 16.6259  23
   3   3   1 312.252 14.7262  16
   3   3   1 312.483 18.5522   8
   3   3   1 309.994 15.3952  26
   3   3   2 854.780 20.8238   7
   3   3   2 845.764 29.6321  24
   3   3   2 874.879 30.7402  23
   3   3   2 882.012 27.9451  16
   3   3   2 871.579 27.8824  26
   3   3   3 214.620 10.8502   7
   3   3   3 185.109 13.1360  24
   3   3   3 220.281 15.5027  23
   3   3   3 219.039 13.9469  16
   3   3   3 195.245 12.8387  26
   3   3   4 4424.85 83.3795   7
   3   3   4 4294.98 95.1829  23
   3   3   4 4474.23 91.2307  16
   3   3   5 559.666 22.8467   7
   3   3   5 569.826 24.2560  24
   3   3   5 561.991 28.1576  23
   3   3   5 517.724 24.1814  11
   3   3   6 1420.01 49.1556  23
   3   3   6 1364.69 43.5575  11
   3   3   6 1373.55 41.9319   7
   3   3   7 43.4356 9.04349  23
   3   3   7 39.0393 7.83395  11
   3   3   8 691.043 36.7135  23
   3   3   8 738.443 33.3008  11
   3   3   9 12.2413 5.59391  11
   3   3  10 117.715 16.5383  23
   3   3  10 160.978 17.5695  11
   3   3  11-2.27362 4.44071  23
   3   3  11 1.90851 4.56536  11
   3   3  12 284.978 27.6053  23
   3   3  12 267.761 24.9284  11
   3   3  13 126.573 19.4729  23
   3   3  13 147.552 19.9786  11
   3   3  14 59.9258 14.2435  11
   3   4  -9 2.52282 6.03526   5
   3   4  -9 9.73315 8.23199   8
   3   4  -8 66.6010 13.1022   5
   3   4  -8 49.1124 11.5639   8
   3   4  -7 120.477 16.8144   5
   3   4  -6 895.664 43.1867   5
   3   4  -5 606.347 33.1767   5
   3   4  -5 573.038 32.5391   8
   3   4  -4 1032.85 42.7948   5
   3   4  -4 1039.03 32.7211  16
   3   4  -4 1096.47 34.6443  26
   3   4  -4 1146.65 44.8771   8
   3   4  -3 201.209 17.3043   5
   3   4  -3 183.917 12.2934  16
   3   4  -3 191.009 12.5749  26
   3   4  -3 206.738 17.6493   8
   3   4  -2 194.761 16.0501   5
   3   4  -2 182.344 12.0860  16
   3   4  -2 194.656 16.3178   8
   3   4  -2 193.417 11.8519  26
   3   4  -1 7.16793 3.20817  16
   3   4  -1 1.81002 2.04165  26
   3   4  -1 3.70978 3.41601   8
   3   4   0 1349.82 36.7476  16
   3   4   0 1383.73 26.8605   9
   3   4   0 1261.70 42.9320   8
   3   4   0 1343.50 33.6711  26
   3   4   0 1350.90 41.0215  24
   3   4   1 361.386 18.9143  24
   3   4   1 372.515 18.9263  23
   3   4   1 360.243 17.7036  16
   3   4   1 349.049 20.6641   8
   3   4   1 355.977 15.2591  26
   3   4   2 2620.95 59.7591  24
   3   4   2 2514.25 61.8744  23
   3   4   2 2556.66 59.3101  16
   3   4   2 2566.11 65.2074   8
   3   4   2 2651.86 54.4111  26
   3   4   3 372.441 18.4206  24
   3   4   3 383.622 15.7301   7
   3   4   3 385.023 21.4564  23
   3   4   3 383.254 19.8862  16
   3   4   4 1102.10 33.7489  24
   3   4   4 1038.99 30.9876   7
   3   4   4 1029.90 38.7311  23
   3   4   4 1100.40 37.2608  16
   3   4   5 540.440 22.6709  24
   3   4   5 497.461 21.8611   7
   3   4   5 482.253 26.7540  23
   3   4   5 494.539 25.3213  16
   3   4   6 765.678 29.9855   7
   3   4   6 802.976 36.3020  23
   3   4   6 749.918 29.3741  11
   3   4   6 704.342 32.2646  16
   3   4   7 719.901 30.9312   7
   3   4   7 756.927 36.8020  23
   3   4   7 738.612 30.5422  11
   3   4   8 33.1840 7.65239   7
   3   4   8 39.9665 9.39910  23
   3   4   8 28.4409 7.05669  11
   3   4   9 9.50136 5.13032   7
   3   4   9 6.96433 4.71339  11
   3   4  10 19.1603 8.05360  23
   3   4  10 7.78598 5.04603  11
   3   4  11 554.285 36.9401  23
   3   4  11 526.090 31.7745  11
   3   4  12 29.5963 10.5045  23
   3   4  12 21.1885 8.41967  11
   3   4  13 178.452 23.3598  23
   3   4  13 196.780 21.7372  11
   3   5  -8 101.416 17.1412   8
   3   5  -7-2.17944 4.25678   5
   3   5  -7 2.27212 6.27598   8
   3   5  -6 96.8062 15.2529   5
   3   5  -6 95.9615 15.3063   8
   3   5  -5 3.58430 4.63114   5
   3   5  -5 9.56040 6.73304   8
   3   5  -4 521.483 30.1353   5
   3   5  -4 553.252 25.6164  16
   3   5  -4 481.845 30.3569   8
   3   5  -3 567.744 30.0266   5
   3   5  -3 575.192 25.5114  16
   3   5  -3 539.818 30.7882   8
   3   5  -2 486.173 22.7210  16
   3   5  -2 444.129 26.6791   8
   3   5  -1 403.004 20.3559  16
   3   5  -1 381.785 23.8870   8
   3   5   0 204.160 14.3005  16
   3   5   0 205.389 16.8548   8
   3   5   0 177.894 13.9517  24
   3   5   1 1656.33 45.6102  24
   3   5   1 1640.81 46.5389  16
   3   5   1 1690.46 37.7265   9
   3   5   1 1759.32 52.9074   8
   3   5   2 1010.18 32.9021  24
   3   5   2 1048.26 37.4088  23
   3   5   2 1086.09 29.1669   9
   3   5   2 1060.42 36.3945  16
   3   5   2 1050.65 39.5668   8
   3   5   3 599.089 23.4352  24
   3   5   3 632.872 29.2433  23
   3   5   3 619.945 27.5313  16
   3   5   4 324.916 16.4242  24
   3   5   4 313.977 21.0457  23
   3   5   4 313.891 19.8788  16
   3   5   5 314.482 16.2237  24
   3   5   5 271.146 20.6048  23
   3   5   5 323.600 20.8350  16
   3   5   6 18.4303 5.29912   7
   3   5   6 24.0827 7.01598  23
   3   5   6 11.3505 5.37168  16
   3   5   7 909.813 36.0259   7
   3   5   7 891.063 41.3767  23
   3   5   8 232.838 18.8328   7
   3   5   8 263.611 22.9568  23
   3   5   8 256.520 17.6277  11
   3   5   9 913.161 40.8620   7
   3   5   9 973.827 37.5175  11
   3   5  10 113.440 15.3130   7
   3   5  11 235.561 22.5591   7
   3   5  11 215.052 23.7516  23
   3   5  12 2.51511 4.25438  23
   3   5  13 56.1655 14.0879  23
   3   6  -7 37.8301 12.0777   8
   3   6  -6 16.2777 8.19109   8
   3   6  -5 81.4340 14.5450   8
   3   6  -4 179.625 16.1819  16
   3   6  -4 195.551 20.4924   8
   3   6  -3 1174.40 42.3853  16
   3   6  -3 1303.68 51.7234   8
   3   6  -2 49.0252 8.49739  16
   3   6  -2 61.1797 10.9093   8
   3   6  -1 399.103 22.6385  16
   3   6  -1 359.040 24.8350   8
   3   6   0 256.116 18.0015  16
   3   6   0 227.482 19.1470   8
   3   6   0 238.370 16.3411  24
   3   6   1 1121.08 35.8973  24
   3   6   1 1108.26 39.4168  16
   3   6   1 1068.55 42.4342   8
   3   6   2 111.315 10.1185  24
   3   6   2 101.048 11.6442  16
   3   6   2 112.332 9.63013   9
   3   6   2 104.917 12.8569   8
   3   6   3 301.031 15.5868  24
   3   6   3 282.879 20.3822  23
   3   6   3 277.747 19.6477  16
   3   6   3 246.014 15.1080   9
   3   6   4 1.50090 3.27754  23
   3   6   4 1.36375 3.26230  16
   3   6   5 70.8441 11.1764  23
   3   6   5 91.5131 12.0905  16
   3   6   6 236.747 20.8758  23
   3   6   6 241.168 19.8091  16
   3   6   7 562.752 28.5198   7
   3   6   7 551.582 33.5972  23
   3   6   8 908.706 39.2592   7
   3   6   8 888.458 44.0864  23
   3   6   8 944.524 43.8208  16
   3   6   9 325.830 24.1022   7
   3   6   9 334.378 27.6217  23
   3   6  10 214.874 20.6117   7
   3   6  11 16.2901 7.70422   7
   3   6  11 12.3245 6.81134  23
   3   6  12 139.613 18.6286   7
   3   6  12 130.735 19.7068  23
   3   6  13 8.26479 7.60982  23
   3   6  13 2.46131 5.37507   7
   3   7  -6 10.2545 7.91830   8
   3   7  -5 54.7296 12.7515   8
   3   7  -4 17.7723 6.88293  16
   3   7  -4 22.0652 9.39660   8
   3   7  -3 127.519 15.1069  16
   3   7  -3 192.429 20.6916   8
   3   7  -2 363.472 24.3220  16
   3   7  -2 352.105 27.0406   8
   3   7  -1 228.360 18.9206  16
   3   7  -1 231.451 21.1311   8
   3   7   0 147.470 15.1005  16
   3   7   0 162.420 16.9900   8
   3   7   1-4.33091 1.99420  16
   3   7   1 1.61514 3.52720   8
   3   7   2 266.796 20.4656  16
   3   7   2 283.544 21.7220   8
   3   7   3 509.339 28.9595  16
   3   7   3 555.786 25.0641   9
   3   7   3 560.401 30.9392   8
   3   7   4 1481.68 52.1679  16
   3   7   4 1355.97 43.2253   9
   3   7   5 107.375 14.5068  23
   3   7   5 128.288 15.3277  16
   3   7   6 265.694 23.1006  23
   3   7   6 280.681 22.7779  16
   3   7   7 2.01608 4.40256  23
   3   7   8 189.349 21.1863  23
   3   7   8 182.969 17.7858   7
   3   7   8 204.492 21.0335  16
   3   7   9 93.2122 14.0208   7
   3   7   9 105.415 16.3505  23
   3   7   9 94.7251 15.4447  16
   3   7  10 305.571 25.0805   7
   3   7  10 256.559 25.8897  23
   3   7  10 270.273 25.4803  16
   3   7  11 2.11228 6.18844   7
   3   7  12 25.3162 9.79871   7
   3   7  12 5.47043 8.01566  23
   3   8  -5 10.4601 8.84768   8
   3   8  -4 29.2328 10.6472   8
   3   8  -3 16.6322 6.99352  16
   3   8  -3 15.9633 8.91118   8
   3   8  -2 346.141 25.8695  16
   3   8  -2 362.847 29.0144   8
   3   8  -1 56.0454 10.9775  16
   3   8  -1 49.9703 11.0676   8
   3   8   0 94.9275 13.9506  16
   3   8   0 75.4388 13.0783   8
   3   8   1 24.0050 7.86167  16
   3   8   1 25.1275 7.84633   8
   3   8   2 308.603 23.9132  16
   3   8   3 331.134 24.8832  16
   3   8   4 579.441 34.0461  16
   3   8   4 680.228 30.9990   9
   3   8   5 284.436 20.4990   9
   3   8   5 246.601 22.2173  16
   3   8   6 50.4180 11.2490  23
   3   8   6 29.1606 8.71586  16
   3   8   7 35.3285 9.89407  23
   3   8   8 16.2748 7.87156  23
   3   8   8 30.0094 8.88678  16
   3   8   9 125.494 18.8285  23
   3   8   9 108.493 15.5733   7
   3   8   9 90.8054 15.7483  16
   3   8  10 14.2642 8.20995   7
   3   8  10 18.1699 8.78570  23
   3   8  10 31.2734 9.97122  16
   3   8  11 101.569 16.2001   7
   3   8  12 49.9406 12.7400   7
   3   9  -3 15.0240 7.56024  16
   3   9  -2 52.3474 12.4603  16
   3   9  -1 213.370 21.7895  16
   3   9   0 107.171 15.7471  16
   3   9   1 58.1403 12.0971  16
   3   9   2 2.00604 3.91818  16
   3   9   3 68.8104 12.6927  16
   3   9   4 115.573 16.2065  16
   3   9   5 400.491 30.3077  16
   3   9   6 132.878 18.8438  23
   3   9   6 102.557 15.8872  16
   3   9   7 170.075 21.2261  23
   3   9   8 7.60699 6.06708  23
   3   9   8 14.0980 9.17949  16
   3   9   9 18.5352 8.96226  23
   3   9   9 22.1377 9.30777  16
   3   9  10 40.9865 11.5574   7
   3   9  10 54.2223 13.3590  16
   3   9  11 287.372 27.2744   7
   3  10  -1 37.7104 11.2885  16
   3  10   0 34.8764 10.9007  16
   3  10   1 110.689 17.6583  16
   3  10   2 48.3468 12.5367  16
   3  10   3 46.2521 11.7534  16
   3  10   4 21.0939 10.2404  16
   3  10   5 107.519 17.3713  16
   3  10   6 160.957 21.0223  16
   3  10   7 96.0986 17.5402  23
   4  -7  -6-2.74195 6.55914  21
   4  -7  -5 24.8278 11.1133  21
   4  -7  -4 22.1083 10.1028  21
   4  -7  -3 41.5458 13.2640  21
   4  -7  -2-2.75502 6.59029  21
   4  -7  -2 2.20046 6.07802  25
   4  -7  -1 32.9252 12.0007  21
   4  -7  -1 63.1334 13.7165  25
   4  -7   0 43.4313 12.9940  21
   4  -7   0 24.8425 9.40641  25
   4  -7   1 69.8545 15.5443  21
   4  -7   1 50.0247 13.1365  25
   4  -7   2 37.1801 12.7164  21
   4  -6  -8 27.0698 11.5294  26
   4  -6  -6 56.5472 13.3920  21
   4  -6  -5 19.8185 9.05642  21
   4  -6  -4 2.48544 4.85455  21
   4  -6  -3 2.48333 6.41644  21
   4  -6  -2 89.1101 16.0887  21
   4  -6  -2 96.7913 15.0552  25
   4  -6  -1 140.924 19.5708  21
   4  -6  -1 144.969 18.4985  25
   4  -6   0 277.978 26.0373  25
   4  -6   1 46.4157 12.1830  21
   4  -6   1 47.8776 12.8220  25
   4  -6   2 86.1195 16.6141  25
   4  -6   2 43.5903 12.3166  21
   4  -6   3-2.39523 4.67836  21
   4  -6   4 38.0269 11.6145  21
   4  -6   4 28.1097 11.6560  25
   4  -6   5-4.68297 3.96111  21
   4  -5  -9 2.80828 6.71780  26
   4  -5  -8 60.4767 14.3226  26
   4  -5  -7 17.2562 8.68350  26
   4  -5  -6 238.593 24.5973  26
   4  -5  -5 63.8767 12.9428  21
   4  -5  -5 74.1627 13.8391  26
   4  -5  -4 195.705 20.9535  26
   4  -5  -4 152.818 19.6189  21
   4  -5  -3 28.8376 9.69358  21
   4  -5  -3 19.6904 7.69867  26
   4  -5  -2 214.980 22.7843  21
   4  -5  -2 199.373 20.0982  26
   4  -5  -1 42.0033 11.2316  21
   4  -5  -1 36.8172 9.66493  25
   4  -5   0 209.667 22.1291  21
   4  -5   0 159.559 19.3322  25
   4  -5   1 38.8904 11.5698  25
   4  -5   2 24.1117 8.56893  21
   4  -5   2 22.8411 8.64546  25
   4  -5   3 28.4372 9.07712  21
   4  -5   3 48.2721 12.2579  25
   4  -5   4 54.4363 12.4306  21
   4  -5   4 73.9836 14.9744  25
   4  -5   5 23.8073 9.69227  21
   4  -5   5 26.7989 10.4745  25
   4  -5   6 2.81114 6.13875  25
   4  -4  -9 2.72927 7.53878  26
   4  -4  -8 61.0496 14.0789  26
   4  -4  -7 30.8320 10.1052  26
   4  -4  -6 221.960 22.9501  26
   4  -4  -5 461.296 31.1027  21
   4  -4  -5 507.252 33.6958  26
   4  -4  -4 383.368 28.5714  21
   4  -4  -4 415.255 29.3765  26
   4  -4  -3 137.635 17.3791  21
   4  -4  -3 123.596 15.9444  26
   4  -4  -2 23.6520 7.94270  21
   4  -4  -2 21.6618 7.48600  26
   4  -4  -1 130.443 16.7955  21
   4  -4  -1 105.335 14.3355  26
   4  -4   0-1.97603 3.34251  21
   4  -4   0-1.72917 2.38826  26
   4  -4   0-1.84826 1.80514  25
   4  -4   1 147.362 16.6836  26
   4  -4   1 132.477 16.9194  25
   4  -4   2 17.8083 7.97192  21
   4  -4   2 20.5919 7.49934  26
   4  -4   3 177.169 19.5925  21
   4  -4   3 182.502 18.4838  26
   4  -4   3 156.199 19.2226  25
   4  -4   4 19.9565 7.80293  21
   4  -4   4 29.7526 9.48851  25
   4  -4   5 216.971 22.3422  11
   4  -4   5 244.077 24.9631  25
   4  -4   6 69.3015 14.0142  11
   4  -4   6 70.9485 15.0845  25
   4  -4   7 201.460 23.6617  11
   4  -4   7 230.842 25.8311  25
   4  -4   8 13.1347 9.93651  11
   4  -4   8 5.52518 8.53230  25
   4  -3 -11 51.8367 13.0021   5
   4  -3 -10 60.8975 13.4400   5
   4  -3 -10 102.420 18.6679  26
   4  -3  -9 202.716 21.2896   5
   4  -3  -9 238.068 26.3955  26
   4  -3  -8 7.40048 5.71399   5
   4  -3  -8 2.45469 6.34277  26
   4  -3  -7 194.818 19.0312   5
   4  -3  -7 202.677 22.3047  26
   4  -3  -6 4.23715 5.47423  26
   4  -3  -5 273.768 23.8853  26
   4  -3  -4 188.008 18.8280  21
   4  -3  -4 224.541 21.1922  26
   4  -3  -3 1100.71 46.2161  21
   4  -3  -3 1053.81 45.9510  26
   4  -3  -2 91.1769 13.4510  21
   4  -3  -2 114.040 14.4671  26
   4  -3  -1 191.178 16.6007  24
   4  -3  -1 179.789 18.3952  21
   4  -3  -1 169.228 17.4117  26
   4  -3   0 8.30766 4.87766  24
   4  -3   0 8.85978 5.74121  21
   4  -3   0 13.0604 5.96724  26
   4  -3   0 13.4443 5.68717  25
   4  -3   1 297.549 21.1414  24
   4  -3   1 285.781 23.2210  21
   4  -3   1 261.771 21.4975  26
   4  -3   2 366.824 25.2737  26
   4  -3   2 343.459 25.9941  25
   4  -3   3 132.561 16.0694  21
   4  -3   3 138.690 15.7441  26
   4  -3   3 124.386 16.3238  25
   4  -3   4 67.0260 11.9006  11
   4  -3   4 60.3194 11.4885  26
   4  -3   4 61.4565 12.0363  25
   4  -3   5 103.709 15.3551  11
   4  -3   5 99.4697 15.8681  25
   4  -3   6 114.316 16.4958  11
   4  -3   6 125.026 17.8396  25
   4  -3   7 9.21684 6.75112  11
   4  -3   7 2.38707 6.16811  25
   4  -3   8 112.645 17.8297  11
   4  -3   8 54.8579 13.8176  25
   4  -3   9 2.71699 7.50487  11
   4  -2 -11 47.1839 13.0701   5
   4  -2 -10 9.60694 8.45780   5
   4  -2  -9 341.549 28.4549   5
   4  -2  -8 59.4642 12.1265   5
   4  -2  -8 80.4175 14.8211  26
   4  -2  -7 80.5973 13.0155   5
   4  -2  -7 69.9282 13.5392  26
   4  -2  -6-1.75054 3.82262  24
   4  -2  -6 4.85120 4.73755   5
   4  -2  -6-2.02214 3.94952  26
   4  -2  -5 27.7776 7.66231  24
   4  -2  -5 26.3445 8.42999  26
   4  -2  -4 787.196 36.4272  24
   4  -2  -4 719.086 35.0990  21
   4  -2  -4 733.847 37.6925  26
   4  -2  -3 693.416 33.0971  24
   4  -2  -3 657.864 33.4395  21
   4  -2  -3 627.321 34.1013  26
   4  -2  -2 315.058 21.7698  24
   4  -2  -2 380.298 25.1596  21
   4  -2  -2 330.804 23.7428  26
   4  -2  -1 35.8029 8.21188  24
   4  -2  -1 52.8649 9.74952  26
   4  -2   0 893.795 36.8459  24
   4  -2   0 862.225 38.5072  26
   4  -2   1 83.8018 11.1969  24
   4  -2   1 63.4362 10.8278  21
   4  -2   1 84.2807 11.9272  26
   4  -2   2 736.860 33.8178  24
   4  -2   2 649.743 34.3096  21
   4  -2   2 708.513 34.5434  26
   4  -2   2 670.980 34.6938  25
   4  -2   3 34.6480 8.14811  26
   4  -2   3 22.6803 7.43720  25
   4  -2   4 271.536 22.0674  11
   4  -2   4 309.587 22.7884  26
   4  -2   4 291.755 23.6555  25
   4  -2   5 7.36873 5.39812  11
   4  -2   5 7.71731 5.95908  25
   4  -2   6 85.7708 14.3604  11
   4  -2   6 77.2031 13.3590  25
   4  -2   7 2.17589 4.75146  11
   4  -2   7-2.12977 3.60246  25
   4  -2   8 270.317 26.1487  11
   4  -2   8 249.744 24.5252  25
   4  -2   9 77.2908 15.1356  11
   4  -2  10 47.4840 13.6552  11
   4  -1 -11-2.76217 6.03182   5
   4  -1 -10 27.8952 10.5144   5
   4  -1  -9 159.663 20.2119   5
   4  -1  -8 706.842 40.2957   5
   4  -1  -7 119.967 16.0718   5
   4  -1  -7 100.271 14.8291  24
   4  -1  -6 896.411 41.2819   5
   4  -1  -6 888.442 42.1632  24
   4  -1  -5 13.4641 6.57556  24
   4  -1  -5 6.25875 5.06948   5
   4  -1  -4 106.820 13.4412  24
   4  -1  -4 94.8399 9.82219   8
   4  -1  -4 85.0626 12.4774  26
   4  -1  -3 8.90690 5.22860  24
   4  -1  -3 9.44973 5.10281  26
   4  -1  -2 1088.11 42.0079  24
   4  -1  -2 1025.18 42.1544  26
   4  -1  -1 393.721 24.1028  24
   4  -1  -1 429.874 25.8722  26
   4  -1   0 914.341 37.3898  24
   4  -1   0 919.476 38.4844  26
   4  -1   1 9.44615 4.93337  24
   4  -1   1 12.8934 5.23706  26
   4  -1   2 255.986 19.1766  24
   4  -1   2 240.480 18.9894  26
   4  -1   3 886.742 37.4477  24
   4  -1   3 832.647 37.1885  23
   4  -1   3 866.169 37.5592  26
   4  -1   4 465.044 28.7498  23
   4  -1   4 501.308 29.1319  11
   4  -1   4 509.643 28.6841  26
   4  -1   4 491.755 29.7804  25
   4  -1   5 146.008 16.8206  23
   4  -1   5 131.384 15.7847  11
   4  -1   5 149.952 16.5287  25
   4  -1   6 3.91408 5.40612  23
   4  -1   6 1.87097 4.47610  11
   4  -1   6 10.8533 5.58664  25
   4  -1   7 59.2744 12.7847  23
   4  -1   7 85.7926 14.4210  11
   4  -1   7 73.9587 12.7372  25
   4  -1   8-2.27987 4.45291  23
   4  -1   8 6.69452 6.89132  11
   4  -1   9 348.314 30.0019  23
   4  -1   9 255.419 25.9242  11
   4  -1  10 36.3202 11.3429  23
   4  -1  10 39.5888 12.1010  11
   4  -1  11 79.3400 16.9350  23
   4   0 -10 141.271 21.0814   5
   4   0  -9 26.7932 10.3754   5
   4   0  -8 501.026 34.6216   5
   4   0  -7 475.344 31.9004   5
   4   0  -7 501.220 27.4692   8
   4   0  -7 461.902 31.6294  26
   4   0  -6 677.304 36.1577   5
   4   0  -6 644.880 30.0995   8
   4   0  -6 659.196 36.2259  26
   4   0  -6 658.400 36.7289  24
   4   0  -5 99.6005 13.3532   5
   4   0  -5 108.853 11.9008   8
   4   0  -5 98.3009 13.4275  26
   4   0  -5 116.338 14.7610  24
   4   0  -4 77.4619 11.5412   5
   4   0  -4 79.1798 9.69550   8
   4   0  -4 73.9239 11.5461  26
   4   0  -4 77.2386 12.0175  24
   4   0  -3 99.3510 12.7100  24
   4   0  -3 98.4108 10.4693   8
   4   0  -3 73.9526 10.9793  26
   4   0  -2 353.453 23.0673  24
   4   0  -2 371.085 19.8817   8
   4   0  -1 931.384 37.7860  24
   4   0   0 41.1630 7.91325  24
   4   0   0 49.3523 8.66377  26
   4   0   1 1398.73 47.2640  24
   4   0   1 1398.68 44.0298  23
   4   0   1 1421.51 47.8949  26
   4   0   2 82.2452 10.9773  24
   4   0   2 81.3196 10.5739  23
   4   0   2 82.5295 11.1151  26
   4   0   3 1416.49 47.8881  24
   4   0   3 1325.94 47.3109  23
   4   0   3 1433.92 48.4040  26
   4   0   4 280.589 20.3736  24
   4   0   4 276.977 21.3960  23
   4   0   4 259.229 19.7032  26
   4   0   5 855.937 39.9599  23
   4   0   5 779.696 37.5658  11
   4   0   6 3.72338 3.63621  23
   4   0   6-1.75274 3.42341  11
   4   0   6 3.22608 4.16777  25
   4   0   7 243.240 23.0493  23
   4   0   7 221.632 21.5105  11
   4   0   7 213.753 19.7748  25
   4   0   8 4.38433 5.66420  23
   4   0   8 2.08970 4.56343  11
   4   0   9 143.879 19.6763  11
   4   0  10 27.7433 10.7475  23
   4   0  10 44.7509 12.6255  11
   4   0  11 29.3839 11.0755  23
   4   1  -9 15.4511 7.06065   8
   4   1  -8-3.53080 3.85539   8
   4   1  -7 535.151 30.3265   8
   4   1  -6 31.5695 8.57237  26
   4   1  -6 23.5922 7.35233   8
   4   1  -5 953.819 38.2957   8
   4   1  -5 900.825 40.2032  26
   4   1  -4 86.2003 10.9024   8
   4   1  -4 69.6564 11.0803  26
   4   1  -4 84.3662 12.3550  24
   4   1  -3 603.032 27.7845   8
   4   1  -3 575.252 29.4452  26
   4   1  -3 592.350 31.4045  24
   4   1  -2 76.1927 11.0107  24
   4   1  -2 76.2800 9.78837   8
   4   1  -2 61.5180 9.61781  26
   4   1  -1 1839.44 56.0576  24
   4   1  -1 1789.31 51.1728   8
   4   1  -1 1796.93 53.8625  26
   4   1   0 621.432 29.6086  24
   4   1   0 576.789 27.9844  26
   4   1   1 924.923 36.7550  24
   4   1   1 926.583 33.5862  23
   4   1   1 873.706 35.2630  26
   4   1   2 6.42248 3.96677  24
   4   1   2-1.16983 1.61563  23
   4   1   3 3.91083 3.60206  24
   4   1   3 11.8680 4.81937  23
   4   1   4 278.677 19.8650  24
   4   1   4 260.489 20.0724  23
   4   1   5 493.717 29.3105  23
   4   1   6 985.841 44.1984  23
   4   1   7 297.977 24.7292  23
   4   1   8 242.988 23.3492  23
   4   1   8 251.447 22.9517  11
   4   1   9 46.1152 11.9333  23
   4   1   9 46.9283 11.4288  11
   4   1  10 222.710 24.5023  23
   4   1  10 235.880 24.4608  11
   4   1  11 34.2838 11.2361  23
   4   1  11 32.9658 10.8049  11
   4   1  12 142.170 21.5321  23
   4   1  12 145.416 21.6978  11
   4   2 -10 14.1182 8.60029   8
   4   2  -9 99.0665 17.9689   5
   4   2  -9 80.4934 14.6180   8
   4   2  -8 19.5857 8.28592   5
   4   2  -8 16.0313 7.32654   8
   4   2  -7 43.8840 10.1266  26
   4   2  -7 44.0242 10.1588   8
   4   2  -6 118.075 16.6046   5
   4   2  -6 134.661 15.8617   8
   4   2  -6 114.765 14.8100  26
   4   2  -5 588.507 34.3415   5
   4   2  -5 580.276 31.3494   8
   4   2  -5 624.453 32.0102  26
   4   2  -4 1524.58 55.3288   5
   4   2  -4 1587.43 52.6950   8
   4   2  -4 1629.02 52.5621  26
   4   2  -3 531.705 27.8419   8
   4   2  -3 545.924 27.6413  26
   4   2  -3 545.259 30.1865  24
   4   2  -2 732.690 32.0447   8
   4   2  -2 726.483 31.5281  26
   4   2  -2 689.518 33.4189  24
   4   2  -1 217.561 17.7364  24
   4   2  -1 228.016 17.1939   8
   4   2  -1 194.250 15.5320  26
   4   2   0 866.165 34.5837   8
   4   2   0 897.349 34.3328  26
   4   2   1 4.57431 3.53218  26
   4   2   2 694.476 29.5777  23
   4   2   2 650.683 29.2470  26
   4   2   3 182.721 15.5700  24
   4   2   3 185.285 15.8322  23
   4   2   3 161.436 14.3752  26
   4   2   4 339.828 21.5596  24
   4   2   4 322.155 22.2687  23
   4   2   4 347.774 21.3033  26
   4   2   5 361.107 22.6241  24
   4   2   5 329.153 23.5983  23
   4   2   6 2040.19 66.8912  23
   4   2   6 2192.02 64.8518  11
   4   2   7 255.587 22.6707  23
   4   2   7 269.539 21.7537  11
   4   2   8 416.152 30.7034  23
   4   2   8 498.689 31.0532  11
   4   2   9 20.3918 8.85579  23
   4   2   9 21.8815 8.24731  11
   4   2  10 93.4799 15.5124  11
   4   2  11 31.3472 11.1312  23
   4   2  11 40.3768 12.0627  11
   4   2  12 5.54902 8.56836  23
   4   2  12 2.56857 5.60915  11
   4   3  -9 72.5383 15.4514   5
   4   3  -9 82.4346 15.5650   8
   4   3  -8 100.143 17.7830   5
   4   3  -8 91.8396 15.6803   8
   4   3  -7-2.34894 3.97347   5
   4   3  -7 10.3333 6.06429  26
   4   3  -7 10.3287 6.05224   8
   4   3  -6 490.980 33.7412   5
   4   3  -6 479.060 31.2641   8
   4   3  -6 482.237 28.7633  26
   4   3  -5 131.254 15.9271   8
   4   3  -5 133.108 14.6542  26
   4   3  -4 1394.46 54.0781   5
   4   3  -4 1528.14 54.0001   8
   4   3  -4 1496.78 48.5901  26
   4   3  -3 201.428 18.0046   8
   4   3  -3 176.351 15.1343  26
   4   3  -2 131.083 14.0916   8
   4   3  -2 118.915 12.1619  26
   4   3  -2 120.181 13.9492  24
   4   3  -1 64.3239 10.0634  24
   4   3  -1 45.6843 7.59113  26
   4   3  -1 55.8708 9.34609   8
   4   3   0 939.852 37.3858  24
   4   3   0 938.837 26.4479  16
   4   3   0 934.146 33.8085  26
   4   3   1 774.296 33.2458  24
   4   3   1 796.128 30.7059  26
   4   3   2 1231.57 43.0899  24
   4   3   2 1321.97 42.8259  23
   4   3   3 482.408 25.3482  24
   4   3   3 488.575 25.8600  23
   4   3   3 498.320 24.4956  26
   4   3   4 106.459 11.7904  24
   4   3   4 89.6342 11.6244  23
   4   3   5 379.287 22.6682  24
   4   3   5 363.707 24.7395  23
   4   3   6 121.797 15.5761  23
   4   3   7 496.561 31.6585  23
   4   3   7 431.754 26.9752  11
   4   3   8 114.525 16.0882  23
   4   3   8 107.920 14.0607  11
   4   3   9 399.574 31.0317  23
   4   3   9 374.982 27.3673  11
   4   3  10 41.3773 12.3562  23
   4   3  10 18.2090 8.39045  11
   4   3  11 127.646 19.6228  23
   4   3  11 125.776 17.8600  11
   4   3  12 49.8898 13.5502  23
   4   3  12 45.4582 12.1593  11
   4   3  13 247.841 27.2634  11
   4   4  -8 310.405 29.9439   5
   4   4  -8 256.537 26.3829   8
   4   4  -7 41.7762 11.7749   5
   4   4  -7 50.6713 12.1303   8
   4   4  -6 121.637 17.4195   5
   4   4  -6 140.580 18.1090   8
   4   4  -5 101.142 15.4150   5
   4   4  -5 96.4005 14.6984   8
   4   4  -4 34.1459 9.27022   5
   4   4  -4 20.1217 8.19470   8
   4   4  -3 217.567 16.0673  26
   4   4  -2 51.1306 9.71916  24
   4   4  -2 56.5500 8.02642  26
   4   4  -1 627.218 32.0946   8
   4   4  -1 554.428 24.3479  26
   4   4  -1 564.828 29.6242  24
   4   4   0 241.794 18.4915  24
   4   4   0 233.298 13.7704  16
   4   4   0 256.429 19.9773   8
   4   4   0 245.928 15.6413  26
   4   4   1 1272.84 44.3928  24
   4   4   1 1438.37 39.5089  16
   4   4   1 1311.80 47.7853   8
   4   4   1 1417.10 40.8434  26
   4   4   2 458.740 24.5607  24
   4   4   2 429.110 20.9797  16
   4   4   2 479.778 22.2291  26
   4   4   3 3138.33 75.7314  24
   4   4   3 3149.86 78.5642  23
   4   4   3 3106.94 72.5432  16
   4   4   3 3339.63 72.8382  26
   4   4   4 189.392 15.3260  24
   4   4   4 179.911 16.9282  23
   4   4   4 174.498 14.7731  16
   4   4   5 57.1629 8.95728  24
   4   4   5 37.3149 8.25888  23
   4   4   6 183.657 15.5969  24
   4   4   6 177.434 18.4349  23
   4   4   7 177.657 19.0251  23
   4   4   8 50.3298 11.4276  23
   4   4   8 56.1952 10.3668  11
   4   4   9 329.235 28.3884  23
   4   4   9 361.277 25.6046  11
   4   4  10 146.909 19.9598  23
   4   4  10 133.902 17.1512  11
   4   4  11 121.979 16.8178  11
   4   4  12 164.860 23.1136  23
   4   4  12 167.980 20.6125  11
   4   4  13 42.8884 12.1060  11
   4   5  -8 119.097 19.9476   5
   4   5  -7 230.160 25.3293   5
   4   5  -7 252.678 26.5976   8
   4   5  -6 11.7700 7.62626   5
   4   5  -5 194.813 21.7330   5
   4   5  -4-2.04706 4.89687   8
   4   5  -3 598.462 35.0612   8
   4   5  -2 473.234 30.0886   8
   4   5  -2 528.935 29.9680  24
   4   5  -1 409.414 27.0376   8
   4   5  -1 390.889 24.7113  24
   4   5   0 14.9300 5.62553  24
   4   5   0 11.4140 4.25935  16
   4   5   0 6.51931 4.77730   8
   4   5   1 366.478 22.2476  24
   4   5   1 360.702 20.0286  16
   4   5   1 339.546 23.9990   8
   4   5   2 806.341 32.7963  24
   4   5   2 768.361 30.7822  16
   4   5   2 740.676 35.9617   8
   4   5   3 1005.93 36.6236  24
   4   5   3 914.814 38.6243  23
   4   5   3 967.588 36.2236  16
   4   5   4 458.330 23.7772  24
   4   5   4 496.206 28.6918  23
   4   5   4 440.563 24.8084  16
   4   5   5 1.11915 3.09137  24
   4   5   5-1.70613 3.72571  23
   4   5   5 9.85433 5.32455  16
   4   5   6 104.032 11.1292   7
   4   5   6 118.289 12.3860  24
   4   5   6 83.4492 13.1380  23
   4   5   6 97.2182 12.7792  16
   4   5   7 67.3887 9.92009   7
   4   5   7 82.2848 13.7578  23
   4   5   8 534.367 34.9605  23
   4   5   9 160.295 20.5439  23
   4   5  10 507.022 36.4677  23
   4   5  12 67.9325 15.4205  23
   4   6  -6 75.6787 16.1535   8
   4   6  -5 75.5331 14.8982   8
   4   6  -4 145.561 19.3454   8
   4   6  -3 140.537 18.2371   8
   4   6  -2 385.518 28.5509   8
   4   6  -2 403.221 26.5731  24
   4   6  -1 111.501 15.2959   8
   4   6  -1 105.725 13.7639  24
   4   6   0 320.330 21.8966  24
   4   6   0 327.762 20.3226  16
   4   6   0 280.034 23.4236   8
   4   6   1 10.2105 4.98855  24
   4   6   1 12.2091 5.19995  16
   4   6   1 15.8250 7.28720   8
   4   6   2 189.418 15.5153  24
   4   6   2 189.063 16.2360  16
   4   6   2 171.850 17.9699   8
   4   6   3-1.11731 2.43986  24
   4   6   3 2.70139 4.17120  16
   4   6   4 1013.61 36.1164  24
   4   6   4 1036.31 44.2122  23
   4   6   4 1008.12 40.7585  16
   4   6   5 617.596 34.9539  23
   4   6   5 587.467 31.3696  16
   4   6   6 818.556 41.7361  23
   4   6   6 826.634 39.1406  16
   4   6   7 78.9657 10.9676   7
   4   6   7 86.6068 14.6266  23
   4   6   7 66.6733 11.7228  16
   4   6   8 212.774 18.4073   7
   4   6   8 215.082 22.9634  23
   4   6   9 44.3936 9.92202   7
   4   6   9 55.6362 12.7399  23
   4   6  10 159.688 21.2707  23
   4   6  10 110.540 15.4776   7
   4   6  11 65.5651 14.8831  23
   4   7  -5 2.67975 5.85184   8
   4   7  -4 168.376 21.5275   8
   4   7  -3 42.3567 11.9559   8
   4   7  -2 261.051 24.7132   8
   4   7  -2 254.822 21.7609  24
   4   7  -1 334.853 27.7307   8
   4   7  -1 319.868 23.1505  24
   4   7   0 419.459 25.3603  16
   4   7   0 427.103 30.4088   8
   4   7   1 20.3428 6.96062  16
   4   7   1 32.8875 9.26200   8
   4   7   2 36.0133 8.55757  16
   4   7   2 30.3780 8.50973   8
   4   7   3 90.3341 12.4226  16
   4   7   4 244.659 20.6903  16
   4   7   5 580.978 35.1209  23
   4   7   5 678.957 35.4570  16
   4   7   6 227.238 22.9372  23
   4   7   6 241.087 21.5123  16
   4   7   7 171.065 20.3795  23
   4   7   7 138.472 17.1707  16
   4   7   8 9.57825 6.61537  23
   4   7   8 8.32541 6.09907  16
   4   7   9 144.808 20.5611  23
   4   7  10 43.1554 10.2222   7
   4   7  10 48.4882 13.1689  23
   4   7  11 170.422 20.2220   7
   4   7  11 150.710 22.3332  23
   4   7  12 2.27321 7.02017   7
   4   8  -3 105.657 17.6798   8
   4   8  -2 38.8669 11.6347   8
   4   8  -1 234.685 24.2195   8
   4   8   0 168.951 18.0350  16
   4   8   0 206.160 22.2039   8
   4   8   1 360.362 25.7942  16
   4   8   1 273.432 25.0681   8
   4   8   2 27.9139 8.52411  16
   4   8   2 16.5651 7.29714   8
   4   8   3 50.1596 10.6651  16
   4   8   4-1.85064 4.78169  16
   4   8   5 208.643 22.0052  23
   4   8   5 292.538 24.6084  16
   4   8   6 184.518 21.3520  23
   4   8   6 153.138 18.2942  16
   4   8   7 204.913 23.2496  23
   4   8   7 205.987 21.4485  16
   4   8   8 45.8716 12.2126  23
   4   8   8 53.9233 12.4321  16
   4   8   9 91.4161 17.8548  23
   4   8   9 90.2453 16.2854  16
   4   8  10 31.1546 11.4126  23
   4   9  -1 50.0740 13.6319   8
   4   9   0 50.2969 12.8309   8
   4   9   1 118.927 16.6238  16
   4   9   2 60.2291 12.1160  16
   4   9   3 116.802 17.2937  16
   4   9   4 192.778 21.2442  16
   4   9   5 62.5366 12.6665  16
   4   9   6 118.829 18.6350  23
   4   9   6 102.731 16.5391  16
   4   9   7 49.4003 13.6965  23
   4   9   7 62.7530 13.8290  16
   4   9   8 109.122 18.3356  23
   4   9   8 119.110 18.7614  16
   4  10   1 56.5830 13.2859  16
   4  10   2 353.954 30.0065  16
   4  10   3 190.079 22.5708  16
   4  10   4 96.6067 16.1653  16
   4  10   5-2.40504 6.21415  16
   4  10   6 51.8033 12.7685  16
   5  -5  -6-2.74749 5.99978  26
   5  -5  -5 49.6308 13.5166  26
   5  -5  -4 98.1287 18.1841  21
   5  -5  -4 100.020 17.4952  26
   5  -5  -3 192.229 23.8733  21
   5  -5  -3 151.577 20.3526  26
   5  -5  -2 16.0669 9.78657  21
   5  -5  -2 11.6523 7.55050  26
   5  -5  -1 53.7209 13.3969  21
   5  -5   0 13.3991 8.68181  21
   5  -5   1 97.9394 18.0281  25
   5  -5   2 21.3565 9.39991  21
   5  -5   2-8.10767 3.73290  25
   5  -5   3 29.1456 10.6766  21
   5  -4  -7 67.8688 15.6516  26
   5  -4  -6 7.99706 7.81052  26
   5  -4  -5 30.3228 10.4784  26
   5  -4  -4-4.81093 4.69824  21
   5  -4  -4 4.81749 5.76198  26
   5  -4  -3 99.2849 17.2792  21
   5  -4  -3 108.777 17.4231  26
   5  -4  -2 85.5535 15.8841  21
   5  -4  -2 91.8852 15.5267  26
   5  -4  -1 103.008 17.0230  21
   5  -4  -1 144.449 18.9547  26
   5  -4   0 34.3846 11.2679  21
   5  -4   0 58.2048 12.6474  26
   5  -4   1 22.1774 9.62783  21
   5  -4   1 10.6522 6.58234  26
   5  -4   2 88.6449 16.3514  21
   5  -4   2 78.7128 13.9858  26
   5  -4   3 138.917 18.4992  26
   5  -4   3 153.394 21.3418  25
   5  -4   4 133.168 20.3003  25
   5  -4   5-2.83839 4.80123  25
   5  -3  -8 116.223 19.9305  26
   5  -3  -7 93.0063 17.5669  26
   5  -3  -6 134.024 20.0679  26
   5  -3  -5 7.28990 6.71276  26
   5  -3  -4 39.0660 10.6127  21
   5  -3  -4 41.4936 10.8114  26
   5  -3  -3 136.436 18.3021  21
   5  -3  -3 92.7929 15.1840  26
   5  -3  -2 644.623 39.0212  21
   5  -3  -2 556.289 35.8467  26
   5  -3  -1 6.72036 6.56355  21
   5  -3  -1 6.25654 6.11064  26
   5  -3   0 28.4281 8.14307  24
   5  -3   0 31.5374 10.5538  21
   5  -3   0 10.2857 6.03302  26
   5  -3   1-1.81377 3.54255  24
   5  -3   1 2.03849 4.45141  26
   5  -3   2 302.530 24.6022  24
   5  -3   2 262.721 24.2805  26
   5  -3   3 154.054 18.8408  26
   5  -3   3 159.510 20.7832  25
   5  -3   4 270.102 24.5189  26
   5  -3   4 243.523 25.9395  25
   5  -3   5 7.77257 7.59127  25
   5  -3   6 29.6798 10.8723  25
   5  -3   7-5.34771 3.69328  11
   5  -3   7-2.79976 3.86714  25
   5  -2  -9 30.1464 10.9800   5
   5  -2  -7 179.146 23.1509  26
   5  -2  -6 311.921 28.6393  26
   5  -2  -5 118.175 16.6050  24
   5  -2  -5 107.115 16.7866  26
   5  -2  -4 407.190 28.9940  24
   5  -2  -4 369.896 29.5252  26
   5  -2  -3 44.7833 10.4870  24
   5  -2  -3 44.1367 10.8791  26
   5  -2  -2 117.886 15.5429  24
   5  -2  -2 135.978 17.4827  26
   5  -2  -1 49.8188 10.2970  24
   5  -2  -1 35.6144 9.87071  26
   5  -2   0 86.8998 13.2299  24
   5  -2   0 60.4768 12.2423  26
   5  -2   1 127.432 15.5649  24
   5  -2   1 128.097 16.7301  26
   5  -2   2 7.23186 4.99428  24
   5  -2   2 1.93992 4.64091  26
   5  -2   3 39.4752 9.74104  24
   5  -2   3 75.0418 13.6561  26
   5  -2   4 168.707 19.1408  26
   5  -2   5 448.868 31.2226  26
   5  -2   5 460.768 33.8956  25
   5  -2   6 29.4745 9.89874  25
   5  -2   7 63.9817 13.9390  11
   5  -2   7 50.9644 13.1928  25
   5  -2   8-2.74564 6.56795  11
   5  -2   8-2.63345 5.75074  25
   5  -1  -9 37.3948 12.5251   5
   5  -1  -9 52.0872 14.4228  26
   5  -1  -8 83.7536 16.3003  24
   5  -1  -8 93.6393 16.8911   5
   5  -1  -8 86.6489 16.5607  26
   5  -1  -7 216.325 24.0956  24
   5  -1  -7 215.118 24.1559  26
   5  -1  -6 124.869 17.6454  24
   5  -1  -6 125.615 18.3109  26
   5  -1  -5 413.500 30.4832  24
   5  -1  -4 69.5244 12.7586  24
   5  -1  -3 35.9162 9.78295  24
   5  -1  -3 39.8771 10.3172  26
   5  -1  -2 1.82136 4.35696  24
   5  -1  -2 1.91903 4.59058  26
   5  -1  -1 792.917 39.4231  24
   5  -1  -1 871.077 42.0787  26
   5  -1   0 153.663 16.9312  24
   5  -1   0 149.188 17.3850  26
   5  -1   1 293.759 23.5791  24
   5  -1   1 332.397 25.4291  26
   5  -1   2 3.50621 4.84237  24
   5  -1   2-1.84241 4.40723  26
   5  -1   3 149.324 16.7918  24
   5  -1   3 138.483 16.8732  26
   5  -1   4 43.2236 10.3982  24
   5  -1   4 39.6051 9.76326  26
   5  -1   5 465.103 31.1782  26
   5  -1   6 66.6844 13.5066  23
   5  -1   7 64.1718 14.2915  23
   5  -1   7 70.5837 14.2932  11
   5  -1   8 10.5475 7.28639  23
   5  -1   8 20.8946 9.19873  11
   5  -1   9 33.7131 11.3222  11
   5   0  -9 329.583 31.9003   5
   5   0  -9 301.107 30.7463  26
   5   0  -9 288.710 29.5710  24
   5   0  -8 2.64778 6.84184  24
   5   0  -8 7.80614 7.62378   5
   5   0  -8 10.4110 8.80543  26
   5   0  -7 51.8480 12.7867  24
   5   0  -7 59.9581 13.0681   5
   5   0  -7 70.3693 14.2435  26
   5   0  -6 6.91481 6.36869  24
   5   0  -6 20.3886 8.85082  26
   5   0  -5 185.225 20.6690  24
   5   0  -5 186.750 20.7879  26
   5   0  -4 10.1436 6.86442  24
   5   0  -4 7.98084 5.51276  26
   5   0  -4 10.5934 5.01018   8
   5   0  -3 144.262 17.4867  24
   5   0  -3 207.903 20.4471  26
   5   0  -2 89.7173 13.5610  24
   5   0  -2 92.4088 13.6527  26
   5   0  -1 591.085 33.6206  24
   5   0   0 810.060 39.2078  24
   5   0   1 607.790 33.1337  24
   5   0   1 480.874 29.9951  26
   5   0   2 520.924 30.9702  24
   5   0   2 496.898 30.3993  26
   5   0   3 1.73245 3.78318  24
   5   0   3-1.68844 4.03899  23
   5   0   3 5.30556 4.56949  26
   5   0   4 3.58714 4.63447  24
   5   0   4 1.85384 4.79017  23
   5   0   4 5.36406 4.27745  26
   5   0   5 2.01860 3.94287  23
   5   0   5 5.58682 5.75123  26
   5   0   6 356.832 28.9664  23
   5   0   7 37.8121 10.8362  23
   5   0   7 32.2776 10.3296  11
   5   0   8 345.332 30.8371  23
   5   0   8 324.675 29.6264  11
   5   0   9 13.5664 8.38084  23
   5   0   9 10.6626 7.81146  11
   5   0  10 88.4106 17.4381  11
   5   1  -9 61.4078 14.7750  26
   5   1  -8 52.2841 14.2373  24
   5   1  -8 60.1051 14.3850   5
   5   1  -8 39.8368 12.4180  26
   5   1  -7 12.8174 8.30611  24
   5   1  -7 25.2223 9.85528   5
   5   1  -7 13.9033 7.84241  26
   5   1  -6 153.391 16.9571   8
   5   1  -6 144.581 18.7450  26
   5   1  -6 181.205 21.3298  24
   5   1  -5 24.3967 8.66811  24
   5   1  -5 12.0951 6.82513  26
   5   1  -5 25.5331 7.79710   8
   5   1  -4 280.004 25.1031  24
   5   1  -4 274.423 21.0818   8
   5   1  -4 260.675 22.9912  26
   5   1  -3 195.136 20.4399  24
   5   1  -3 190.812 17.4025   8
   5   1  -3 192.679 19.2794  26
   5   1  -2 649.616 35.8493  24
   5   1  -2 687.453 35.7785  26
   5   1  -1 35.4175 8.66865  24
   5   1  -1 54.7126 10.3855  26
   5   1   0 1045.16 44.6710  24
   5   1   0 986.800 42.6568  26
   5   1   1 156.771 16.6822  24
   5   1   1 146.203 16.0081  26
   5   1   2 466.204 29.0511  24
   5   1   2 423.203 27.1013  26
   5   1   3 25.2226 7.70637  24
   5   1   3 17.6356 6.64744  23
   5   1   3 13.3436 6.31368  26
   5   1   4 121.873 15.1636  24
   5   1   4 95.7580 13.9376  23
   5   1   5 14.3053 6.76370  24
   5   1   5 1.94386 4.24546  23
   5   1   6 256.338 24.4857  23
   5   1   7 229.691 23.6433  23
   5   1   8 195.769 23.1250  23
   5   1   9 100.792 17.6032  23
   5   1   9 62.9069 14.7858  11
   5   1  10 2.82465 5.51696  23
   5   1  10-2.69515 4.55877  11
   5   2  -8 354.227 33.2271   5
   5   2  -8 290.494 26.8751   8
   5   2  -8 337.975 29.4836  26
   5   2  -8 374.506 34.0622  24
   5   2  -7 23.9144 9.71235  24
   5   2  -7 15.8564 8.94357   5
   5   2  -7 17.5717 8.31116  26
   5   2  -7 14.5840 7.05240   8
   5   2  -6 156.328 20.4070   5
   5   2  -6 188.281 20.0501   8
   5   2  -6 200.114 21.0756  26
   5   2  -6 192.387 22.8720  24
   5   2  -5 119.765 15.6425   8
   5   2  -5 112.274 15.6406  26
   5   2  -5 130.507 18.1066  24
   5   2  -4 520.342 30.7985   8
   5   2  -4 513.045 31.3602  26
   5   2  -4 538.236 35.1769  24
   5   2  -3 286.143 24.6897  24
   5   2  -3 295.280 22.5730   8
   5   2  -3 237.470 20.6883  26
   5   2  -2 369.070 24.9918   8
   5   2  -2 384.988 25.3481  26
   5   2  -1 7.13743 5.22918  24
   5   2  -1 10.8339 5.45103  26
   5   2   0 17.1030 6.89070  24
   5   2   0 16.7385 5.94893  26
   5   2   1 166.814 16.5273  26
   5   2   2 474.336 27.8780  26
   5   2   3 1303.47 48.7346  26
   5   2   4 259.962 21.2977  24
   5   2   4 230.512 20.7216  23
   5   2   4 235.995 19.9819  26
   5   2   5 276.379 22.3759  24
   5   2   5 269.002 23.2804  23
   5   2   6 29.0045 8.82852  23
   5   2   7 472.524 33.9187  23
   5   2   8-2.43244 5.31168  23
   5   2   8 4.40374 5.68912  11
   5   2   9 99.3311 17.5693  23
   5   2   9 120.716 18.2670  11
   5   2  10 2.79468 6.68526  23
   5   2  10 2.54559 7.03144  11
   5   2  11 16.3244 8.81525  11
   5   3  -8 62.4500 14.6635   8
   5   3  -7 148.975 21.5001   5
   5   3  -7 161.266 20.7883   8
   5   3  -7 162.584 22.7850  24
   5   3  -6 71.4659 14.7739  24
   5   3  -6 56.2205 13.4697   5
   5   3  -6 65.4259 13.9951   8
   5   3  -5 369.009 28.3985   8
   5   3  -5 356.363 26.0409  26
   5   3  -4 185.637 19.7092   8
   5   3  -4 122.198 15.0093  26
   5   3  -3 387.395 27.4699   8
   5   3  -3 344.874 23.9140  26
   5   3  -2 7.40874 5.01440  26
   5   3  -2 12.1842 6.13020   8
   5   3  -1 192.724 19.1152  24
   5   3  -1 159.171 17.2942   8
   5   3  -1 190.438 17.2011  26
   5   3   0 13.7321 6.04871  24
   5   3   0 21.1140 7.01330  26
   5   3   1 731.595 36.1448  24
   5   3   1 747.756 34.0421  26
   5   3   2 202.577 18.4810  24
   5   3   2 151.409 15.0805  26
   5   3   3 645.997 33.4045  24
   5   3   3 705.753 33.3792  26
   5   3   4 437.492 27.4018  24
   5   3   4 426.545 28.0111  23
   5   3   4 486.108 27.7453  26
   5   3   5 886.799 40.1929  24
   5   3   5 889.097 42.7308  23
   5   3   6 27.1933 8.14072  24
   5   3   6 28.7852 9.20989  23
   5   3   7 22.3431 8.45662  23
   5   3   8 21.7100 8.81961  23
   5   3   9 28.5444 10.4601  23
   5   3   9 42.1040 11.4618  11
   5   3  10 102.663 18.4475  23
   5   3  10 123.789 18.6671  11
   5   3  11 5.89992 7.62261  23
   5   3  11 7.67092 7.89700  11
   5   4  -7 160.458 23.5232   5
   5   4  -7 163.161 22.3115   8
   5   4  -6 9.69931 7.10551   8
   5   4  -6 10.5741 6.83176  24
   5   4  -5 163.357 20.4228   8
   5   4  -5 144.210 19.5129  24
   5   4  -4 119.257 16.8627   8
   5   4  -4 135.520 18.4099  24
   5   4  -3 265.381 23.8464   8
   5   4  -3 254.929 23.8200  24
   5   4  -2 167.394 18.6862  24
   5   4  -2 176.625 18.9986   8
   5   4  -1 747.964 38.3784  24
   5   4  -1 721.117 38.4942   8
   5   4  -1 734.407 32.7118  26
   5   4   0 364.691 25.8638  24
   5   4   0 359.621 26.4257   8
   5   4   0 342.098 21.7394  26
   5   4   1 13.1905 5.58050  24
   5   4   1 11.4264 4.96241  26
   5   4   2 81.5435 11.9450  24
   5   4   2 78.3128 10.6981  26
   5   4   3 109.864 13.9490  24
   5   4   3 90.3079 11.6575  26
   5   4   4 792.556 36.8549  24
   5   4   5 112.737 14.0803  24
   5   4   5 81.4621 13.1525  23
   5   4   6 82.2466 12.5615  24
   5   4   6 95.0794 15.1559  23
   5   4   7 2.24529 4.90309  23
   5   4   8 475.415 34.8997  23
   5   4   9 143.359 20.6223  23
   5   4  10 445.413 36.7142  23
   5   4  11 71.0405 17.1264  23
   5   4  11 61.6177 13.9171  11
   5   4  12 30.3773 11.3369  11
   5   5  -6 133.514 20.1364   8
   5   5  -6 161.060 22.3997  24
   5   5  -5 55.4894 13.9432  24
   5   5  -5 27.5608 9.49053   8
   5   5  -4 110.696 17.3098   8
   5   5  -4 155.940 20.2855  24
   5   5  -3 36.5196 10.7077  24
   5   5  -3 31.1116 9.95647   8
   5   5  -2 360.022 27.5312  24
   5   5  -1 161.249 18.1535  24
   5   5   0 596.463 33.5063  24
   5   5   0 556.636 34.5968   8
   5   5   1 8.24020 5.33914  24
   5   5   2 377.873 25.3238  24
   5   5   3 58.2567 10.2970  24
   5   5   4 77.1330 11.4926  24
   5   5   5 43.3860 8.78029  24
   5   5   5 27.2185 8.71490  23
   5   5   6 393.182 25.4210  24
   5   5   6 348.223 28.3019  23
   5   5   7 148.329 19.0258  23
   5   5   8 172.143 21.8832  23
   5   5   9 211.187 24.3677  23
   5   5  10 70.4237 15.8344  23
   5   6  -5 2.59306 6.69997  24
   5   6  -4-2.39147 3.30299  24
   5   6  -3 28.6265 10.0926  24
   5   6  -3 21.9958 8.93725   8
   5   6  -2 198.937 21.2398  24
   5   6  -2 176.300 21.0539   8
   5   6  -1 133.555 16.9419  24
   5   6  -1 133.402 17.7405   8
   5   6   0 393.466 27.0777  24
   5   6   0 338.699 27.8763   8
   5   6   1 483.461 29.2992  24
   5   6   1 444.991 31.8570   8
   5   6   2 123.227 14.5560  24
   5   6   3 188.150 17.4393  24
   5   6   3 170.840 16.2631  16
   5   6   4 42.1788 8.88434  24
   5   6   4 30.3290 7.71141  16
   5   6   5 312.631 21.8190  24
   5   6   5 313.602 23.4363  16
   5   6   6 123.667 17.6075  23
   5   6   7 239.295 24.9352  23
   5   6   8 5.06445 6.05776  23
   5   6   9 94.2971 17.3047  23
   5   6  10 5.72370 8.38479  23
   5   7  -4 39.0333 11.6845  24
   5   7  -3 152.093 21.5941   8
   5   7  -3 150.304 20.0733  24
   5   7  -2 47.4151 11.4168  24
   5   7  -2 73.5125 15.2813   8
   5   7  -1 140.536 17.6213  24
   5   7  -1 157.825 20.6414   8
   5   7   0 51.7155 12.8025   8
   5   7   1 421.259 32.0208   8
   5   7   4 49.0197 10.3322  16
   5   7   5 91.9911 13.5928  16
   5   7   6 74.9888 12.9168  16
   5   7   7 219.179 24.5202  23
   5   7   8 63.5389 14.6530  23
   5   7   9-2.80167 6.70201  23
   5   8  -1 79.0250 17.2928   8
   5   8   0 35.6713 11.6819   8
   5   8   1 47.0368 12.5800   8
   5   8   4 124.721 16.4973  16
   5   8   5 186.882 20.2567  16
   5   8   6 373.636 29.2538  16
   5   8   7 92.3135 17.1279  23
   5   8   7 79.7066 14.7141  16
   5   8   8 147.523 21.5051  23
   5   9   4 289.172 25.8233  16
   5   9   5 109.680 16.9391  16
   5   9   6 41.2174 11.4174  16
   5   9   7 19.1834 9.07360  16
   6  -3  -4 77.3842 15.7757  26
   6  -3  -3 61.2970 15.2007  26
   6  -3  -2 69.8196 15.1842  26
   6  -3  -1 103.784 17.7147  26
   6  -3   0 27.4231 10.6193  26
   6  -3   1 24.6743 9.64482  26
   6  -3   2 12.2931 7.59469  26
   6  -3   3 34.2454 11.4665  26
   6  -2  -5 86.0904 16.7625  26
   6  -2  -4 2.65712 5.18987  26
   6  -2  -3 123.490 18.7544  24
   6  -2  -3 105.005 18.2796  26
   6  -2  -2 4.46653 5.77082  24
   6  -2  -2 7.43623 6.40502  26
   6  -2  -1 26.4397 9.86808  24
   6  -2  -1 29.1006 10.3304  26
   6  -2   0 58.8582 12.4336  24
   6  -2   0 43.0177 11.2154  26
   6  -2   1 279.923 26.2815  24
   6  -2   1 279.609 27.4709  26
   6  -2   2 51.1831 11.9361  24
   6  -2   2 82.6499 15.8346  26
   6  -2   3 84.7529 15.2315  24
   6  -2   3 109.063 17.5326  26
   6  -2   4 7.10027 8.00723  26
   6  -1  -6 7.95229 7.76712  24
   6  -1  -6 11.2453 8.68297  26
   6  -1  -5 57.9168 13.4964  24
   6  -1  -5 64.0354 15.4390  26
   6  -1  -4 24.1129 9.42537  24
   6  -1  -3 23.2207 9.07664  24
   6  -1  -2 11.2644 6.96061  24
   6  -1  -2 21.3107 8.95835  26
   6  -1  -1 8.81363 6.45536  24
   6  -1  -1-2.31093 3.19158  26
   6  -1   0 167.321 20.1849  24
   6  -1   0 200.260 22.4826  26
   6  -1   1 196.174 21.6701  24
   6  -1   1 221.187 23.0942  26
   6  -1   2 388.360 30.1011  24
   6  -1   2 284.645 26.1463  26
   6  -1   3 75.3291 14.5674  24
   6  -1   3 104.166 16.5955  26
   6  -1   4 137.133 18.7749  26
   6  -1   5 14.0486 7.92342  26
   6   0  -6 114.902 19.3020  24
   6   0  -6 64.7372 14.9480  26
   6   0  -5 64.7772 14.3577  24
   6   0  -5 99.4939 17.1166  26
   6   0  -4 199.573 23.2814  24
   6   0  -4 235.764 24.8569  26
   6   0  -3 2.35110 6.07515  24
   6   0  -3 9.32219 7.19756  26
   6   0  -2 283.257 26.9358  24
   6   0  -2 272.440 25.6606  26
   6   0  -1 74.8856 14.1230  24
   6   0  -1 37.3190 10.7434  26
   6   0   0 140.401 18.3844  24
   6   0   0 151.501 18.6613  26
   6   0   1 72.6609 13.5645  24
   6   0   2 157.491 18.8379  24
   6   0   3 8.58152 5.92741  24
   6   0   3 10.7754 6.98144  26
   6   0   4 57.3264 12.7600  24
   6   0   4 47.9731 11.6872  26
   6   0   5 30.3259 10.2004  23
   6   0   5 42.5732 11.7946  26
   6   0   6 17.6292 9.20582  23
   6   0   7 78.2641 16.4962  23
   6   1  -7 27.2336 10.6452  26
   6   1  -6 101.345 18.5030  24
   6   1  -6 110.509 18.3328  26
   6   1  -5 39.8906 11.9214  24
   6   1  -5 60.6796 13.6340  26
   6   1  -4 234.361 25.6289  24
   6   1  -4 191.566 22.0535  26
   6   1  -3 260.390 25.9638  24
   6   1  -3 198.875 22.2357  26
   6   1  -2 198.639 22.3781  24
   6   1  -2 215.376 22.3301  26
   6   1  -1 335.092 27.9462  24
   6   1  -1 380.105 29.1269  26
   6   1   0 4.29837 6.96207  24
   6   1   0 12.2874 6.63409  26
   6   1   1 12.6566 6.51592  24
   6   1   1 8.11493 5.94536  26
   6   1   2 6.30405 6.15742  24
   6   1   2 10.1733 6.59110  26
   6   1   3 135.853 17.6671  24
   6   1   3 141.193 17.8695  26
   6   1   4 68.0847 13.3384  24
   6   1   4 66.4323 13.0164  26
   6   1   5 401.047 30.8308  24
   6   1   5 372.357 29.8937  23
   6   1   6 14.6309 7.53335  23
   6   1   7 125.996 19.7706  23
   6   1   8 140.554 21.0015  23
   6   2  -7 46.2152 13.0450  26
   6   2  -6 14.5424 8.53662  26
   6   2  -5 87.1956 17.0912  24
   6   2  -5 106.618 16.2595   8
   6   2  -5 89.3529 15.3971  26
   6   2  -4 71.9569 15.0778  24
   6   2  -4 48.1343 11.6128   8
   6   2  -4 50.0450 12.0448  26
   6   2  -3 391.062 31.8365  24
   6   2  -3 370.674 28.8312  26
   6   2  -2 36.9618 11.0604  24
   6   2  -2 26.1052 8.78055  26
   6   2  -1 289.744 26.0285  24
   6   2  -1 260.097 23.7084  26
   6   2   0 12.8282 6.60673  24
   6   2   0 21.1752 7.75457  26
   6   2   1 79.4528 14.2060  24
   6   2   1 105.185 14.8808  26
   6   2   2 124.478 16.0757  26
   6   2   3 354.503 27.2204  26
   6   2   4 45.3099 11.5757  24
   6   2   4 54.6952 11.3080  26
   6   2   5 73.8082 13.3873  24
   6   2   6 126.318 18.1173  23
   6   2   7 41.1881 11.5351  23
   6   2   8 63.5714 15.5319  23
   6   3  -6 43.7468 11.6439   8
   6   3  -5 27.9242 11.2548  24
   6   3  -5 44.0702 12.2084   8
   6   3  -4 28.4164 9.08924  26
   6   3  -4 17.8262 8.43401   8
   6   3  -3 156.422 19.3944   8
   6   3  -3 128.206 16.8712  26
   6   3  -2 183.276 19.3298  26
   6   3  -1 48.9411 11.3057  24
   6   3  -1 40.1410 10.0989  26
   6   3   0 365.506 28.7770  24
   6   3   0 360.781 26.5600  26
   6   3   1 188.721 20.4526  24
   6   3   1 214.069 20.2925  26
   6   3   2 400.639 29.2526  24
   6   3   2 390.928 27.4792  26
   6   3   3 30.2397 9.45408  24
   6   3   3 37.9429 9.51421  26
   6   3   4 184.072 19.9581  24
   6   3   4 141.879 16.9350  26
   6   3   5 14.2009 7.67570  24
   6   3   6 259.449 24.0786  24
   6   3   6 228.662 24.4995  23
   6   3   7 7.65210 7.47361  23
   6   3   8 2.74112 6.55715  23
   6   3   9 11.7110 9.48421  23
   6   4  -5 40.8751 12.2359   8
   6   4  -4 163.534 22.5089  24
   6   4  -4 191.100 22.8362   8
   6   4  -3 37.7310 11.7937  24
   6   4  -3 39.9729 11.4945   8
   6   4  -2 142.388 19.3957  24
   6   4  -2 200.080 22.3293   8
   6   4  -1-2.24389 3.09916  24
   6   4   0 186.165 20.4258  24
   6   4   0 181.116 18.0206  26
   6   4   1 105.111 16.0479  24
   6   4   1 109.723 14.5621  26
   6   4   2 148.683 18.2120  24
   6   4   2 148.423 16.5581  26
   6   4   3 136.250 17.6862  24
   6   4   3 150.905 16.7191  26
   6   4   4 339.530 26.7710  24
   6   4   5 123.385 16.6555  24
   6   4   6 40.0487 10.7258  24
   6   4   7 61.2087 13.8942  23
   6   4   8 21.9208 9.27480  23
   6   4   9 108.256 19.2285  23
   6   5  -4 40.9619 12.5189  24
   6   5  -4 32.0824 11.3921   8
   6   5  -3-2.55812 7.49465  24
   6   5  -3-2.56341 5.00684   8
   6   5  -2 16.8098 8.78051  24
   6   5  -2 32.1919 11.3473   8
   6   5  -1 169.398 20.4676  24
   6   5  -1 158.134 20.6625   8
   6   5   0 42.8225 11.0809  24
   6   5   1 207.145 21.6779  24
   6   5   2 43.5611 10.0665  24
   6   5   3 220.628 21.4437  24
   6   5   4 93.3308 14.4686  24
   6   5   5 291.002 24.2003  24
   6   5   6 72.8734 12.8806  24
   6   5   7 320.474 30.1004  23
   6   5   8 30.4779 11.4879  23
   6   6  -3 44.0167 12.6581  24
   6   6  -2 89.6673 16.6268  24
   6   6  -2 112.604 18.5676   8
   6   6  -1 480.355 34.4675  24
   6   6   0 90.0116 15.4325  24
   6   6   1 109.895 16.2205  24
   6   6   2 31.2580 9.54953  24
   6   6   3 60.4343 12.1243  24
   6   6   4 53.4160 11.2588  24
   6   6   8 183.546 24.3371  23
   6   7   0 198.123 25.1609   8
   7   0  -1 118.420 18.6075  26
   7   0   0 83.0089 16.2631  24
   7   0   0 82.7331 15.8112  26
   7   0   1 132.823 19.5746  24
   7   0   1 135.619 20.2360  26
   7   1  -2 48.6646 12.7727  26
   7   1  -1 26.4548 10.9649  24
   7   1  -1 17.5311 8.82337  26
   7   1   0 23.2662 9.77944  24
   7   1   0 7.38523 7.60468  26
   7   1   1 33.1352 11.4230  24
   7   1   1 56.0530 13.0500  26
   7   1   2 70.4578 15.1618  24
   7   1   2 31.7341 10.9429  26
   7   1   3 123.330 19.1028  24
   7   1   3 99.6907 16.6943  26
   7   1   4 146.881 20.5314  26
   7   2  -3 19.8881 9.08823  26
   7   2  -2 147.631 20.5748  26
   7   2  -1 31.8575 11.6063  24
   7   2  -1 42.6271 12.0285  26
   7   2   0 18.0697 9.09453  24
   7   2   0 25.6258 9.10541  26
   7   2   1 2.52725 4.93620  24
   7   2   1 2.31037 5.96956  26
   7   2   2 139.059 18.9036  26
   7   2   3 71.7292 14.5043  26
   7   2   4 231.220 24.9915  26
   7   3  -1 162.320 22.3155  24
   7   3  -1 154.982 19.8251  26
   7   3   0 7.72089 7.54174  24
   7   3   0 15.2533 7.67429  26
   7   3   1-2.50462 4.89193  24
   7   3   1 10.8319 7.62803  26
   7   3   2 27.0957 10.2206  24
   7   3   2 56.2459 12.5105  26
   7   3   3 33.8904 10.3187  24
   7   3   3 43.3870 11.4214  26
   7   3   4 41.0568 12.2735  24
   7   3   4 53.0897 11.8511  26
   7   3   5 183.083 22.5128  24
   7   4   0 64.1531 14.2052  24
   7   4   1 151.710 20.8623  24
   7   4   2 4.85729 7.50043  24
   7   4   3 40.4967 11.4181  24
   7   4   3 60.5430 12.9423  26
   7   4   4 14.1328 7.97095  24
   7   4   5 134.548 19.2428  24
   7   5   1 265.647 27.2241  24
   7   5   2 105.040 17.3536  24
   7   5   3 32.7688 10.4851  24
   7   5   4 20.5816 8.36119  24
   7   5   5 6.85010 6.69032  24
   7   6   2 142.747 20.0249  24
   7   6   3 45.5887 12.6089  24
   0   0   0    0.00    0.00   0
TITL 17CuClAHPZ in P1
REM P1 (#1 in standard setting)
CELL 0.71073   5.078323   7.517630   9.947857  73.1496  83.4855  77.8410
ZERR    2.00   0.000218   0.000387   0.000455   0.0043   0.0036   0.0040
LATT -1
SFAC C H N O
UNIT 22.00 20.00 2.00 2.00
TREF
HKLF 4
END
;
_shelx_hkl_checksum              44082
loop_
_space_group_symop_operation_xyz
'x, y, z'
'-x, -y, -z'
loop_
_atom_site_label
_atom_site_type_symbol
_atom_site_fract_x
_atom_site_fract_y
_atom_site_fract_z
_atom_site_U_iso_or_equiv
_atom_site_adp_type
_atom_site_occupancy
_atom_site_site_symmetry_order
_atom_site_calc_flag
_atom_site_refinement_flags_posn
_atom_site_refinement_flags_adp
_atom_site_refinement_flags_occupancy
Cu1 Cu 0.0000 0.0000 0.0000 0.02221(8) Uani 1 2 d S . P
Cl1 Cl 0.34987(11) 0.25141(8) -0.46963(5) 0.04789(13) Uani 1 1 d . . .
O1 O 0.2133(2) 0.13504(16) -0.16595(11) 0.0281(2) Uani 1 1 d . . .
O2 O 0.5797(2) 0.20157(17) -0.09905(12) 0.0309(2) Uani 1 1 d . . .
N1 N 0.0092(3) 0.17642(17) 0.11498(13) 0.0244(2) Uani 1 1 d . . .
N2 N 0.1901(3) 0.29170(19) 0.09090(14) 0.0287(3) Uani 1 1 d . . .
H2N H 0.3217 0.2929 0.0283 0.034 Uiso 1 1 calc R U .
C1 C -0.1587(3) 0.2192(2) 0.21985(18) 0.0309(3) Uani 1 1 d . . .
H1 H -0.3049 0.1614 0.2592 0.037 Uiso 1 1 calc R U .
C2 C -0.0842(4) 0.3618(2) 0.26165(18) 0.0345(4) Uani 1 1 d . . .
H2 H -0.1677 0.4166 0.3320 0.041 Uiso 1 1 calc R U .
C3 C 0.1384(4) 0.4042(2) 0.17701(19) 0.0348(4) Uani 1 1 d . . .
H3 H 0.2364 0.4948 0.1789 0.042 Uiso 1 1 calc R U .
C4 C 0.4426(3) 0.1793(2) -0.18765(16) 0.0246(3) Uani 1 1 d . . .
C5 C 0.5745(4) 0.2085(3) -0.33577(18) 0.0412(4) Uani 1 1 d . . .
H5A H 0.7095 0.0970 -0.3387 0.049 Uiso 1 1 calc R U .
H5B H 0.6670 0.3146 -0.3558 0.049 Uiso 1 1 calc R U .
loop_
_atom_site_aniso_label
_atom_site_aniso_U_11
_atom_site_aniso_U_22
_atom_site_aniso_U_33
_atom_site_aniso_U_23
_atom_site_aniso_U_13
_atom_site_aniso_U_12
Cu1 0.02290(13) 0.02596(13) 0.02155(13) -0.00913(9) 0.00235(9) -0.01103(9)
Cl1 0.0520(3) 0.0658(3) 0.0258(2) -0.0090(2) -0.00188(19) -0.0159(2)
O1 0.0279(5) 0.0346(6) 0.0247(5) -0.0069(4) 0.0023(4) -0.0156(4)
O2 0.0239(5) 0.0398(6) 0.0327(6) -0.0128(5) -0.0011(4) -0.0100(5)
N1 0.0252(6) 0.0260(6) 0.0250(6) -0.0092(5) 0.0002(5) -0.0094(5)
N2 0.0280(6) 0.0325(7) 0.0306(7) -0.0119(5) 0.0026(5) -0.0140(5)
C1 0.0278(8) 0.0368(8) 0.0319(8) -0.0151(7) 0.0049(6) -0.0095(6)
C2 0.0404(9) 0.0350(8) 0.0322(8) -0.0174(7) -0.0003(7) -0.0052(7)
C3 0.0398(9) 0.0332(8) 0.0388(9) -0.0159(7) -0.0027(7) -0.0145(7)
C4 0.0240(7) 0.0230(6) 0.0254(7) -0.0041(5) 0.0010(5) -0.0063(5)
C5 0.0299(8) 0.0634(12) 0.0276(8) -0.0061(8) 0.0043(7) -0.0150(8)
loop_
_atom_type_symbol
_atom_type_description
_atom_type_scat_dispersion_real
_atom_type_scat_dispersion_imag
_atom_type_scat_source
C C 0.0033 0.0016 'International Tables Vol C Tables 4.2.6.8 and 6.1.1.4'
H H 0.0000 0.0000 'International Tables Vol C Tables 4.2.6.8 and 6.1.1.4'
N N 0.0061 0.0033 'International Tables Vol C Tables 4.2.6.8 and 6.1.1.4'
O O 0.0106 0.0060 'International Tables Vol C Tables 4.2.6.8 and 6.1.1.4'
Cl Cl 0.1484 0.1585 'International Tables Vol C Tables 4.2.6.8 and 6.1.1.4'
Cu Cu 0.3201 1.2651 'International Tables Vol C Tables 4.2.6.8 and 6.1.1.4'
loop_
_geom_angle_atom_site_label_1
_geom_angle_atom_site_label_2
_geom_angle_atom_site_label_3
_geom_angle
_geom_angle_site_symmetry_1
_geom_angle_site_symmetry_3
N1 Cu1 N1 180.0 2 .
N1 Cu1 O1 85.05(5) 2 .
N1 Cu1 O1 94.95(5) . .
N1 Cu1 O1 94.95(5) 2 2
N1 Cu1 O1 85.05(5) . 2
O1 Cu1 O1 180.00(6) . 2
C4 O1 Cu1 136.07(10) . .
C1 N1 N2 105.27(12) . .
C1 N1 Cu1 130.78(11) . .
N2 N1 Cu1 123.78(10) . .
C3 N2 N1 111.28(13) . .
N1 C1 C2 110.66(14) . .
C3 C2 C1 105.05(14) . .
N2 C3 C2 107.72(14) . .
O2 C4 O1 126.76(14) . .
O2 C4 C5 115.02(13) . .
O1 C4 C5 118.22(14) . .
C4 C5 Cl1 114.83(12) . .
loop_
_geom_bond_atom_site_label_1
_geom_bond_atom_site_label_2
_geom_bond_distance
_geom_bond_site_symmetry_2
Cu1 N1 1.9967(12) 2
Cu1 N1 1.9967(12) .
Cu1 O1 2.0037(10) .
Cu1 O1 2.0037(10) 2
Cl1 C5 1.7660(19) .
O1 C4 1.2564(17) .
O2 C4 1.2503(18) .
O2 Cu1 2.4640(12) 1_655
N1 C1 1.340(2) .
N1 N2 1.3481(17) .
N2 C3 1.339(2) .
C1 C2 1.389(2) .
C2 C3 1.367(3) .
C4 C5 1.523(2) .
loop_
_geom_hbond_atom_site_label_D
_geom_hbond_atom_site_label_H
_geom_hbond_atom_site_label_A
_geom_hbond_distance_DH
_geom_hbond_distance_HA
_geom_hbond_distance_DA
_geom_hbond_angle_DHA
N2 H2N O2 0.86 1.88 2.6970(18) 157.6
