#------------------------------------------------------------------------------
#$Date: 2019-11-24 20:58:31 +0200 (Sun, 24 Nov 2019) $
#$Revision: 239401 $
#$URL: file:///home/coder/svn-repositories/cod/cif/4/51/66/4516605.cif $
#------------------------------------------------------------------------------
#
# This file is available in the Crystallography Open Database (COD),
# http://www.crystallography.net/
#
# All data on this site have been placed in the public domain by the
# contributors.
#
data_4516605
loop_
_publ_author_name
'Wang, Zhiming'
'Gui, Chen'
'Zhao, Engui'
'Wang, Jing'
'Li, Xiaodong'
'Qin, Anjun'
'Zhao, Zujin'
'Yu, Zhenqiang'
'Tang, Ben Zhong'
_publ_section_title
;
 Specific Fluorescence Probes for Lipid Droplets Based on Simple AIEgens.
;
_journal_issue                   16
_journal_name_full               'ACS applied materials &amp; interfaces'
_journal_page_first              10193
_journal_page_last               10200
_journal_paper_doi               10.1021/acsami.6b01282
_journal_volume                  8
_journal_year                    2016
_chemical_formula_moiety         'C20 H16 N2 O'
_chemical_formula_sum            'C20 H16 N2 O'
_chemical_formula_weight         300.35
_space_group_crystal_system      monoclinic
_space_group_IT_number           4
_space_group_name_Hall           'P 2yb'
_space_group_name_H-M_alt        'P 1 21 1'
_atom_sites_solution_hydrogens   geom
_atom_sites_solution_primary     iterative
_audit_creation_date             2015-07-14
_audit_creation_method
;
Olex2 1.2
(compiled 2015.01.26 svn.r3150 for OlexSys, GUI svn.r4998)
;
_cell_angle_alpha                90
_cell_angle_beta                 109.388(5)
_cell_angle_gamma                90
_cell_formula_units_Z            2
_cell_length_a                   11.1098(5)
_cell_length_b                   5.7159(2)
_cell_length_c                   13.0553(5)
_cell_measurement_reflns_used    1689
_cell_measurement_temperature    99.94(16)
_cell_measurement_theta_max      74.9620
_cell_measurement_theta_min      4.1880
_cell_volume                     782.03(6)
_computing_cell_refinement
;
CrysAlisPro, Agilent Technologies,
Version 1.171.37.35 (release 13-08-2014 CrysAlis171 .NET)
(compiled Aug 13 2014,18:06:01)
;
_computing_data_collection
;
CrysAlisPro, Agilent Technologies,
Version 1.171.37.35 (release 13-08-2014 CrysAlis171 .NET)
(compiled Aug 13 2014,18:06:01)
;
_computing_data_reduction
;
CrysAlisPro, Agilent Technologies,
Version 1.171.37.35 (release 13-08-2014 CrysAlis171 .NET)
(compiled Aug 13 2014,18:06:01)
;
_computing_molecular_graphics    'Olex2 (Dolomanov et al., 2009)'
_computing_publication_material  'Olex2 (Dolomanov et al., 2009)'
_computing_structure_refinement  'ShelXL (Sheldrick, 2008)'
_computing_structure_solution
;
Superflip (Palatinus & Chapuis, 2007;Palatinus & van der Lee, 2008;
Palatinus et al., 2012)
;
_diffrn_ambient_environment      N~2~
_diffrn_ambient_temperature      99.94(16)
_diffrn_detector                 'CCD plate'
_diffrn_detector_area_resol_mean 10.3587
_diffrn_detector_type            Atlas
_diffrn_measured_fraction_theta_full 0.990
_diffrn_measured_fraction_theta_max 0.988
_diffrn_measurement_details
;
#__ type_ start__ end____ width___ exp.time_
  1 omega   80.00  178.00   1.0000   15.0000
omega____ theta____ kappa____ phi______ frames
    -      110.5703   61.0000  -90.0000 98

#__ type_ start__ end____ width___ exp.time_
  2 omega  -49.00   35.00   1.0000    8.0000
omega____ theta____ kappa____ phi______ frames
    -      -40.8203   37.0000  150.0000 84

#__ type_ start__ end____ width___ exp.time_
  3 omega   23.00   98.00   1.0000    8.0000
omega____ theta____ kappa____ phi______ frames
    -       40.8203 -125.0000   60.0000 75

#__ type_ start__ end____ width___ exp.time_
  4 omega   15.00  117.00   1.0000    8.0000
omega____ theta____ kappa____ phi______ frames
    -       40.8203   37.0000 -120.0000 102

#__ type_ start__ end____ width___ exp.time_
  5 omega   36.00   98.00   1.0000   15.0000
omega____ theta____ kappa____ phi______ frames
    -      110.5703  -45.0000  150.0000 62

#__ type_ start__ end____ width___ exp.time_
  6 omega   94.00  178.00   1.0000   15.0000
omega____ theta____ kappa____ phi______ frames
    -      110.5703  125.0000  -60.0000 84

#__ type_ start__ end____ width___ exp.time_
  7 omega   83.00  178.00   1.0000   15.0000
omega____ theta____ kappa____ phi______ frames
    -      110.5703   45.0000    0.0000 95

#__ type_ start__ end____ width___ exp.time_
  8 omega   33.00   90.00   1.0000   15.0000
omega____ theta____ kappa____ phi______ frames
    -      110.5703  -30.0000 -120.0000 57

#__ type_ start__ end____ width___ exp.time_
  9 omega -120.00   -7.00   1.0000    8.0000
omega____ theta____ kappa____ phi______ frames
    -      -40.8203  -77.0000   90.0000 113

#__ type_ start__ end____ width___ exp.time_
 10 omega    7.00   63.00   1.0000    8.0000
omega____ theta____ kappa____ phi______ frames
    -       40.8203   77.0000  -30.0000 56
;
_diffrn_measurement_device       'kappa diffractometer'
_diffrn_measurement_device_type  'SuperNova, Dual, Cu at zero, Atlas'
_diffrn_measurement_method       '\w scans'
_diffrn_orient_matrix_UB_11      -0.0070759000
_diffrn_orient_matrix_UB_12      0.2240303000
_diffrn_orient_matrix_UB_13      -0.0672829000
_diffrn_orient_matrix_UB_21      -0.1454123000
_diffrn_orient_matrix_UB_22      0.0101041000
_diffrn_orient_matrix_UB_23      -0.0243339000
_diffrn_orient_matrix_UB_31      0.0204021000
_diffrn_orient_matrix_UB_32      0.1496026000
_diffrn_orient_matrix_UB_33      0.1025912000
_diffrn_radiation_monochromator  mirror
_diffrn_radiation_probe          x-ray
_diffrn_radiation_type           CuK\a
_diffrn_radiation_wavelength     1.54184
_diffrn_reflns_av_R_equivalents  0.0280
_diffrn_reflns_av_unetI/netI     0.0468
_diffrn_reflns_limit_h_max       13
_diffrn_reflns_limit_h_min       -13
_diffrn_reflns_limit_k_max       6
_diffrn_reflns_limit_k_min       -6
_diffrn_reflns_limit_l_max       15
_diffrn_reflns_limit_l_min       -11
_diffrn_reflns_number            3385
_diffrn_reflns_theta_full        66.500
_diffrn_reflns_theta_max         67.494
_diffrn_reflns_theta_min         4.219
_diffrn_source                   'sealed X-ray tube'
_diffrn_source_current           0.80
_diffrn_source_power             0.040
_diffrn_source_target            Cu
_diffrn_source_type              'SuperNova (Cu) X-ray Source'
_diffrn_source_voltage           50
_exptl_absorpt_coefficient_mu    0.629
_exptl_absorpt_correction_T_max  1.00000
_exptl_absorpt_correction_T_min  0.86167
_exptl_absorpt_correction_type   multi-scan
_exptl_absorpt_process_details
;
CrysAlisPro, Agilent Technologies,
Version 1.171.37.35 (release 13-08-2014 CrysAlis171 .NET)
(compiled Aug 13 2014,18:06:01)
Empirical absorption correction using spherical harmonics,
 implemented in SCALE3 ABSPACK scaling algorithm.
;
_exptl_crystal_colour_primary    colourless
_exptl_crystal_density_diffrn    1.275
_exptl_crystal_description       needle
_exptl_crystal_F_000             316
_exptl_crystal_size_max          0.3
_exptl_crystal_size_mid          0.15
_exptl_crystal_size_min          0.12
_refine_diff_density_max         0.138
_refine_diff_density_min         -0.228
_refine_diff_density_rms         0.043
_refine_ls_abs_structure_details
;
 Flack x determined using 546 quotients [(I+)-(I-)]/[(I+)+(I-)]
 (Parsons, Flack and Wagner, Acta Cryst. B69 (2013) 249-259).
;
_refine_ls_abs_structure_Flack   0.3(4)
_refine_ls_extinction_method     none
_refine_ls_goodness_of_fit_ref   1.003
_refine_ls_hydrogen_treatment    constr
_refine_ls_matrix_type           full
_refine_ls_number_parameters     209
_refine_ls_number_reflns         2198
_refine_ls_number_restraints     1
_refine_ls_restrained_S_all      1.002
_refine_ls_R_factor_all          0.0463
_refine_ls_R_factor_gt           0.0398
_refine_ls_shift/su_max          0.000
_refine_ls_shift/su_mean         0.000
_refine_ls_structure_factor_coef Fsqd
_refine_ls_weighting_details
'w=1/[\s^2^(Fo^2^)+(0.0520P)^2^] where P=(Fo^2^+2Fc^2^)/3'
_refine_ls_weighting_scheme      calc
_refine_ls_wR_factor_gt          0.0950
_refine_ls_wR_factor_ref         0.0995
_reflns_Friedel_coverage         0.424
_reflns_Friedel_fraction_full    0.529
_reflns_Friedel_fraction_max     0.522
_reflns_number_gt                1976
_reflns_number_total             2198
_reflns_threshold_expression     'I > 2\s(I)'
_cod_data_source_file            am6b01282_si_002.cif
_cod_data_source_block           ming9cult
_cod_database_code               4516605
_shelx_space_group_comment
;
The symmetry employed for this shelxl refinement is uniquely defined
by the following loop, which should always be used as a source of
symmetry information in preference to the above space-group names.
They are only intended as comments.
;
_reflns_odcompleteness_completeness 98.93
_reflns_odcompleteness_iscentric 1
_reflns_odcompleteness_theta     68.13
_olex2_refinement_description
;
1. Fixed Uiso
 At 1.2 times of:
  All C(H) groups
 At 1.5 times of:
  All O(H) groups
2.a Aromatic/amide H refined with riding coordinates:
 C3(H3), C4(H4), C5(H5), C6(H6), C7(H7), C12(H12), C13(H13), C14(H14),
 C15(H15), C16(H16), C22(H22), C23(H23), C24(H24), C25(H25), C26(H26)
2.b Idealised tetrahedral OH refined as rotating group:
 O1(H1)
;
_shelx_res_file
;
    ming9cult.res created by SHELXL-2014/7

TITL ming9CuLT solution in P21
CELL 1.54184 11.109841 5.715903 13.055282 90 109.3876 90
ZERR 2 0.000452 0.000231 0.000522 0 0.0045 0
LATT -1
SYMM -X,0.5+Y,-Z
SFAC C H N O
UNIT 40 32 4 2

L.S. 6
PLAN  25
TEMP -173
HTAB O1 N1
BOND
CONF
fmap 2
acta 133
OMIT 0 135
OMIT 4 -5 4
OMIT -9 -3 2
OMIT -6 -4 11
OMIT 4 -6 4
OMIT 6 -3 3
OMIT -8 -4 6
OMIT 3 -2 3
OMIT 2 3 2
OMIT 7 0 2
OMIT 1 -2 4
OMIT 3 2 3
REM <olex2.extras>
REM <HklSrc "%.\\ming9CuLT.hkl">
REM </olex2.extras>

WGHT    0.052000
FVAR       9.55726
O1    4    0.312715    0.798968    0.628185    11.00000    0.03067    0.02682 =
         0.02461   -0.00040    0.00635    0.00305
AFIX 147
H1    2    0.298222    0.754931    0.563818    11.00000   -1.50000
AFIX   0
N1    3    0.325554    0.519756    0.473715    11.00000    0.02543    0.02486 =
         0.01678    0.00070    0.00691    0.00054
N2    3    0.312427    0.457193    0.365825    11.00000    0.02587    0.02536 =
         0.01784   -0.00027    0.00798    0.00067
C1    1    0.423021    0.427966    0.660745    11.00000    0.02084    0.02811 =
         0.01860   -0.00056    0.00749   -0.00367
C2    1    0.378210    0.631647    0.696656    11.00000    0.02131    0.02777 =
         0.02200   -0.00194    0.00685   -0.00325
C3    1    0.402565    0.663836    0.808176    11.00000    0.02735    0.03270 =
         0.02324   -0.00707    0.01036   -0.00381
AFIX  43
H3    2    0.371975    0.799775    0.833444    11.00000   -1.20000
AFIX   0
C4    1    0.470751    0.498595    0.881009    11.00000    0.03367    0.04323 =
         0.01895   -0.00215    0.01182   -0.00398
AFIX  43
H4    2    0.486081    0.521602    0.956348    11.00000   -1.20000
AFIX   0
C5    1    0.517693    0.298802    0.846827    11.00000    0.02860    0.03657 =
         0.02154    0.00658    0.00873    0.00086
AFIX  43
H5    2    0.566014    0.187612    0.898168    11.00000   -1.20000
AFIX   0
C6    1    0.492936    0.264222    0.736675    11.00000    0.02108    0.03122 =
         0.02208    0.00168    0.00816   -0.00054
AFIX  43
H6    2    0.523924    0.127348    0.712487    11.00000   -1.20000
AFIX   0
C7    1    0.398462    0.382903    0.545375    11.00000    0.02230    0.02608 =
         0.02008   -0.00111    0.00844   -0.00101
AFIX  43
H7    2    0.436644    0.251894    0.523516    11.00000   -1.20000
AFIX   0
C10   1    0.216688    0.557685    0.294484    11.00000    0.02324    0.02120 =
         0.01829    0.00246    0.00755   -0.00243
C11   1    0.124888    0.716133    0.322806    11.00000    0.02559    0.02758 =
         0.01474    0.00446    0.00543    0.00181
C12   1   -0.000024    0.640671    0.304470    11.00000    0.02788    0.02845 =
         0.01839    0.00274    0.00478   -0.00115
AFIX  43
H12   2   -0.028017    0.494223    0.270504    11.00000   -1.20000
AFIX   0
C13   1   -0.083471    0.782737    0.336586    11.00000    0.02504    0.04241 =
         0.02234    0.00778    0.00838    0.00366
AFIX  43
H13   2   -0.168385    0.732021    0.325087    11.00000   -1.20000
AFIX   0
C14   1   -0.043105    0.995775    0.384794    11.00000    0.03218    0.04022 =
         0.02326    0.00434    0.01272    0.01169
AFIX  43
H14   2   -0.099941    1.090617    0.407331    11.00000   -1.20000
AFIX   0
C15   1    0.080201    1.072797    0.400661    11.00000    0.03867    0.02764 =
         0.02399    0.00333    0.01034    0.00644
AFIX  43
H15   2    0.107219    1.221252    0.432791    11.00000   -1.20000
AFIX   0
C16   1    0.164007    0.932542    0.369502    11.00000    0.02717    0.02817 =
         0.02159    0.00417    0.00938    0.00308
AFIX  43
H16   2    0.248419    0.985242    0.380260    11.00000   -1.20000
AFIX   0
C21   1    0.197569    0.515077    0.178112    11.00000    0.01966    0.02787 =
         0.01933   -0.00239    0.00582   -0.00418
C22   1    0.250184    0.319312    0.144499    11.00000    0.02538    0.02884 =
         0.02254   -0.00057    0.00622    0.00164
AFIX  43
H22   2    0.295769    0.206086    0.196088    11.00000   -1.20000
AFIX   0
C23   1    0.235425    0.291260    0.035164    11.00000    0.03119    0.03742 =
         0.02797   -0.01424    0.01198   -0.00581
AFIX  43
H23   2    0.269818    0.157067    0.012002    11.00000   -1.20000
AFIX   0
C24   1    0.170764    0.458092   -0.040306    11.00000    0.02813    0.04506 =
         0.01848   -0.00596    0.00534   -0.01001
AFIX  43
H24   2    0.162577    0.439433   -0.114627    11.00000   -1.20000
AFIX   0
C25   1    0.118264    0.651371   -0.007452    11.00000    0.03189    0.03694 =
         0.01919    0.00086    0.00448   -0.00443
AFIX  43
H25   2    0.073426    0.765201   -0.059053    11.00000   -1.20000
AFIX   0
C26   1    0.131539    0.678145    0.101835    11.00000    0.02311    0.03330 =
         0.01985   -0.00012    0.00489   -0.00127
AFIX  43
H26   2    0.094736    0.810218    0.124281    11.00000   -1.20000
AFIX   0
HKLF 4

REM  ming9CuLT solution in P21
REM R1 =  0.0398 for    1976 Fo > 4sig(Fo)  and  0.0463 for all    2198 data
REM    209 parameters refined using      1 restraints

END

WGHT      0.0504      0.0000

REM Highest difference peak  0.138,  deepest hole -0.228,  1-sigma level  0.043
Q1    1   0.5019  0.0152  0.6798  11.00000  0.05    0.14
Q2    1  -0.0367  0.7600  0.2814  11.00000  0.05    0.13
Q3    1   0.5695  0.5278  0.6508  11.00000  0.05    0.12
Q4    1   0.1809  0.4750  0.2376  11.00000  0.05    0.12
Q5    1  -0.1211  1.1548  0.4773  11.00000  0.05    0.12
Q6    1   0.2601  0.5677  0.5022  11.00000  0.05    0.12
Q7    1  -0.0283  0.6400  0.0339  11.00000  0.05    0.12
Q8    1   0.5963  0.2389  0.6181  11.00000  0.05    0.11
Q9    1   0.4793 -0.1242  0.6386  11.00000  0.05    0.11
Q10   1   0.4380  0.4701  0.6068  11.00000  0.05    0.11
Q11   1   0.4805  0.1903  0.4536  11.00000  0.05    0.11
Q12   1   0.1134  1.1673  0.4447  11.00000  0.05    0.11
Q13   1   0.3772  0.3901  0.3356  11.00000  0.05    0.11
Q14   1   0.0508  0.1944  0.2250  11.00000  0.05    0.11
Q15   1  -0.0658  0.6646  0.0976  11.00000  0.05    0.11
Q16   1   0.2896 -0.0008  0.2021  11.00000  0.05    0.11
Q17   1   0.4436  0.7008  0.7545  11.00000  0.05    0.10
Q18   1  -0.0217  0.6507 -0.0983  11.00000  0.05    0.10
Q19   1   0.4744  0.1935  0.8008  11.00000  0.05    0.10
Q20   1   0.6402  0.2919  0.9166  11.00000  0.05    0.10
Q21   1   0.4209  0.3473  1.0091  11.00000  0.05    0.10
Q22   1   0.4067  0.8141  0.5021  11.00000  0.05    0.10
Q23   1   0.6245  0.5015  0.8916  11.00000  0.05    0.10
Q24   1   0.1608  0.8091  0.3837  11.00000  0.05    0.10
Q25   1   0.3627 -0.0089  0.1582  11.00000  0.05    0.10
;
_shelx_res_checksum              40220
_shelx_hkl_file
;
   0   0  -3 236191. 2272.00   4
   0   0  -4 163739. 2249.64   4
   0   0  -5 540.569 185.210   4
   0   0   5 668.208 97.7925   2
   0   0  -6 115633. 2418.26   4
   0   0  -7 1294.79 283.956   4
   0   0  -8 3875.15 564.022   4
   0   0  -9 1608.89 400.374   4
   0   0  10-143.778 198.695   6
   0   0  10 410.161 287.192   5
   0   0  11 3011.14 482.295   5
   0   0  11 2813.06 425.710   6
   0   0  12 12944.7 899.918   6
   0   0  12 12835.0 826.090   5
   0   0  13 855.020 238.088   5
   0   0  13 1082.97 265.160   6
   0   0  14 7435.46 607.946   6
   0   0  15 596.068 179.936   6
   0   1   0 4.40281 41.0330   4
   0  -1   0 17.0164 55.4540   9
   0  -1  -1 51835.4 840.779   9
   0   1  -1 50830.5 902.948   4
   0   1   3 89517.5 1365.28   3
   0  -1  -3 90668.3 1031.82   4
   0   1  -4 48220.2 1399.79   4
   0  -1  -4 48132.5 991.239   4
   0   1   4 49324.3 1163.57   3
   0   1  -5 610.792 195.015   4
   0   1   5 605.332 195.813   3
   0  -1  -5 198.610 102.048   4
   0  -1  -6 108975. 2018.07   4
   0   1   6 109866. 2301.26   3
   0   1  -6 108453. 2596.94   4
   0   1   7 8858.68 724.903   3
   0   1  -7 9525.72 860.076   4
   0   1  -8 16697.6 1244.67   4
   0   1   9 1563.45 326.673   6
   0   1  -9 1322.97 373.738   4
   0  -1   9 1284.73 261.149   6
   0   1  10 12734.9 927.954   6
   0  -1  10 13191.2 781.019   6
   0   1 -10 10494.1 1141.84   4
   0  -1  11 5993.53 575.824   6
   0  -1  11 6343.44 657.448   5
   0   1  11 6600.45 689.609   6
   0   1  12 123.169 149.596   6
   0  -1  12-21.8597 173.716   6
   0  -1  12 50.1463 184.623   5
   0   1  13 3883.72 540.666   6
   0  -1  13 3532.11 438.474   6
   0  -1  13 3955.32 454.683   5
   0  -1  14 1895.08 297.033   6
   0   1  14 2020.30 357.191   6
   0  -1  14 1575.64 243.360   5
   0  -2   0 701.758 126.762   9
   0  -2   0 581.760 333.530  10
   0   2   0 643.447 128.590   4
   0  -2  -1 48817.1 2058.98  10
   0   2  -1 50067.0 1149.05   4
   0  -2   1 51492.3 1036.37   9
   0  -2  -1 49504.1 999.186   9
   0  -2  -2 33810.6 954.353   9
   0   2   2 32951.9 1177.14   3
   0  -2  -2 31267.1 1616.86  10
   0   2  -2 34403.4 1096.57   4
   0   2   3 2711.89 325.919   3
   0   2  -3 3015.51 370.446   4
   0  -2  -3 2251.53 510.083  10
   0  -2  -3 2945.32 355.280   9
   0  -2  -4 52116.4 1608.25   9
   0   2   4 52737.5 1419.08   3
   0   2  -4 49286.7 1627.15   4
   0  -2  -4 51398.5 2344.92  10
   0   2  -5 15310.1 1008.07   4
   0  -2  -5 15802.8 1410.45  10
   0   2   5 16210.4 835.172   3
   0   2  -6 2631.49 443.690   4
   0   2   6 2843.27 403.613   3
   0   2  -7 19717.4 1354.41   4
   0   2   7 19942.3 1184.39   3
   0   2  -8 18731.4 1418.01   4
   0   2   8 19059.4 1113.86   6
   0   2   8 21117.6 1292.42   3
   0  -2   9 7103.70 544.104   7
   0   2   9 4895.60 631.071   6
   0  -2   9 6797.98 529.467   6
   0   2  -9 5529.97 813.688   4
   0  -2  10 79816.2 1745.06   7
   0  -2  10 76039.6 1782.21   6
   0   2  11 1777.71 442.473   6
   0  -2  11 2109.45 309.964   6
   0  -2  12 10064.4 753.261   5
   0  -2  12 9841.38 660.085   6
   0   2  12 9971.87 891.459   6
   0  -2  13 896.125 263.526   5
   0   2  13 1278.04 367.581   6
   0  -2  13 1087.08 220.500   6
   0  -2  14 867.534 180.512   6
   0  -2  14 1118.17 209.424   5
   0  -3   0 412.924 373.920  10
   0  -3  -1 859.699 480.153  10
   0   3   1 421.554 222.009   3
   0   3  -1 815.799 189.538   4
   0  -3  -2 135.152 336.889  10
   0   3  -2 72.9024 144.452   4
   0   3   2 169.778 131.912   3
   0   3   3 45495.6 1669.67   3
   0  -3  -3 43746.9 2578.74  10
   0   3  -3 42919.3 1588.25   4
   0   3  -4 34264.3 1553.76   4
   0  -3  -4 32107.0 2266.84  10
   0   3   4 38386.3 1488.87   3
   0   3  -5 8602.58 844.019   4
   0   3   5 7778.29 697.757   3
   0  -3  -5 7056.68 1115.27  10
   0   3  -6 3971.09 616.540   4
   0   3   6 4450.76 550.320   3
   0  -3  -6 3012.94 891.089  10
   0   3   7 31321.9 1578.88   6
   0  -3   7 31291.0 1219.53   7
   0   3   7 34622.8 1684.68   3
   0   3  -7 30723.7 1844.75   4
   0  -3  -7 27170.9 2432.76  10
   0  -3   8 1692.91 280.062   7
   0   3   8 2318.24 524.299   3
   0  -3  -8 2413.56 787.707  10
   0  -3   8 1746.26 279.099   6
   0   3  -8 1189.35 517.642   4
   0   3   8 1633.88 401.299   6
   0  -3   9 3298.84 422.394   7
   0   3   9 3346.92 553.169   6
   0  -3   9 3747.26 398.874   6
   0  -3  10 9411.34 621.654   7
   0  -3  10 9108.91 609.101   6
   0  -3  11 4573.26 423.154   6
   0  -3  11 4677.83 404.668   7
   0  -3  11 4613.39 509.572   5
   0  -3  12 1271.19 259.989   5
   0  -3  12 1159.89 223.163   6
   0  -3  13 4620.60 352.202   6
   0  -3  13 5391.08 431.571   5
   0  -3  14 934.487 143.318   5
   0   4   0 15259.4 1317.00   3
   0   4   1 495.910 321.726   3
   0   4   2 286.385 256.150   3
   0  -4  -2 916.692 566.600  10
   0   4   3 10420.3 951.564   3
   0   4  -3 7935.52 726.810   8
   0  -4  -3 10213.3 1648.39  10
   0  -4   3 7342.07 643.951   7
   0   4   4 5213.33 656.383   3
   0  -4   4 4051.81 491.074   7
   0  -4  -4 2893.25 1047.53  10
   0  -4   5 29.8048 143.781   7
   0   4   5 380.067 210.462   3
   0  -4  -5-535.156 1030.82  10
   0   4   6-80.9639 194.872   3
   0   4  -6-87.6210 138.883   4
   0  -4   7 15139.7 913.140   7
   0  -4   8 5263.48 461.059   6
   0  -4   8 4848.72 498.619   7
   0  -4   9 16445.6 756.292   6
   0  -4   9 16111.4 838.801   7
   0  -4  10 5774.73 515.454   5
   0  -4  10 6201.82 441.209   6
   0  -4  10 5756.57 449.225   7
   0  -4  11 2708.03 279.283   6
   0  -4  11 2222.47 317.113   5
   0  -4  11 2795.85 277.840   7
   0  -4  12-121.207 104.883   5
   0  -4  12 41.4004 87.5034   6
   0  -5   0-387.314 194.885   7
   0  -5  -1 9691.53 722.089   7
   0  -5   1 9751.73 757.093   7
   0   5   2 4106.45 518.223   8
   0  -5   2 3774.51 493.666   7
   0  -5   3 8687.38 720.427   7
   0  -5   4 1395.55 346.464   7
   0  -5   5-6.30498 163.660   7
   0  -5   6 191.612 140.909   7
   0  -5   7 9324.07 650.676   7
   0  -5   7 9299.83 545.985   6
   0  -5   8 1684.61 283.597   7
   0  -5   8 1384.29 211.685   6
   0  -5   9 1134.87 209.656   7
   0  -5   9 920.485 157.441   6
   0  -5  10 741.370 144.097   7
   0  -5  10 551.759 116.689   6
   0  -6   0 9290.94 615.425   7
   0  -6   1 4805.51 465.606   7
   0  -6   2 946.049 215.560   7
   0  -6   3 14570.5 772.406   7
   0  -6   4 3314.85 366.507   7
   0  -6   5 1432.62 238.880   7
   0  -6   6 2752.34 242.237   6
   0  -6   6 3045.54 312.504   7
   0  -6   7 433.137 110.412   6
   0  -6   7 904.238 167.630   7
   0  -6   8 3227.79 241.828   7
  -1   0  15 15.2721 127.808   6
  -1   0  14-0.56180 171.191   6
  -1   0  13 3761.55 505.483   6
  -1   0  12-26.5112 167.537   6
  -1   0  12-170.925 207.322   5
  -1   0  11 2024.18 364.951   5
  -1   0  11 2113.91 383.814   6
   1   0 -10 4666.17 703.599   4
  -1   0  10 5636.61 541.997   6
   1   0  -9 711.219 259.350   4
   1   0  -8-13.1929 139.539   4
   1   0  -7-79.3679 111.849   4
  -1   0   6 16740.7 585.902   2
   1   0  -6 15744.2 872.365   4
   1   0  -5 867.127 197.888   4
  -1   0   5 680.609 126.588   2
  -1   0   4 19966.8 523.136   2
  -1   0   4 20076.5 708.918   3
  -1   0   3 306229. 1848.15   2
  -1   0   2 71077.9 784.164   2
  -1   0   1 57444.8 633.608   2
   1   0  -1 58946.8 926.621   9
   1   0   0 927.978 126.103   9
  -1   0   0 1100.61 91.1582   2
  -1   0  -1 39229.7 614.531   2
   1   0   1 39251.2 830.737   9
   1   0   2 215.197 110.589   9
  -1   0  -2 156.295 92.4486   4
  -1   0  -3 113764. 1774.12   4
  -1   0  -4 816.795 197.399   4
  -1   0  -5 27957.2 1133.03   4
  -1   0  -6 1919.76 351.295   4
  -1   0  -7 108.467 122.458   4
  -1   0  -8 3201.19 534.203   4
   1   0   9 815.016 238.594   6
  -1   0  -9 558.716 289.710   4
   1   0   9 852.703 272.304   5
   1   0  10 34597.1 1387.37   5
   1   0  10 31014.9 1334.80   6
   1   0  11 9868.27 755.713   5
   1   0  11 8917.38 727.370   6
   1   0  12 4788.03 516.137   5
   1   0  12 4567.94 545.317   6
   1   0  13 447.510 204.426   6
   1   0  13 143.040 120.582   5
   1   0  14 2589.28 326.441   6
  -1   1  15 408.260 193.554   6
  -1  -1  15 510.727 187.045   6
  -1  -1  14 812.445 208.821   5
  -1  -1  14 894.532 254.534   6
  -1   1  14 904.443 300.070   6
  -1  -1  13 2109.75 375.191   5
  -1  -1  13 2140.24 375.659   6
  -1   1  13 1735.59 361.782   6
  -1  -1  12 5744.82 607.186   5
  -1   1  12 6627.56 691.729   6
  -1  -1  12 5834.49 580.573   6
  -1   1  11 2661.42 469.727   6
  -1  -1  11 3167.62 426.207   6
  -1   1  10 12118.6 858.199   6
   1   1 -10 12084.7 1182.88   4
  -1  -1  10 13751.1 777.674   6
   1   1  -9 20221.3 1425.53   4
   1   1  -8 12886.8 1062.81   4
   1   1  -7 21490.5 1234.70   4
   1  -1  -7 19180.4 959.961   4
  -1   1   7 21647.2 1127.13   3
  -1   1   6 180847. 2868.19   3
   1   1  -6 180341. 3241.02   4
   1  -1  -5 32914.3 966.816   4
   1   1  -5 32990.3 1245.46   4
  -1   1   5 33267.2 1057.98   3
  -1   1   5 34005.0 962.142   2
  -1   1   4 83857.8 1502.52   2
  -1   1   4 83794.6 1475.80   3
  -1   1   3 51538.7 1154.34   2
   1  -1  -2 54592.6 1257.21   9
  -1   1   2 53789.5 1205.32   2
   1  -1  -2 57841.9 1396.59  10
  -1   1   1 77129.0 941.584   4
  -1   1   1 77480.5 1496.97   2
   1  -1  -1 75880.6 1367.05   9
   1  -1  -1 75426.6 1546.91  10
   1  -1   0 388736. 3187.08   9
  -1   1   0 398519. 2507.85   4
   1   1   1 45563.5 903.974   3
   1  -1   1 47862.0 1171.57   9
   1  -1   2 132689. 2101.56   9
  -1  -1  -2 138078. 1149.43   4
   1   1   2 137494. 1546.30   3
   1  -1   3 43400.7 1322.18   9
  -1   1  -3 42805.3 1264.17   4
   1   1   3 42096.2 948.111   3
  -1  -1  -3 42477.0 831.818   4
  -1  -1  -4 43672.6 1027.38   4
  -1   1  -4 45363.1 1453.69   4
   1   1   4 45604.9 1144.41   3
  -1  -1  -5 56297.1 1339.45   4
  -1   1  -5 55614.8 1785.60   4
   1   1   5 59588.1 1532.52   3
  -1   1  -6 5736.48 636.736   4
  -1  -1  -6 5793.44 495.917   4
   1   1   6 6380.17 573.128   3
  -1   1  -7 20794.6 1317.94   4
  -1   1  -8 15266.5 1225.89   4
   1  -1   9 15328.4 817.436   6
  -1   1  -9 13686.6 1230.54   4
   1   1   9 13943.2 930.681   6
   1   1  10 25203.3 1314.41   6
   1  -1  10 26818.4 1149.11   6
   1  -1  10 27770.8 1292.04   5
   1   1  11 16051.5 1075.47   6
   1  -1  11 16968.5 1022.53   5
   1  -1  11 15332.1 892.100   6
   1  -1  12-17.5101 145.763   5
   1  -1  12-3.71698 67.2333   6
   1   1  13 936.162 327.660   6
   1  -1  13 888.921 260.492   5
   1  -1  13 865.605 225.493   6
   1  -1  14 1632.55 262.001   6
   1  -1  14 1526.10 238.266   5
  -1  -2  14 1795.65 274.619   5
  -1  -2  14 1920.58 271.466   6
  -1  -2  13 6295.67 535.243   6
  -1  -2  13 7360.44 597.880   5
  -1   2  13 6093.70 667.727   6
  -1  -2  12 837.664 246.181   6
  -1   2  12 835.525 338.982   6
  -1   2  11 6634.60 764.330   6
  -1  -2  11 7507.16 583.909   6
  -1  -2  10 32390.9 1162.19   6
  -1   2  10 28047.9 1463.28   6
   1   2  -9 31189.9 1918.34   4
  -1   2   9 32555.4 1504.63   6
   1  -2  -9 20088.2 1746.90   9
  -1  -2   9 36754.4 1173.91   6
  -1   2   9 34596.7 1774.23   3
   1  -2  -9 21420.7 2131.22  10
  -1   2   8 1369.91 366.426   3
   1  -2  -8 1142.75 489.782   9
   1   2  -8 1409.88 410.628   4
   1  -2  -8 1274.92 486.667  10
   1   2  -7 5779.15 707.255   4
  -1   2   7 6945.51 687.863   3
   1  -2  -7 6385.37 1037.45  10
   1  -2  -7 5564.32 756.835   9
   1  -2  -6 3315.21 715.939  10
   1  -2  -6 3082.12 538.565   9
  -1   2   6 3758.75 451.175   3
   1   2  -6 3523.36 514.037   4
   1  -2  -5 14398.1 1000.98   9
   1  -2  -5 15592.2 1292.13  10
   1   2  -5 14610.3 936.707   4
  -1   2   5 15144.2 810.013   3
   1   2  -4 12347.3 790.641   4
   1  -2  -4 14036.9 1114.57  10
   1  -2  -4 13057.4 849.223   9
  -1   2   4 14039.5 754.445   3
  -1   2   3 27023.6 1037.05   3
   1  -2  -3 27748.3 1469.45  10
   1   2  -3 29446.5 1094.94   4
   1  -2  -3 28867.2 1142.70   9
   1  -2  -2 162405. 3497.63  10
   1   2  -2 160156. 2259.55   4
   1  -2  -2 158665. 2524.74   9
  -1   2   2 154653. 2619.07   3
  -1  -2   1 21221.1 1516.93  10
   1  -2  -1 20995.2 892.585   9
   1  -2  -1 20647.3 1311.16  10
   1   2  -1 21654.5 712.738   4
  -1   2   1 21888.2 623.686   4
  -1  -2   0 53205.0 2284.20  10
  -1   2   0 55823.2 1175.14   4
   1   2   0 56609.3 917.090   4
   1  -2   0 52396.0 1378.12   9
   1  -2   1 39544.6 1224.34   9
  -1  -2  -1 40543.5 1957.11  10
   1   2   1 39616.2 1307.33   3
  -1   2  -1 43012.1 1182.66   4
  -1  -2  -2 54531.9 2323.57  10
  -1   2  -2 57603.3 1536.21   4
  -1  -2  -2 54158.5 991.630   9
   1   2   2 56752.8 1461.87   3
   1  -2   2 56705.4 1548.79   9
   1   2   3 3893.61 375.744   3
  -1  -2  -3 3406.04 634.842  10
  -1   2  -3 3399.47 443.465   4
   1  -2   3 3949.43 455.827   9
  -1   2  -4 26900.9 1278.21   4
   1   2   4 29252.5 1052.82   3
  -1  -2  -4 31409.3 1991.40  10
   1   2   5 91083.6 2025.14   3
  -1   2  -5 89363.5 2526.97   4
  -1   2  -6 25045.3 1459.60   4
   1   2   6 26465.9 1231.91   3
  -1   2  -7 6999.84 834.287   4
   1   2   7 5953.70 663.408   3
   1  -2   8 17550.5 850.798   7
   1  -2   8 17047.4 777.820   6
   1   2   8 14427.7 1104.22   3
  -1   2  -8 13583.5 1241.02   4
   1   2   8 14349.6 1007.89   6
   1  -2   9 47284.1 1352.66   6
   1   2   9 40965.6 1763.27   6
  -1   2  -9 41004.0 2266.48   4
   1  -2   9 47606.1 1406.75   7
   1  -2  10 25301.9 1036.24   6
   1  -2  10 25052.0 1245.43   5
   1   2  10 22480.4 1358.78   6
   1  -2  10 26261.9 1034.30   7
   1   2  11-63.0661 213.714   6
   1  -2  11 75.5744 144.900   6
   1  -2  11 30.4935 59.1142   7
   1  -2  11 209.863 201.719   5
   1  -2  12 2431.91 386.649   5
   1  -2  12 2260.24 335.150   6
   1   2  12 2862.87 478.857   6
   1  -2  13 2840.58 318.432   6
   1  -2  13 2738.76 336.724   5
   1  -2  14 444.529 141.519   5
  -1  -3  14 1408.12 204.546   5
  -1  -3  14 1440.64 192.869   6
  -1  -3  13 3955.43 385.660   5
  -1  -3  13 4058.59 364.909   6
  -1  -3  12 10304.6 625.195   6
  -1  -3  12 10028.7 711.846   5
  -1  -3  11 8307.50 518.812   7
  -1  -3  11 8596.61 600.435   6
  -1  -3  10 15725.6 793.491   6
  -1  -3  10 15656.7 798.084   7
  -1   3  10 14366.1 1129.27   6
  -1  -3   9 18043.0 914.872   7
  -1  -3   9 18764.2 872.724   6
  -1   3   9 16515.2 1201.78   6
  -1   3   8 18568.7 1342.13   3
  -1   3   8 14603.5 1102.75   6
  -1  -3   8 16799.4 904.806   7
   1   3  -8 15701.0 1382.12   4
  -1  -3   8 17182.7 819.849   6
  -1   3   7 10192.6 881.838   3
  -1   3   7 8710.33 861.497   6
  -1  -3   7 9740.30 688.238   7
   1   3  -7 8278.60 953.755   4
   1  -3  -6 1919.26 575.055  10
   1   3  -6 1594.23 370.959   4
  -1   3   6 2146.98 406.324   3
   1  -3  -5 13602.4 1488.45  10
  -1   3   5 16405.4 1013.77   3
   1   3  -5 13286.1 1018.80   4
   1   3  -4 7166.89 685.190   4
  -1   3   4 7748.06 695.472   3
   1  -3  -4 6658.32 1036.65  10
   1   3  -3 4715.24 510.147   4
   1  -3  -3 3274.33 816.749  10
  -1   3   3 4643.40 563.447   3
   1  -3  -2 29412.2 2070.76  10
  -1   3   2 31853.4 1514.97   3
   1   3  -2 31758.0 1170.84   4
   1  -3  -1 1343.11 492.790  10
  -1   3   1 1712.26 398.527   3
  -1   3   0 708.497 191.380   4
  -1  -3   0 202.332 358.035  10
   1   3   1 70813.4 2204.09   3
  -1  -3  -1 70721.8 3418.55  10
  -1   3  -1 74493.3 1802.00   4
  -1  -3  -2 7775.79 1188.04  10
   1  -3   2 9970.38 712.652   9
  -1   3  -2 8931.03 696.275   4
   1   3   2 9048.44 765.199   3
  -1  -3  -3 12761.2 1508.68  10
   1   3   3 14980.6 928.388   3
  -1   3  -3 14100.4 962.398   4
   1   3   4 13948.8 892.307   3
  -1  -3  -4 13401.6 1572.07  10
  -1   3  -4 12634.8 995.104   4
   1   3   5 562.945 242.426   3
  -1   3  -5 410.211 188.683   4
  -1  -3  -6 1179.30 608.498  10
   1  -3   6 891.615 255.810   7
   1   3   6 1043.53 321.349   3
  -1   3  -6 519.402 264.949   4
   1   3   7 19647.5 1299.83   3
  -1  -3  -7 16462.0 2029.74  10
   1  -3   7 18980.2 815.038   6
  -1   3  -7 17778.1 1432.75   4
   1  -3   7 20047.1 991.648   7
   1  -3   8 4093.10 461.237   7
   1  -3   8 3826.65 380.988   6
   1  -3   9 3138.90 416.701   7
   1  -3   9 2303.99 311.320   6
   1  -3  10 1020.49 201.579   6
   1  -3  10 827.642 229.227   5
   1  -3  10 1093.78 244.285   7
   1  -3  11 183.169 85.3085   7
   1  -3  11 47.5374 131.619   6
   1  -3  12 297.022 119.112   7
   1  -3  12 366.701 152.212   5
   1  -3  13 1122.56 208.039   5
  -1  -4  13 1615.26 196.376   5
  -1  -4  12 618.404 188.810   5
  -1  -4  12 635.972 149.070   6
  -1  -4  11 380.946 132.798   7
  -1  -4  11 523.284 155.451   6
  -1  -4  11 81.9750 127.764   5
  -1  -4  10 6125.59 457.510   6
  -1  -4  10 5150.83 436.755   7
  -1  -4   9-9.01781 127.359   6
  -1  -4   9-12.9299 89.2974   7
  -1  -4   8 12998.7 731.643   6
  -1  -4   8 13266.8 838.505   7
  -1  -4   7 9039.42 725.405   7
  -1   4   6 7196.82 787.480   3
   1   4  -6 5098.68 771.631   4
  -1  -4   6 5464.35 605.676   7
  -1   4   5 22969.5 1382.16   3
  -1  -4   5 17726.9 1032.92   7
  -1  -4   4 4353.57 525.864   7
   1   4  -4 4895.12 602.738   8
  -1   4   4 5782.01 687.241   3
   1  -4  -3 1683.85 792.525  10
  -1   4   3 1306.16 386.258   3
  -1   4   2 10001.3 997.639   3
  -1   4   1 2913.72 578.500   3
  -1   4   0 603.811 336.494   3
   1   4   0 1219.64 354.190   3
  -1  -4  -1 15653.6 2005.73  10
   1   4   1 16801.7 1277.03   3
  -1  -4  -2 18625.3 2203.09  10
   1   4   2 18998.1 1285.84   3
   1  -4   3 3199.12 439.700   7
  -1  -4  -3 3532.60 1301.24  10
   1   4   3 3995.71 555.625   3
   1  -4   4 172.397 130.372   7
  -1  -4  -4 275.992 854.040  10
   1   4   4 529.622 263.054   3
   1  -4   5 2591.09 389.548   7
   1   4   5 3101.92 576.971   3
  -1  -4  -5 2201.14 1360.02  10
  -1   4  -5 2480.57 493.846   4
   1  -4   6 6503.77 581.888   7
   1  -4   7 36542.3 1134.54   6
   1  -4   7 38391.7 1392.37   7
   1  -4   8 22579.9 854.852   6
   1  -4   8 23341.5 1054.30   7
   1  -4   9 867.177 192.447   6
   1  -4   9 839.339 227.031   7
   1  -4   9 585.117 215.448   5
   1  -4  10 1454.40 205.026   6
   1  -4  10 1062.17 244.350   5
   1  -4  10 1420.77 245.105   7
   1  -4  11 1399.21 202.081   7
   1  -4  11 1285.00 235.577   5
   1  -4  12 1495.73 180.018   5
  -1  -5  10 1053.48 160.581   6
  -1  -5  10 892.205 181.365   5
  -1  -5  10 970.718 178.101   7
  -1  -5   9 4401.14 344.829   6
  -1  -5   9 4426.47 391.467   7
  -1  -5   9 3695.95 341.732   5
  -1  -5   8 2108.81 329.204   7
  -1  -5   8 1726.75 254.786   6
  -1  -5   7 1244.09 231.011   7
  -1  -5   6 3679.18 457.773   7
  -1  -5   5 691.255 255.537   7
  -1  -5   4 392.569 205.467   7
  -1  -5   3 8288.42 724.965   7
   1   5  -2 6985.33 733.271   8
  -1  -5   2 5979.45 623.149   7
   1   5  -1 1315.33 353.493   8
  -1  -5   1 964.994 265.282   7
  -1  -5   0 5445.51 577.332   7
   1  -5   0 5400.63 549.667   7
   1   5   0 6341.25 687.648   8
   1   5   1 13107.8 939.601   8
   1  -5   1 11613.0 799.090   7
   1  -5   2 14084.6 883.168   7
   1   5   2 14866.7 976.875   8
   1  -5   3 2458.49 387.719   7
   1  -5   4 305.426 137.124   7
   1  -5   5 2325.49 368.189   7
   1  -5   6 1553.02 311.978   7
   1  -5   7 3286.44 307.327   6
   1  -5   7 3325.84 398.981   7
   1  -5   8 929.685 221.743   7
   1  -5   8 1221.40 190.255   6
   1  -5   9 1746.75 237.395   7
   1  -5  10 422.846 110.013   7
  -1  -6   8 492.688 92.6324   6
  -1  -6   8 383.477 122.327   7
  -1  -6   7 2421.64 272.351   7
  -1  -6   7 2328.16 214.321   6
  -1  -6   6 2616.37 311.070   7
  -1  -6   5 273.779 148.283   7
  -1  -6   4 122.709 91.2301   7
  -1  -6   3 2527.29 351.686   7
  -1  -6   2 7514.89 589.134   7
  -1  -6   1 2097.36 327.365   7
   1  -6   0 493.705 172.310   7
  -1  -6   0 544.398 213.820   7
   1  -6   1 1834.90 273.628   7
  -1  -6  -1 1411.24 278.479   7
   1  -6   2 3007.54 363.875   7
   1  -6   3 1427.40 260.087   7
   1  -6   4 8194.70 528.461   7
   1  -6   5 113.480 125.475   7
   1  -6   5 64.5999 68.4068   6
   1  -6   6 1920.72 230.960   7
   1  -6   7 1201.06 165.009   7
   1  -6   8 1174.60 140.141   7
  -2   0  16-135.161 121.506   6
  -2   0  15 156.608 186.666   6
  -2   0  14 9.31432 140.839   6
  -2   0  13 23.8712 186.946   6
  -2   0  12 14403.8 939.030   6
  -2   0  11 240.414 230.381   6
   2   0 -10 1599.93 417.528   4
  -2   0  10 1661.11 294.733   6
   2   0  -9 5039.54 680.384   4
   2   0  -8 2498.05 452.678   4
  -2   0   7 14023.7 678.548   2
   2   0  -7 12955.9 882.491   4
  -2   0   6 49519.6 1154.62   2
  -2   0   5 107057. 1574.39   2
  -2   0   4 3591.73 304.111   3
  -2   0   4 3768.09 275.013   2
  -2   0   3 47.2204 84.8611   3
  -2   0   3 52.8764 73.6096   2
  -2   0   2 133253. 1164.11   3
   2   0  -2 134200. 2012.48   9
  -2   0   2 133766. 1416.58   2
  -2   0   1 156365. 1474.98   2
  -2   0   1 157024. 1594.95  10
   2   0  -1 155896. 2044.76   9
   2   0   0 74.3528 129.960   9
  -2   0   0 27.5149 51.8410   2
  -2   0  -1 231359. 2024.20   2
   2   0   1 229597. 2650.07   9
  -2   0  -2 9091.38 515.694   4
   2   0   2 9098.51 577.150   9
   2   0   3 2912.90 366.328   9
  -2   0  -3 2752.53 322.347   4
  -2   0  -4 598.709 193.764   4
  -2   0  -5-88.1953 113.854   4
  -2   0  -6 602.767 246.927   4
  -2   0  -7 9598.40 855.141   4
  -2   0  -8 104.848 192.007   4
   2   0   9 40229.5 1494.50   5
   2   0   9 38358.1 1424.15   6
   2   0  10 2294.05 372.991   6
   2   0  10 2268.35 418.579   5
   2   0  11 4373.40 542.185   5
   2   0  11 4793.21 549.491   6
   2   0  12 2080.80 398.375   6
   2   0  12 1828.79 330.532   5
   2   0  13 497.233 190.719   5
  -2  -1  15 1568.81 256.054   6
  -2   1  15 1428.72 275.570   6
  -2  -1  14 1434.83 288.531   6
  -2  -1  14 1056.92 266.763   5
  -2   1  14 1367.85 353.689   6
  -2   1  13 1453.97 337.289   6
  -2  -1  13 1845.11 325.026   5
  -2  -1  13 1691.32 342.345   6
  -2   1  12 3034.50 509.477   6
  -2  -1  12 3926.06 453.655   6
  -2  -1  11 6050.57 552.576   6
  -2   1  11 5195.08 616.246   6
   2   1 -10 580.522 334.541   4
  -2  -1  10 720.219 214.954   6
  -2   1  10 508.708 220.236   6
   2   1  -9 1811.37 458.269   4
  -2  -1   8 1388.42 240.645   2
  -2   1   8 1672.37 326.325   3
   2   1  -8 1322.85 366.936   4
  -2   1   7 4896.39 536.157   3
   2  -1  -7 4254.10 476.703   4
   2   1  -7 4113.73 568.971   4
  -2  -1   7 5074.56 421.852   2
  -2   1   6 1253.07 268.439   3
  -2   1   6 1891.85 296.696   2
  -2   1   5 8516.39 543.911   3
  -2   1   5 7871.17 547.709   2
   2  -1  -4 1509.47 335.489   9
  -2   1   4 1532.01 219.685   3
  -2   1   4 1773.59 266.019   2
  -2   1   3 58340.6 1121.70   3
   2  -1  -3 58660.4 1632.37   9
  -2   1   3 56268.6 1392.16   2
  -2   1   2 25245.9 746.092   3
   2  -1  -2 26965.0 1048.87   9
  -2   1   2 26854.7 961.975   2
  -2  -1   2 29115.1 1439.60  10
   2  -1  -2 26573.5 775.895  10
  -2  -1   1 598153. 5960.86  10
   2  -1  -1 587054. 4827.15   9
  -2   1   1 600782. 3587.48   4
  -2   1   1 600822. 4686.09   2
   2   1   0 31641.8 751.475   3
   2  -1   0 32436.0 1177.58   9
  -2   1   0 33278.3 923.806   4
  -2   1   0 32856.6 1141.32   2
   2   1   0 31568.4 644.282   9
   2  -1   1 167615. 2701.72   9
   2   1   1 170416. 1548.12   3
  -2  -1  -1 174005. 1705.80   4
   2   1   1 171536. 1694.06   9
  -2  -1  -2 15120.5 348.501   2
  -2  -1  -2 17567.2 577.740   4
   2  -1   2 17039.2 895.274   9
   2   1   2 18133.7 547.033   3
  -2   1  -2 17476.0 812.429   4
  -2   1  -3 20152.6 961.997   4
   2  -1   3 20183.0 1038.72   9
  -2  -1  -3 20059.8 704.249   4
   2   1   3 19907.6 685.251   3
  -2  -1  -4 39649.5 1123.14   4
   2   1   4 40802.4 1146.30   3
  -2   1  -4 41477.8 1507.50   4
   2  -1   4 42165.1 1612.82   9
   2   1   5 53717.2 1475.96   3
  -2  -1  -5 55073.2 1465.98   4
  -2   1  -5 57713.6 1939.82   4
  -2   1  -6 958.637 333.643   4
  -2   1  -7 7688.20 858.955   4
   2  -1   8 7973.18 670.569   5
  -2   1  -8 7043.84 851.952   4
   2   1   8 7425.15 640.524   6
   2  -1   9 46234.7 1369.17   7
   2   1   9 42357.9 1458.91   5
   2  -1   9 46041.2 1642.30   5
   2   1   9 42490.3 1663.12   6
   2  -1   9 41296.9 1360.46   6
   2   1  10 4820.35 625.940   6
   2   1  10 5877.89 560.746   5
   2  -1  10 5094.53 598.463   5
   2  -1  10 5600.45 490.176   7
   2  -1  10 5490.00 537.660   6
   2   1  11 3876.85 596.810   6
   2  -1  11 3467.30 495.105   5
   2   1  11 3584.73 451.216   5
   2  -1  11 3791.68 423.424   6
   2  -1  12 1397.02 311.304   5
   2   1  12 1162.13 297.939   6
   2  -1  13 538.281 178.863   5
   2  -1  14 215.278 125.445   5
  -2  -2  15 3289.78 285.026   5
  -2  -2  15 3699.72 329.703   6
  -2  -2  14 971.426 229.835   5
  -2  -2  14 1256.99 259.752   6
  -2   2  14 1106.24 327.533   6
  -2  -2  13 1546.25 334.439   5
  -2   2  13 1416.13 394.928   6
  -2  -2  13 1464.12 304.104   6
  -2   2  12 5919.89 720.490   6
  -2  -2  12 6560.13 570.662   6
  -2  -2  11 21335.7 976.721   6
  -2   2  11 20639.3 1299.77   6
  -2  -2  10 8296.41 597.856   6
   2   2 -10 7427.17 981.374   4
  -2   2  10 6649.55 768.378   6
  -2  -2   9 33933.1 1435.06   1
  -2  -2   9 35020.8 1143.45   6
  -2   2   9 33274.7 1488.45   6
   2   2  -9 31330.9 1884.47   4
  -2   2   9 33600.5 1730.53   3
   2   2  -8 19893.8 1395.22   4
  -2   2   8 21679.3 1299.23   3
   2  -2  -8 19285.1 1575.10   9
  -2   2   7 572.099 189.683   3
   2  -2  -7 625.702 388.770   9
   2  -2  -7 553.271 278.714  10
   2   2  -7 470.262 260.705   4
  -2   2   6 11044.2 753.019   3
   2  -2  -6 9453.37 946.805   9
   2   2  -6 10126.8 854.170   4
   2  -2  -6 9277.58 1003.42  10
   2  -2  -5 690.449 266.308   9
   2  -2  -5 1254.87 399.595  10
  -2   2   5 1291.21 261.120   3
   2   2  -5 1344.37 329.078   4
  -2   2   4 28488.6 1074.41   3
   2  -2  -4 27715.2 1342.31   9
   2  -2  -4 25190.7 1372.77  10
   2  -2  -3 3643.68 479.904   9
  -2   2   3 3224.94 382.693   3
   2  -2  -3 3182.73 514.403  10
   2  -2  -2 49119.7 1850.24  10
  -2   2   2 47903.4 1503.97   3
   2   2  -2 47472.1 875.435   9
  -2   2   2 51911.2 1109.88   4
  -2  -2   2 48337.6 2430.86  10
   2  -2  -2 45489.7 1584.44   9
   2  -2  -1 18504.5 1009.92   9
  -2  -2   1 18592.6 1478.51  10
  -2   2   1 19383.1 739.001   4
  -2  -2   0 23669.9 1582.36  10
   2  -2   0 25654.6 1169.02   9
  -2   2   0 25748.2 945.838   4
  -2  -2  -1 21603.3 1513.86  10
   2  -2   1 23347.2 1126.39   9
   2   2   1 23800.2 946.082   3
  -2   2  -1 22622.9 965.105   4
   2   2   2 13280.5 657.143   3
   2  -2   2 12954.9 879.252   9
  -2   2  -2 13729.1 828.574   4
  -2  -2  -2 12444.8 1223.14  10
   2   2   3 45522.3 1226.90   3
  -2  -2  -3 49251.3 2519.92  10
   2  -2   3 46933.2 1729.88   9
  -2   2  -3 44407.2 1607.29   4
   2  -2   4 39818.1 1700.54   9
  -2  -2  -4 39344.5 2414.59  10
   2   2   4 37170.5 1191.63   3
  -2   2  -4 35427.9 1563.61   4
  -2  -2  -5 23900.9 2050.32  10
  -2   2  -5 22477.3 1339.19   4
   2   2   5 22943.0 1048.27   3
   2   2   6 2153.37 413.820   3
  -2   2  -6 1648.29 435.569   4
  -2  -2  -7-336.518 593.997  10
  -2   2  -7-153.585 145.801   4
   2   2   7 374.393 293.054   3
   2   2   8 824.127 331.275   6
   2  -2   8 1080.97 251.672   7
   2  -2   8 1049.80 275.231   5
  -2  -2  -8 537.284 897.727  10
  -2   2  -8 1270.14 425.723   4
   2  -2   9 13791.9 913.088   5
   2  -2   9 13895.5 783.375   7
   2   2   9 13655.7 1030.94   6
   2  -2  10-109.998 112.088   7
   2  -2  10 197.747 204.542   5
   2  -2  11 1936.57 271.719   7
   2  -2  11 2375.58 371.286   5
   2  -2  12 2926.55 382.692   5
   2  -2  13 213.098 138.920   5
  -2  -3  14 2110.73 268.856   5
  -2  -3  14 2357.85 260.216   6
  -2  -3  13 83.0869 136.292   6
  -2  -3  13 272.850 166.050   5
  -2  -3  12 2967.04 355.957   6
  -2  -3  11 15840.0 807.505   6
  -2   3  11 13081.0 1044.49   6
  -2  -3  10 12858.6 748.180   6
  -2   3  10 12784.4 1066.48   6
  -2  -3  10 12719.7 722.917   7
  -2  -3   9 29184.3 1106.55   6
  -2  -3   9 27834.7 1128.83   7
   2   3  -8 55950.1 2525.05   4
  -2  -3   8 54049.6 1612.48   7
  -2   3   8 59794.5 2316.03   3
  -2   3   7 5011.35 645.046   6
   2   3  -7 4800.27 686.940   4
  -2   3   7 5673.49 670.750   3
  -2   3   6 17511.0 1080.47   3
   2   3  -6 14448.1 1131.26   4
   2   3  -5 10605.0 898.316   4
  -2   3   5 10946.3 841.614   3
  -2   3   4 18932.1 1098.46   3
   2  -3  -4 15300.3 1469.78  10
   2   3  -4 18134.3 1075.66   4
  -2   3   3 22245.6 1224.36   3
   2   3  -3 21679.3 1072.94   4
   2  -3  -3 18560.8 1554.18  10
   2  -3  -2 31926.2 1457.59   9
  -2   3   2 29851.3 1489.31   3
   2   3  -2 33194.4 1174.61   4
  -2  -3   1 5723.07 1069.53  10
  -2   3   1 4469.69 630.258   3
   2  -3  -1 5422.45 601.650   9
   2  -3   0 20112.0 1099.85   9
  -2  -3   0 18458.3 1850.65  10
   2   3   0 19576.7 1191.31   3
  -2   3   0 20011.9 938.817   4
  -2  -3  -1 41898.4 2738.84  10
   2   3   1 46783.4 1715.95   3
   2  -3   1 45514.6 1682.72   9
  -2   3  -1 46353.1 1572.71   4
   2  -3   2 796.038 286.393   9
  -2  -3  -2 359.568 540.536  10
  -2   3  -2 724.897 228.190   4
   2   3   2 689.106 236.862   3
   2   3   3 8527.96 672.203   3
  -2   3  -3 7795.70 766.067   4
  -2  -3  -3 7998.39 1308.75  10
   2  -3   3 8559.97 811.180   9
  -2  -3  -4 8438.57 1326.67  10
   2   3   4 9360.09 721.843   3
  -2   3  -4 7620.43 818.162   4
   2   3   5 885.751 277.839   3
  -2  -3  -5 503.575 493.429  10
  -2   3  -5 274.795 163.303   4
  -2  -3  -6 1387.40 894.049  10
  -2   3  -6 1546.44 470.739   4
   2  -3   6 2225.77 330.699   7
   2   3   6 2194.57 410.033   3
  -2  -3  -7 4205.10 1140.70  10
   2  -3   7 5569.05 538.684   7
  -2   3  -7 4038.49 686.216   4
   2   3   7 4517.75 623.652   3
   2  -3   8 10348.3 714.544   7
   2  -3   8 9198.48 724.272   5
   2  -3   9 158.078 167.751   5
   2  -3   9-62.9413 160.251   7
   2  -3  10 1879.71 351.716   5
   2  -3  10 2615.14 316.904   7
   2  -3  11 12459.8 617.035   7
   2  -3  11 11527.5 708.387   5
   2  -3  12 1188.87 227.703   5
   2  -3  12 723.213 140.988   7
   2  -3  13 1102.90 157.059   5
  -2  -4  13 1728.72 199.350   6
  -2  -4  13 1954.51 232.299   5
  -2  -4  12 2755.40 326.563   5
  -2  -4  12 2982.61 293.995   6
  -2  -4  11 2843.04 295.988   7
  -2  -4  11 2955.90 317.617   6
  -2  -4  10 3202.31 370.718   6
  -2  -4  10 3418.13 377.723   7
  -2  -4   9 564.233 187.079   7
  -2  -4   9 661.989 202.608   6
  -2  -4   8 35892.0 1387.00   7
  -2  -4   7 5589.54 581.368   7
  -2   4   6 1397.18 383.571   3
  -2  -4   6 1229.92 341.350   7
   2   4  -6 1100.39 345.275   8
  -2  -4   5 7277.94 681.387   7
   2   4  -5 8262.40 759.134   8
  -2   4   4 2742.19 480.470   3
   2   4  -4 2021.53 420.094   8
  -2  -4   4 2597.40 410.486   7
  -2   4   3 4046.04 594.838   3
   2   4  -3 3101.36 459.318   8
  -2   4   2 1885.45 453.916   3
  -2   4   1 1720.49 450.445   3
   2   4  -1 2122.97 531.858   3
   2   4   0 4606.39 665.835   3
  -2  -4   0 5522.87 1417.45  10
  -2   4   0 4663.73 756.788   3
   2   4   1 10284.0 937.843   3
  -2  -4  -1 9086.56 1729.80  10
   2   4   2 8750.64 845.556   3
   2  -4   2 7451.62 605.937   7
   2   4   3 1348.43 312.366   3
   2  -4   3 1824.08 324.480   7
  -2  -4  -4 1261.06 1066.16  10
   2  -4   4 1350.28 271.569   7
   2   4   4 1259.62 308.159   3
   2  -4   5 119.522 152.104   7
   2  -4   6 17245.2 932.610   7
   2  -4   7 4764.43 492.145   7
   2  -4   7 3928.73 444.112   5
   2  -4   8 7217.86 569.870   5
   2  -4   8 8137.29 604.091   7
   2  -4   9 1708.89 296.898   5
   2  -4   9 1781.46 295.876   7
   2  -4  10 1421.55 240.773   5
   2  -4  10 1682.39 241.502   7
   2  -4  11 448.281 138.275   5
   2  -4  11 809.503 148.427   7
  -2  -5  11 5323.48 303.596   6
  -2  -5  11 3532.43 265.182   5
  -2  -5  10 1219.69 192.468   6
  -2  -5  10 1258.91 187.402   7
  -2  -5   9 10790.2 551.276   6
  -2  -5   9 9894.46 582.497   7
  -2  -5   8 607.597 221.875   7
  -2  -5   8 591.863 176.184   6
  -2  -5   7 96.8816 147.992   7
  -2  -5   6 1777.56 379.640   7
  -2  -5   5 1664.07 371.781   7
  -2  -5   4 9272.82 789.086   7
   2   5  -4 9997.12 867.997   8
  -2  -5   3 16462.0 1030.38   7
   2   5  -3 18949.5 1167.04   8
  -2  -5   2 10076.4 813.555   7
   2   5  -2 12458.8 944.400   8
   2   5  -1 4267.62 574.013   8
   2   5   0 17195.6 1098.70   8
   2  -5   0 16576.1 880.633   7
   2  -5   1 21505.1 1018.74   7
   2   5   1 22812.4 1237.71   8
   2  -5   2 15363.3 874.837   7
   2   5   2 14525.1 975.210   8
   2  -5   3 1068.68 240.704   7
   2  -5   4 5217.98 508.267   7
   2  -5   5 3500.70 409.877   7
   2  -5   6 7508.75 567.437   7
   2  -5   7 5066.64 434.396   7
   2  -5   8 6866.36 455.023   7
   2  -5   9 2931.41 262.708   7
  -2  -6   8 1287.02 151.804   6
  -2  -6   8 1505.74 194.733   7
  -2  -6   7 294.346 118.388   6
  -2  -6   7 304.202 117.088   7
  -2  -6   6 771.232 200.714   7
  -2  -6   5 4751.46 437.389   7
  -2  -6   4 1457.90 286.222   7
  -2  -6   3 1950.32 315.591   7
  -2  -6   2 9318.63 675.939   7
  -2  -6   1 369.984 183.939   7
  -2  -6   0 488.463 200.109   7
   2  -6   1 510.219 157.935   7
  -2  -6  -1-103.917 136.956   7
  -2  -6  -2 5175.14 451.526   7
   2  -6   2 8496.62 518.474   7
   2  -6   3 3139.32 329.116   7
   2  -6   4 1948.09 241.010   7
   2  -6   5 2913.06 279.473   7
   2  -6   6 148.446 63.6998   7
   2  -6   7 4619.32 265.658   7
  -3   0  16 45.4363 97.3840   6
  -3   0  15 89.8572 166.209   6
  -3   0  14 1592.69 352.952   6
  -3   0  13 18170.8 1054.79   6
  -3   0  12 17404.9 1015.94   6
  -3   0  11 211.131 222.581   6
   3   0 -10 1225.59 482.791   4
  -3   0  10 1964.60 369.089   6
  -3   0  10 2020.01 388.867   1
   3   0  -9 14612.1 1140.70   4
  -3   0   8 77.4318 102.441   2
  -3   0   7 198843. 2843.43   2
  -3   0   6 121.197 99.0636   2
  -3   0   5 14253.0 661.376   2
   3   0  -4 4476.85 512.421   9
  -3   0   4 4223.23 351.082   2
   3   0  -3 4272.79 472.914   9
  -3   0   3 4478.08 345.660   2
  -3   0   3 4385.94 271.626   3
   3   0  -2 6330.16 539.420   9
  -3   0   2 6143.86 381.414   2
  -3   0   1 890314. 4570.84   2
   3   0  -1 907697. 6208.51   9
  -3   0   0 30081.8 858.082   2
  -3   0   0 31100.3 946.957   4
   3   0   0 31158.2 1172.48   9
   3   0   1 17851.1 912.827   9
  -3   0  -1 19411.9 810.256   4
  -3   0  -1 18284.0 715.009   2
   3   0   2 246.744 175.195   9
  -3   0  -2 90.8620 134.543   4
  -3   0  -2 350.006 142.851   2
   3   0   3 768.486 219.951   9
  -3   0  -3 590.757 218.477   4
  -3   0  -4 45.3534 53.1195   4
  -3   0  -5-18.4027 142.704   4
  -3   0  -6-55.3760 124.979   4
  -3   0  -7 4936.40 672.991   4
   3   0   8 537.431 171.802   7
   3   0   8 281.395 237.650   5
   3   0   9 920.071 330.891   5
   3   0   9 813.274 201.922   7
   3   0  10 1238.22 356.784   5
   3   0  11 1902.12 391.246   5
   3   0  12 638.151 209.160   5
   3   0  13 2641.39 292.497   5
  -3  -1  16 3976.73 329.981   6
  -3   1  15 2433.50 377.510   6
  -3  -1  15 2194.13 326.857   6
  -3   1  14-62.3803 236.075   6
  -3  -1  14 215.268 142.909   6
  -3  -1  14 254.661 142.088   5
  -3   1  13 1155.90 348.278   6
  -3  -1  13 1078.06 294.522   6
  -3   1  12 451.190 317.516   6
  -3  -1  12 248.789 215.398   6
  -3   1  11 2538.29 488.044   6
  -3  -1  11 2638.19 393.720   6
  -3   1  10 148.339 203.208   6
  -3  -1  10 519.178 221.608   6
   3   1 -10 233.868 211.363   4
  -3  -1  10 549.785 283.308   1
   3  -1  -9 6201.74 987.397   9
   3   1  -9 6258.96 800.330   4
  -3  -1   9 7171.02 642.018   2
   3   1  -8 4200.70 621.027   4
  -3  -1   8 4605.49 477.530   2
   3  -1  -8 3960.16 495.480   4
   3  -1  -8 4084.61 740.476   9
  -3   1   8 4188.54 544.564   3
  -3  -1   7 2386.93 317.068   2
  -3   1   7 2400.82 367.006   2
   3  -1  -7 2229.83 531.910   9
  -3   1   7 2344.41 375.860   3
   3  -1  -6 15278.8 1153.34   9
  -3  -1   6 14689.8 721.678   2
  -3   1   6 15064.3 881.489   2
  -3   1   6 16501.2 851.007   3
  -3   1   5 22529.0 870.760   3
   3  -1  -5 21373.9 1260.02   9
  -3   1   5 20303.2 969.656   2
  -3  -1   5 22211.3 834.615   2
   3  -1  -4 24614.1 1256.07   9
  -3   1   4 23940.4 1028.73   2
  -3   1   4 27152.5 828.852   3
   3  -1  -4 23968.5 775.147  10
  -3   1   3 16399.0 595.713   3
   3  -1  -3 15001.0 933.604   9
  -3   1   3 15721.7 834.110   2
   3   1  -3 16440.1 831.432   9
   3   1  -2 16548.9 757.814   9
  -3   1   2 16398.7 600.346   3
   3  -1  -2 16636.9 963.239   9
  -3   1   2 17275.4 738.314   4
  -3  -1   2 16787.7 1151.14  10
  -3   1   2 17062.0 880.380   2
  -3   1   1 583530. 4294.42   4
   3   1  -1 580296. 4212.36   9
  -3  -1   1 584574. 6331.44  10
   3  -1  -1 580225. 5671.65   9
  -3   1   1 566024. 3864.88   3
  -3   1   1 582267. 5220.45   2
  -3  -1   1 583130. 3336.18   2
   3   1   0 47209.6 685.037   3
  -3  -1   0 47626.1 915.300   2
  -3  -1   0 49381.5 1887.18  10
   3  -1   0 45427.6 1613.06   9
   3   1   0 45787.8 1141.73   9
  -3   1   0 45891.2 1512.76   2
  -3   1   0 49021.8 1326.63   4
   3   1   1 4404.57 228.967   3
  -3  -1  -1 4819.15 665.000  10
   3   1   1 4304.95 370.606   9
  -3  -1  -1 4145.42 267.115   2
  -3  -1  -1 4118.99 341.921   4
  -3   1  -1 4129.32 415.076   4
   3  -1   1 4229.72 525.544   9
  -3   1  -2 4294.07 461.294   4
   3   1   2 4753.38 419.732   9
  -3  -1  -2 3952.77 255.632   2
  -3  -1  -2 4189.59 358.006   4
   3  -1   2 4273.81 537.365   9
   3   1   2 4764.68 301.402   3
  -3   1  -3 72584.8 2009.37   4
   3  -1   3 73374.2 2227.37   9
  -3  -1  -3 68377.7 1542.09   4
   3   1   3 74296.4 1375.32   3
   3  -1   4 1652.78 423.559   9
  -3  -1  -4 1858.90 290.635   4
  -3   1  -4 1694.41 369.681   4
  -3   1  -5 14743.8 1067.14   4
  -3   1  -6 6591.07 794.463   4
  -3   1  -7 14106.3 1200.30   4
   3  -1   7 16782.2 939.225   5
   3  -1   8 1550.35 366.949   5
   3   1   8 1766.56 388.807   5
   3  -1   8 2399.54 315.770   7
  -3   1  -8 2063.15 482.794   4
   3  -1   9 68719.7 2034.62   5
   3  -1   9 67729.6 1724.62   7
   3   1   9 63585.6 1847.56   5
   3   1  10 7973.70 661.070   5
   3  -1  10 8346.77 622.004   7
   3  -1  10 9085.84 757.907   5
   3   1  10 8448.30 768.653   6
   3   1  11 3157.68 413.074   5
   3  -1  11 2804.88 361.683   7
   3  -1  11 3854.92 488.529   5
   3  -1  12 553.359 209.278   5
   3  -1  13 1443.81 222.448   5
  -3  -2  15 7408.01 413.004   5
  -3  -2  15 7919.96 484.424   6
  -3  -2  14 3510.72 393.410   5
  -3   2  14 2897.39 434.173   6
  -3  -2  14 3263.10 383.073   6
  -3   2  13 4078.07 579.620   6
  -3  -2  13 3854.28 432.792   6
  -3   2  12 3653.90 579.986   6
  -3  -2  12 4251.94 447.625   6
  -3  -2  11 19782.3 941.977   6
  -3   2  11 18235.1 1170.14   6
  -3   2  10 1133.05 406.105   6
  -3  -2  10 1609.58 303.191   6
   3   2 -10 1219.05 390.065   4
   3  -2 -10 709.602 588.631   9
  -3  -2  10 1271.42 353.256   1
  -3  -2   9 1613.26 356.468   1
  -3   2   9 1131.92 371.332   6
  -3  -2   9 1127.80 303.890   2
  -3   2   9 1617.34 413.909   3
   3  -2  -9 1102.72 460.434   9
  -3  -2   9 1562.70 293.852   6
   3   2  -9 2059.21 538.061   4
  -3  -2   8 28397.1 1270.61   2
   3  -2  -8 23558.6 1766.47   9
   3   2  -8 25890.4 1600.42   4
  -3   2   8 27272.4 1456.01   3
   3  -2  -7 4471.95 760.180   9
   3   2  -7 4902.70 654.678   4
  -3   2   7 5097.42 568.402   3
  -3   2   6 2410.95 430.631   2
  -3   2   6 3085.42 392.416   3
   3  -2  -6 2242.04 502.242   9
  -3   2   5 6638.50 529.742   3
   3  -2  -5 5884.01 735.471   9
  -3   2   5 5981.71 703.065   2
  -3   2   4 7064.31 544.694   3
   3  -2  -4 5553.73 684.899   9
   3   2  -4 7238.41 606.885   9
  -3   2   4 7080.58 730.788   2
   3   2  -3 37809.5 1084.76   9
  -3   2   3 33053.8 1193.86   3
  -3   2   3 36057.8 1639.07   2
   3  -2  -3 32951.7 1562.93   9
  -3  -2   2 34830.9 2143.50  10
   3  -2  -2 32066.8 1512.75   9
  -3   2   2 36893.5 1168.68   4
  -3   2   2 33317.1 1255.46   3
  -3  -2   1 61281.0 2754.01  10
  -3   2   1 62537.2 1560.88   4
   3  -2  -1 59867.6 2061.38   9
   3   2   0 3112.89 353.005   3
   3  -2   0 3112.11 509.323   9
  -3  -2   0 2926.66 638.281  10
  -3   2   0 3674.13 425.814   4
   3   2   1 1080.57 186.575   3
  -3  -2  -1 741.779 409.415  10
   3  -2   1 1143.57 321.269   9
  -3   2  -1 1131.64 266.749   4
   3   2   2 4415.40 358.177   3
  -3  -2  -2 4592.05 852.109  10
   3  -2   2 4710.46 615.371   9
  -3   2  -2 4869.71 553.051   4
  -3   2  -3 28657.7 1405.78   4
  -3  -2  -3 32505.9 2238.96  10
   3   2   3 30702.2 1000.35   3
   3  -2   3 30688.7 1560.44   9
   3  -2   4 10221.7 954.242   9
  -3  -2  -4 11558.5 1447.00  10
  -3   2  -4 9242.32 866.956   4
   3   2   4 10265.1 659.037   3
  -3  -2  -5 21737.2 2106.37  10
  -3   2  -5 20334.4 1363.97   4
   3   2   5 19896.1 1030.65   3
  -3   2  -6 4796.92 737.057   4
  -3  -2  -6 4755.30 1115.52  10
   3   2   7 2597.31 439.542   6
   3  -2   7 2950.89 415.738   5
  -3  -2  -7 2548.80 801.476  10
   3  -2   7 3070.61 372.322   7
  -3   2  -7 2184.92 536.106   4
   3   2   8-167.214 207.391   6
   3  -2   8 95.5606 140.947   7
   3  -2   8 161.294 149.229   5
   3  -2   9 10524.5 804.288   5
   3  -2   9 10641.6 697.369   7
   3  -2  10 5829.96 499.522   7
   3  -2  10 5958.75 588.554   5
   3  -2  11 1099.18 273.218   5
   3  -2  11 1007.94 243.997   7
   3  -2  12 3923.53 396.131   5
   3  -2  13 810.648 172.243   5
  -3  -3  14 8034.41 484.183   5
  -3  -3  14 8094.15 473.306   6
  -3  -3  13 3137.08 346.151   6
  -3  -3  12 2222.32 304.955   6
  -3  -3  11 24146.1 986.797   6
  -3   3  11 21695.8 1300.54   6
  -3  -3  10 14925.7 792.880   6
  -3   3  10 12361.2 1024.72   6
  -3  -3   9 6163.16 606.318   1
  -3  -3   9 6798.44 540.969   6
  -3   3   9 6177.25 765.800   6
  -3  -3   8 38292.0 1446.65   1
  -3  -3   8 34893.1 1328.10   7
   3   3  -8 39022.2 2108.05   4
  -3   3   8 37274.3 1660.10   6
  -3   3   8 41560.0 1915.65   3
  -3   3   7 1408.16 344.741   3
  -3   3   7 1218.24 439.568   6
   3   3  -7 702.445 297.249   4
  -3   3   6 8552.13 765.961   3
   3   3  -6 7187.46 808.248   4
  -3   3   5 9007.01 763.038   3
   3  -3  -5 7487.57 910.972   9
   3   3  -5 7972.93 802.148   4
  -3   3   4 21864.7 1185.53   3
   3  -3  -4 20953.1 1452.68   9
   3   3  -4 21621.1 1178.58   4
  -3   3   3 24669.6 1302.99   3
   3  -3  -3 23808.8 1479.26   9
   3   3  -3 25195.1 1158.84   4
  -3   3   2 1078.43 306.860   3
   3  -3  -2 1481.05 416.363   9
  -3  -3   2 1269.06 642.528  10
  -3   3   1 5711.47 510.115   4
  -3  -3   1 5330.00 1147.71  10
   3  -3  -1 5065.59 688.813   9
  -3   3   1 5456.19 675.459   3
  -3  -3   0 30689.2 2504.87  10
   3   3   0 32956.2 1431.81   3
  -3   3   0 32964.7 1352.10   4
   3  -3   0 32074.7 1604.14   9
  -3   3  -1 3298.83 464.271   4
   3  -3   1 2425.90 434.152   9
   3   3   1 2287.00 352.681   3
  -3  -3  -1 2820.08 869.909  10
  -3  -3  -2 6071.89 1153.45  10
  -3   3  -2 7415.85 760.968   4
   3  -3   2 8114.80 878.158   9
   3   3   2 7921.89 625.749   3
  -3  -3  -3 1129.94 751.587  10
   3  -3   3 487.925 328.206   9
   3   3   3 1187.94 275.260   3
  -3   3  -3 1217.31 355.094   4
   3   3   4 1077.10 249.981   3
  -3   3  -4 484.764 237.640   4
  -3  -3  -5 5778.88 1250.63  10
  -3   3  -5 5677.11 808.761   4
   3  -3   5 5993.67 541.186   7
  -3  -3  -6 12051.0 1881.30  10
   3  -3   6 13458.5 811.907   7
  -3   3  -6 11167.2 1186.11   4
   3  -3   6 12105.2 792.344   5
   3  -3   7 2582.36 401.195   5
   3  -3   7 2054.01 345.919   7
   3  -3   8 1057.33 262.263   7
   3  -3   8 612.022 205.605   5
   3  -3   9-18.4325 120.970   7
   3  -3   9 54.9085 102.254   5
   3  -3  10 731.810 218.028   5
   3  -3  10 832.607 216.233   7
   3  -3  11 1230.04 209.318   7
   3  -3  11 1118.49 232.085   5
   3  -3  12 126.171 101.162   5
  -3  -4  13 139.141 110.456   6
  -3  -4  13 337.733 129.741   5
  -3  -4  12 2.58916 116.678   6
  -3  -4  11 983.056 204.024   6
  -3  -4  10 1079.68 231.252   6
  -3  -4  10 840.768 234.857   7
  -3  -4   9 574.517 177.702   7
  -3  -4   9 1119.65 244.432   6
  -3  -4   8 5656.08 568.017   7
  -3  -4   7 10438.0 815.717   7
   3   4  -6 7309.22 722.005   8
  -3  -4   6 6986.84 710.557   7
   3   4  -5 7636.65 751.079   8
  -3  -4   5 6562.53 657.110   7
   3   4  -4 13808.4 1001.97   8
  -3   4   4 16553.4 1219.65   3
  -3   4   3 5836.67 731.951   3
   3   4  -3 5077.40 607.600   8
  -3   4   2 6857.03 815.937   3
   3   4  -2 6975.23 672.537   8
   3   4  -2 6295.66 886.150   3
   3   4  -1 4967.53 615.963   8
  -3   4   1 5380.30 835.043   3
   3   4  -1 5086.43 744.880   3
   3   4   0 5677.09 734.081   3
  -3   4   0 4837.44 750.518   3
   3   4   0 5194.01 595.956   8
   3   4   1 4024.15 548.195   3
  -3  -4  -1 4432.20 1233.72  10
   3   4   1 2550.54 418.506   8
   3  -4   1 3246.48 377.901   7
  -3  -4  -2 38903.6 3399.48  10
   3   4   2 34739.7 1494.24   8
   3  -4   2 38100.9 1319.08   7
   3  -4   3 1718.57 281.249   7
   3   4   3 930.325 246.161   8
   3  -4   4 1193.45 269.103   7
   3  -4   5 3737.11 437.187   7
   3  -4   6 10433.3 714.524   7
   3  -4   7 13555.1 782.593   7
   3  -4   8 11704.7 697.430   5
   3  -4   8 13761.6 735.220   7
   3  -4   9 1162.56 237.681   5
   3  -4   9 1482.20 244.877   7
   3  -4  10 1147.94 195.226   5
   3  -4  10 1515.76 201.608   7
  -3  -5  11 33.8133 90.4400   5
  -3  -5  11 107.263 81.1726   6
  -3  -5  10 16804.2 627.444   6
  -3  -5  10 14351.4 568.503   7
  -3  -5   9 4482.87 375.795   6
  -3  -5   9 4004.48 387.255   7
  -3  -5   8 2533.51 306.068   6
  -3  -5   8 3080.29 381.948   7
  -3  -5   7 1692.15 326.305   7
  -3  -5   6 68.5291 178.923   7
   3   5  -5 500.728 237.567   8
  -3  -5   5 538.274 255.944   7
   3   5  -4 4011.70 583.135   8
  -3  -5   4 3023.72 479.556   7
   3   5  -3 2307.72 438.121   8
  -3  -5   3 967.574 327.195   7
   3   5  -2 594.980 278.459   8
   3   5  -1 8034.92 750.094   8
   3   5   0 11066.4 903.978   8
   3   5   1 7628.46 728.784   8
   3  -5   1 7972.41 594.475   7
   3   5   2 10637.9 836.734   8
   3  -5   2 12367.9 733.341   7
   3   5   3 5603.22 583.242   8
   3  -5   3 5646.60 513.672   7
   3  -5   4 4538.27 448.598   7
   3  -5   5 1033.94 222.809   7
   3  -5   6 11642.9 643.132   7
   3  -5   7 3629.77 348.646   7
   3  -5   8 2017.53 237.097   7
   3  -5   9 5676.44 311.029   7
  -3  -6   8 1882.78 193.303   6
  -3  -6   8 1891.37 213.421   7
  -3  -6   7 694.965 139.368   6
  -3  -6   7 744.398 165.148   7
  -3  -6   6 488.673 190.276   7
  -3  -6   5 107.905 137.242   7
  -3  -6   4 14899.2 804.940   7
  -3  -6   3 3151.37 411.813   7
  -3  -6   2 3569.22 432.801   7
  -3  -6   1 11351.3 733.387   7
   3   6   0 1981.35 353.445   8
  -3  -6   0 1434.73 297.935   7
  -3  -6  -1 1366.57 273.880   7
   3  -6   2 5751.41 382.596   7
  -3  -6  -2 3614.66 371.568   7
   3  -6   3 9151.17 475.168   7
   3  -6   4 1999.17 225.721   7
   3  -6   5 4242.83 291.002   7
   3  -6   6 2047.48 183.635   7
  -4   0  16 373.838 159.504   6
  -4   0  15 961.947 260.415   6
  -4   0  14 3169.72 426.927   6
  -4   0  13 569.405 246.133   6
  -4   0  12 3607.02 487.232   6
  -4   0  11 2263.43 393.724   6
   4   0 -11 2290.92 704.829   9
  -4   0  11 2434.36 481.038   1
  -4   0  10-401.542 237.264   1
  -4   0  10 83.9733 181.735   6
   4   0 -10-129.996 375.861   9
   4   0 -10 13.2273 70.0875   4
   4   0  -9 19269.5 1673.55   9
   4   0  -8 186.199 211.694   9
  -4   0   8 208.416 130.316   2
   4   0  -7 59894.6 2509.28   9
  -4   0   7 62074.0 1778.69   2
  -4   0   6 31552.8 1191.03   2
   4   0  -6 30412.6 1636.52   9
  -4   0   5 19875.0 897.679   2
   4   0  -5 20070.8 1252.71   9
  -4   0   4 3240.59 358.206   2
   4   0  -4 3574.92 515.765   9
  -4   0   3 1709.14 259.158   2
   4   0  -3 2119.53 400.460   9
   4   0  -2 13833.6 938.474   9
  -4   0   2 14995.0 716.057   2
  -4   0   2 15428.2 732.441  10
  -4   0   1 12947.3 743.900  10
  -4   0   1 11405.1 625.570   2
   4   0  -1 11131.8 834.953   9
  -4   0   1 12462.8 714.329   4
  -4   0   0 6564.84 495.956   2
   4   0   0 7037.11 660.405   9
  -4   0   0 6893.28 535.742   4
   4   0   1 44843.9 1649.38   9
  -4   0  -1 45765.1 1421.00   4
  -4   0  -1 42612.3 1319.77   2
  -4   0  -2 34112.4 1306.00   4
   4   0   2 34375.2 1473.53   9
  -4   0  -2 30171.6 1153.77   2
  -4   0  -3 24982.7 1200.68   4
   4   0   3 25931.8 1341.87   9
   4   0   4 2680.39 451.559   9
  -4   0  -4 2489.98 435.252   4
  -4   0  -5 22161.4 1303.80   4
  -4   0  -6 508.907 244.648   4
   4   0   7 3428.95 475.445   5
   4   0   7 3038.34 388.255   7
  -4   0  -7 2950.06 544.303   4
   4   0   8 15993.8 975.430   5
   4   0   8 14344.1 834.217   7
   4   0   9 25655.3 1109.11   7
   4   0   9 29542.0 1336.22   5
   4   0  10 11240.4 797.852   5
   4   0  11 3550.45 435.310   5
   4   0  12 750.476 188.582   5
  -4  -1  16 613.641 186.063   6
  -4   1  16 727.237 190.681   6
  -4   1  15 1001.91 287.069   6
  -4  -1  15 766.663 237.251   6
  -4   1  14 459.809 248.214   6
  -4  -1  14 621.971 246.207   6
  -4  -1  14 969.932 243.655   5
  -4   1  13 12517.7 913.522   6
  -4  -1  13 13555.4 842.278   6
  -4   1  12 1540.73 422.200   6
  -4  -1  12 1401.82 340.720   6
  -4   1  11 1436.35 376.991   6
  -4  -1  11 1327.84 275.051   6
  -4  -1  11 1638.47 400.526   1
  -4  -1  10 2800.08 345.243   6
  -4   1  10 2636.43 511.831   1
  -4  -1  10 2456.49 463.209   1
  -4   1  10 2314.51 395.163   6
   4   1 -10 1603.08 665.421   9
   4  -1 -10 2586.21 763.917   9
   4   1 -10 1787.20 484.818   4
   4  -1  -9 5013.14 902.887   9
  -4  -1   9 6027.20 630.388   2
   4   1  -9 5415.31 756.577   4
  -4   1   8 11179.3 945.179   2
   4  -1  -8 10931.7 1210.06   9
  -4  -1   8 11173.8 790.287   2
  -4   1   8 10605.3 840.912   3
  -4  -1   7 70861.5 1864.64   2
  -4   1   7 70146.2 2208.62   2
  -4   1   7 72914.2 2013.72   3
  -4   1   6 329.980 169.553   3
   4   1  -6 200.136 176.504   9
   4  -1  -6 153.885 223.997   9
  -4  -1   6 22.0325 108.930   2
  -4   1   6 207.230 161.431   2
  -4  -1   5 2100.11 288.325   2
   4   1  -5 2349.40 429.326   9
   4  -1  -5 1630.25 465.633   9
  -4   1   5 1622.98 339.325   2
  -4   1   5 2329.73 292.714   3
  -4   1   4 23725.2 787.680   3
   4   1  -4 23682.2 1211.03   9
   4  -1  -4 21932.6 1309.13   9
  -4   1   4 22273.2 1116.42   2
  -4  -1   4 23930.9 905.895   2
  -4   1   3 105850. 1491.45   3
   4  -1  -3 97753.7 2678.59   9
   4   1  -3 104173. 2327.96   9
  -4  -1   3 102992. 1774.47   2
  -4   1   3 99076.8 2336.53   2
  -4   1   2 82577.9 1288.07   3
  -4  -1   2 82377.0 1533.44   2
   4   1  -2 81324.2 1972.70   9
   4  -1  -2 78327.9 2388.45   9
  -4  -1   2 81796.0 2650.41  10
  -4   1   2 83640.6 1898.02   4
  -4   1   2 81696.3 2144.75   2
  -4   1   1 141216. 1841.17   3
  -4  -1   1 144979. 3450.56  10
   4  -1  -1 143951. 3239.96   9
   4   1  -1 145399. 2557.68   9
  -4   1   1 147136. 2536.41   4
  -4  -1   1 148413. 1990.35   2
  -4   1   1 143996. 2903.63   2
   4  -1   0 19610.7 1217.80   9
  -4  -1   0 20585.6 1364.86  10
  -4   1   0 18709.2 947.675   4
   4   1   0 18656.0 896.711   9
  -4  -1   0 18385.0 693.076   2
  -4   1   0 18266.9 1068.65   2
   4   1   1 2468.03 332.265   9
   4  -1   1 1553.79 395.379   9
  -4  -1  -1 2299.43 257.342   2
  -4  -1  -1 1965.67 291.873   4
  -4  -1  -1 2779.46 561.285  10
  -4   1  -1 2124.08 358.469   4
  -4   1  -1 2485.95 438.883   2
  -4  -1  -2 8670.79 615.159   4
  -4   1  -2 8371.85 715.935   4
   4   1   2 8213.55 639.014   9
   4  -1   2 7655.67 790.404   9
   4  -1   3 19905.6 1325.83   9
  -4  -1  -3 21610.1 1008.00   4
  -4   1  -3 21959.0 1228.15   4
   4  -1   4 1356.05 376.078   9
  -4  -1  -4 968.235 268.998   4
  -4   1  -4 919.271 276.289   4
  -4   1  -5 2324.25 455.378   4
  -4   1  -6 1778.32 460.381   4
   4   1   7 1689.91 353.966   5
   4  -1   7 1393.02 337.924   5
   4  -1   7 1860.96 321.791   7
  -4   1  -7 1222.16 474.946   4
   4   1   8 41004.1 1515.48   5
   4  -1   8 43708.1 1615.98   5
   4  -1   8 41696.0 1385.79   7
   4  -1   9 4698.21 572.855   5
   4  -1   9 4498.80 467.136   7
   4   1   9 4334.72 545.811   5
   4   1  10 7325.51 632.988   5
   4  -1  10 7889.73 590.120   7
   4  -1  10 7651.65 677.747   5
   4   1  11 3500.01 396.122   5
   4  -1  11 3679.73 442.796   5
   4  -1  12 996.141 240.788   5
   4  -1  13 1273.97 180.708   5
  -4  -2  15 1259.09 235.543   6
  -4  -2  15 1262.46 191.789   5
  -4  -2  14 4589.82 442.225   6
  -4   2  14 4595.28 526.430   6
  -4   2  13 160.605 257.557   6
  -4  -2  13-142.621 168.380   6
  -4   2  12 5809.32 667.744   6
  -4  -2  12 6966.06 577.209   6
  -4  -2  11 2471.62 367.575   6
  -4   2  11 3029.20 509.119   6
  -4  -2  11 2645.19 478.064   1
  -4  -2  10 37976.9 1256.50   6
  -4  -2  10 35797.6 1553.65   1
   4  -2 -10 29119.8 2303.01   9
   4   2 -10 32610.6 2032.63   4
  -4   2  10 32080.6 1494.49   6
  -4  -2   9 64874.2 1538.50   6
  -4  -2   9 61890.8 1965.91   1
  -4  -2   9 61488.7 2086.67   2
   4  -2  -9 53832.7 2924.60   9
   4   2  -9 61308.9 2929.45   9
   4   2  -9 59717.2 2609.11   4
  -4   2   9 55850.3 1845.50   6
  -4   2   9 61365.6 2333.15   3
   4  -2  -8 16816.7 1543.69   9
  -4  -2   8 18144.1 1073.68   2
   4   2  -8 19946.8 1538.05   9
   4   2  -8 17105.9 1339.00   4
  -4   2   8 17745.7 1180.38   3
   4   2  -7 10638.3 1050.85   9
   4  -2  -7 11535.6 1230.71   9
  -4   2   7 12662.3 1151.88   2
  -4  -2   7 11060.9 803.558   2
  -4   2   7 11904.1 859.163   3
  -4   2   6 5464.58 536.583   3
   4  -2  -6 5046.47 758.922   9
   4   2  -6 5719.37 692.189   9
  -4  -2   6 6055.76 565.254   2
  -4   2   6 5265.89 748.780   2
  -4   2   5 19206.2 918.581   3
   4   2  -5 19256.4 1123.83   9
   4  -2  -5 16627.0 1316.56   9
  -4   2   5 16991.8 1252.29   2
  -4   2   4 3371.15 372.338   3
   4  -2  -4 3331.76 606.746   9
  -4   2   4 3854.17 595.903   2
  -4   2   3 79943.1 1835.78   3
   4  -2  -3 78976.2 2670.69   9
  -4   2   3 80921.4 2671.82   2
  -4   2   2 27210.2 1178.80   4
  -4   2   2 24718.6 1082.08   3
  -4  -2   2 25040.7 1933.89  10
   4  -2  -2 23195.1 1457.30   9
  -4   2   2 23930.9 1467.09   2
   4   2  -1 22710.8 864.497   3
  -4   2   1 21283.1 1069.84   3
   4  -2  -1 21976.7 1403.15   9
  -4  -2   1 23267.5 1824.45  10
  -4  -2   1 24053.7 872.205   2
  -4   2   1 23094.0 1085.63   4
   4   2   0 14071.5 578.063   3
  -4  -2   0 12867.1 1373.67  10
   4  -2   0 13666.0 1109.63   9
  -4  -2   0 13302.4 630.025   2
  -4   2   0 13910.8 900.090   4
  -4  -2  -1 38700.3 2373.27  10
  -4  -2  -1 35492.9 987.302   2
  -4   2  -1 39146.4 1586.11   4
   4  -2   1 37432.6 1827.40   9
   4  -2   2 1735.00 457.187   9
  -4  -2  -2 2147.82 641.905  10
  -4   2  -2 2027.72 410.555   4
   4  -2   3 15706.6 1263.77   9
  -4   2  -3 16964.5 1186.78   4
  -4  -2  -3 18509.3 1837.22  10
   4  -2   4 25924.5 1676.88   9
  -4   2  -4 25096.4 1534.92   4
  -4  -2  -4 26861.3 2333.04  10
  -4  -2  -5 1230.62 636.246  10
  -4   2  -5 292.671 207.907   4
   4  -2   6 8957.25 696.535   5
   4   2   6 8272.84 701.795   5
  -4  -2  -6 9900.81 1724.94  10
  -4   2  -6 7388.26 931.243   4
   4  -2   6 10889.9 696.037   7
   4   2   7 2534.51 420.590   5
   4  -2   7 1961.26 334.786   5
   4  -2   7 2240.02 365.658   7
   4  -2   8 3356.81 442.067   5
   4  -2   8 4226.06 457.304   7
   4   2   8 2713.76 391.095   5
   4  -2   9 200.503 175.137   5
   4  -2   9 498.523 184.283   7
   4  -2  10 3826.48 406.031   7
   4  -2  10 3331.61 432.844   5
   4  -2  11 235.468 185.232   5
   4  -2  11 23.4846 129.229   7
   4  -2  12 714.609 169.134   5
  -4  -3  14 2578.54 294.977   5
  -4  -3  14 2349.74 273.954   6
  -4  -3  13 3334.07 364.391   6
  -4  -3  12 20677.6 880.517   6
  -4  -3  11 32073.7 1124.94   6
  -4  -3  10 18441.8 869.865   6
  -4  -3  10 16828.6 1023.68   1
  -4   3  10 16264.5 1129.43   6
  -4  -3   9 40395.2 1283.17   6
  -4  -3   9 39367.5 1537.88   1
  -4   3   9 36560.8 1635.92   6
  -4  -3   8 22448.7 1142.35   1
  -4  -3   8 23468.6 1339.32   2
   4   3  -8 22918.4 1613.90   4
  -4   3   8 23335.6 1437.52   3
  -4   3   7 2424.34 447.976   3
   4  -3  -7 2282.85 734.785   9
  -4  -3   7 3128.46 429.677   7
  -4  -3   7 2682.35 428.043   1
   4   3  -7 2732.77 530.518   4
  -4   3   6 8623.91 766.399   3
   4  -3  -6 6864.10 990.786   9
   4   3  -6 7307.70 846.750   4
  -4   3   5 6388.81 637.108   3
   4  -3  -5 5267.27 868.160   9
   4   3  -5 6473.01 701.912   4
  -4   3   4 3684.07 495.776   3
   4  -3  -4 3484.03 690.764   9
  -4   3   3 5656.62 620.289   3
   4  -3  -3 5674.47 786.106   9
  -4   3   2 6696.06 708.196   3
   4  -3  -2 6020.81 844.836   9
  -4  -3   2 6823.94 1268.70  10
  -4  -3   1 7075.22 1301.72  10
   4  -3  -1 8899.34 977.607   9
   4   3  -1 8308.13 706.225   3
  -4   3   1 9035.69 745.886   4
  -4   3   1 8696.90 837.348   3
  -4  -3   0 12213.6 1677.18  10
   4  -3   0 10498.8 1048.00   9
  -4   3   0 12132.7 921.639   4
  -4  -3  -1 48299.1 3301.45  10
   4  -3   1 46384.5 2167.41   9
  -4   3  -1 47386.5 1936.04   4
  -4  -3  -2 5280.47 1181.14  10
  -4   3  -2 5946.61 736.439   4
   4  -3   2 6793.41 870.948   9
  -4  -3  -3 4143.67 1090.51  10
  -4   3  -3 3477.27 629.176   4
   4  -3   3 5056.82 762.578   9
  -4  -3  -4 27067.2 2661.19  10
  -4   3  -4 28177.4 1748.82   4
   4  -3   4 28490.0 1128.18   7
  -4  -3  -5 12821.2 1885.84  10
   4  -3   5 10468.1 707.256   5
  -4   3  -5 8872.51 1035.81   4
   4  -3   5 11462.4 736.468   7
   4  -3   6 318.006 139.193   5
   4  -3   6 730.713 229.458   7
   4  -3   7 16725.1 931.319   5
   4  -3   7 18276.0 924.634   7
   4  -3   8 2169.61 357.495   5
   4  -3   8 3094.13 388.056   7
   4  -3   9 968.286 238.347   5
   4  -3   9 1231.54 236.292   7
   4  -3  10 482.924 199.047   5
   4  -3  10 246.518 155.293   7
   4  -3  11 268.799 117.705   5
   4  -3  11 75.1096 82.7222   7
  -4  -4  13 2002.11 218.053   6
  -4  -4  12 4985.75 372.920   6
  -4  -4  11 8363.19 518.303   6
  -4  -4  10 488.490 191.990   6
  -4  -4   9 1270.54 285.769   6
  -4  -4   9 2180.90 332.782   7
  -4  -4   8-4.54722 70.9994   7
   4   4  -7 1834.52 372.590   8
  -4  -4   7 1141.36 333.735   7
   4   4  -6 5672.72 649.127   8
  -4  -4   6 6714.49 680.505   7
  -4   4   5 11535.5 985.489   3
   4   4  -5 7357.68 742.236   8
  -4   4   4 9012.27 876.691   3
   4   4  -4 7254.26 757.764   8
  -4   4   3 415.518 204.724   3
   4   4  -3 867.952 291.035   8
  -4   4   2 1801.43 414.236   3
   4   4  -2 1798.50 372.906   8
  -4   4   1 1634.70 430.212   3
   4   4  -1 2037.78 429.807   8
  -4  -4   0 42640.1 3685.96  10
  -4   4   0 40049.1 2147.16   3
   4   4   0 38049.8 1649.03   8
  -4  -4  -1 36086.3 3538.87  10
  -4   4  -1 31849.3 1985.31   3
   4   4   1 32615.9 1513.00   8
   4  -4   1 37594.0 1243.36   7
  -4  -4  -2 2266.65 1441.24  10
   4   4   2 2197.95 384.061   8
   4  -4   2 2699.11 340.815   7
   4   4   3 616.207 259.864   8
   4  -4   3 524.883 162.174   7
   4  -4   4 1546.43 261.281   7
   4  -4   5 6320.65 542.951   7
   4  -4   6 9941.90 661.357   7
   4  -4   7 14083.5 749.900   7
   4  -4   8 2807.59 324.797   7
   4  -4   9 2654.43 262.017   5
   4  -4   9 3434.56 319.902   7
   4  -4  10 170.282 88.0434   7
  -4  -5  11 50.9642 62.9953   6
  -4  -5  10 699.144 159.131   6
  -4  -5  10 563.327 156.882   7
  -4  -5   9 3.60219 107.279   6
  -4  -5   9 162.698 146.738   7
  -4  -5   8 2961.34 384.265   7
  -4  -5   7 3866.23 462.559   7
   4   5  -6 4394.09 544.750   8
  -4  -5   6 4207.53 519.147   7
   4   5  -5 5033.92 597.618   8
  -4  -5   5 5030.09 573.827   7
   4   5  -4 11183.6 903.792   8
  -4  -5   4 9747.00 803.579   7
   4   5  -3 3481.02 528.079   8
   4   5  -2 987.990 293.152   8
   4   5  -1 4430.11 578.046   8
   4   5   0 1265.98 342.850   8
   4   5   1 16878.6 1067.22   8
   4   5   2 8507.50 735.916   8
   4  -5   2 9983.30 612.195   7
   4   5   3 1276.77 272.065   8
   4  -5   3 1229.97 232.470   7
   4  -5   4 1471.88 254.075   7
   4  -5   5 322.966 136.121   7
   4  -5   6 6730.40 442.496   7
   4  -5   7 7480.73 428.027   7
   4  -5   8 557.489 110.872   7
  -4  -6   8 473.103 115.196   6
  -4  -6   8 459.123 113.292   7
  -4  -6   7 971.925 158.941   6
  -4  -6   7 1119.17 196.401   7
  -4  -6   6 42.4250 136.621   7
  -4  -6   5 617.115 204.126   7
  -4  -6   4 3700.48 409.479   7
  -4  -6   3 4347.75 460.537   7
   4   6  -2 2106.76 352.478   8
  -4  -6   2 1892.45 332.329   7
   4   6  -1 1636.77 303.088   8
  -4  -6   1 1588.37 279.687   7
   4   6   0 1535.21 303.637   8
  -4  -6   0 1548.92 288.838   7
   4   6   1 253.385 167.730   8
  -4  -6  -1 186.294 151.671   7
  -4  -6  -2 825.145 147.487   7
   4  -6   3 168.248 85.6851   7
  -4  -6  -3-614.165 128.185   7
   4  -6   4 6609.76 321.802   7
  -5   0  16 376.912 137.992   6
  -5   0  15 384.210 187.384   6
  -5   0  14 303.122 209.486   6
  -5   0  13 2740.27 430.973   6
  -5   0  12 16437.4 962.854   6
  -5   0  11 583.013 307.536   1
  -5   0  11 410.795 266.455   6
  -5   0  10 14895.6 1013.90   1
   5   0 -10 13020.9 1475.21   9
  -5   0  10 12934.2 770.071   6
   5   0  -9 3048.73 738.369   9
  -5   0   9 2260.40 432.079   2
   5   0  -8 2439.17 588.944   9
  -5   0   8 2559.95 436.625   2
   5   0  -7 20264.2 1545.80   9
  -5   0   7 21001.2 1169.87   2
   5   0  -6 6543.61 821.465   9
  -5   0   6 6174.74 593.972   2
  -5   0   5 2310.31 352.840   2
   5   0  -5 1944.33 494.027   9
  -5   0   4 35794.5 1334.64   2
   5   0  -4 32753.6 1659.32   9
  -5   0   3 15918.7 868.827   2
   5   0  -3 15040.1 1107.75   9
  -5   0   2 2528.48 359.725   2
  -5   0   2 2665.03 362.927  10
   5   0  -2 2090.15 445.858   9
  -5   0   1 213.659 238.261  10
   5   0  -1-83.7755 206.842   9
  -5   0   1 119.695 96.2874   2
  -5   0   0 14295.6 898.674   4
   5   0   0 13299.3 1022.51   9
  -5   0   0 13091.8 825.931   2
   5   0   1 10296.9 923.557   9
  -5   0  -1 11369.2 822.548   4
  -5   0  -1 9137.80 731.981   2
  -5   0  -2 62760.5 1980.76   4
   5   0   2 63268.8 2261.66   9
   5   0   3 27.4424 101.220   9
  -5   0  -3 192.895 130.518   4
  -5   0  -4 18921.9 1236.34   4
  -5   0  -5 11669.4 1045.66   4
   5   0   6 321.132 197.684   5
   5   0   6 613.471 179.595   7
  -5   0  -6 727.352 317.525   4
   5   0   7 859.480 206.637   7
   5   0   7 1118.67 375.535   5
   5   0   8 141779. 2902.20   5
   5   0   8 128667. 2553.07   7
   5   0   9 494.886 235.357   5
   5   0  10 471.778 208.042   5
   5   0  11 729.634 200.064   5
   5   0  12 492.958 133.222   5
  -5  -1  16 2490.23 279.223   6
  -5   1  15 224.784 207.881   6
  -5  -1  15 114.963 153.983   6
  -5   1  14 3173.72 456.212   6
  -5  -1  14 2424.52 362.157   6
  -5   1  13 6541.65 671.375   6
  -5  -1  13 7183.64 617.584   6
  -5   1  12 408.906 270.576   6
  -5  -1  12 133.861 171.339   6
  -5  -1  12 74.3841 281.831   1
  -5  -1  11 2732.82 511.026   1
  -5   1  11 2388.92 452.404   6
  -5  -1  11 3010.70 403.218   6
  -5  -1  10 7038.12 542.193   6
  -5   1  10 7720.11 709.295   1
  -5  -1  10 6142.95 692.682   1
   5   1 -10 6823.15 1178.85   9
  -5  -1  10 5521.99 724.873   2
   5   1 -10 5818.49 822.150   4
  -5   1  10 6079.45 612.036   6
  -5  -1   9 21101.1 1178.16   1
   5   1  -9 20281.8 1795.30   9
   5  -1  -9 21622.8 1813.02   9
  -5  -1   9 19492.5 1209.50   2
   5  -1  -8 12136.8 1332.29   9
   5   1  -8 11506.8 1244.87   9
  -5  -1   8 12072.4 905.450   2
  -5   1   8 12691.2 1081.09   2
  -5  -1   7 3547.33 464.910   2
   5   1  -7 3567.90 685.890   9
   5  -1  -7 3165.37 638.848   9
  -5   1   7 3690.52 567.786   2
  -5   1   7 3503.52 443.683   3
   5   1  -6 32083.0 1773.93   9
   5  -1  -6 31034.1 1871.43   9
  -5   1   6 31217.2 1537.99   2
  -5   1   6 33544.2 1246.86   3
  -5  -1   6 32898.9 1326.28   2
  -5   1   5 101.875 96.7970   3
   5   1  -5 120.011 149.527   9
   5  -1  -5 420.409 349.114   9
  -5  -1   5 243.486 144.627   2
  -5   1   5 215.297 185.197   2
   5  -1  -4 33758.6 1811.73   9
   5   1  -4 34877.6 1605.86   9
  -5  -1   4 33956.2 1215.29   2
  -5   1   4 32597.7 1521.91   2
  -5   1   4 38125.5 995.599   3
  -5   1   3 110957. 1469.20   3
   5   1  -3 106168. 2714.10   9
   5  -1  -3 102222. 3087.40   9
  -5  -1   3 107534. 3263.35  10
  -5   1   3 104607. 2709.58   2
  -5  -1   3 108413. 2093.99   2
  -5  -1   2 108868. 3276.60  10
   5  -1  -2 103330. 3097.26   9
   5   1  -2 105574. 2605.62   9
  -5  -1   2 106296. 2019.22   2
  -5   1   2 110483. 2486.67   4
  -5   1   2 106291. 2735.02   2
  -5  -1   1 3841.91 659.794  10
   5  -1  -1 4198.37 666.694   9
  -5  -1   1 4097.31 400.271   2
   5   1  -1 4484.58 523.788   9
  -5   1   1 4489.35 534.279   4
  -5   1   1 4032.40 571.963   2
  -5  -1   0 68836.8 2740.04  10
   5  -1   0 66502.8 2471.57   9
   5   1   0 67428.2 1960.25   9
  -5  -1   0 64804.9 1606.31   2
  -5   1   0 70843.0 2073.54   4
  -5   1   0 67012.1 2280.75   2
   5  -1   1 6245.58 772.893   9
   5   1   1 5485.73 595.921   9
  -5  -1  -1 4842.12 452.800   2
  -5   1  -1 5436.68 613.368   4
  -5  -1  -1 6199.05 930.128  10
  -5   1  -1 5305.61 666.475   2
  -5  -1  -2 33276.8 2219.42  10
   5  -1   2 29118.4 1678.28   9
   5   1   2 29744.5 1364.73   9
  -5  -1  -2 30254.5 1314.49   4
  -5   1  -2 30355.0 1502.56   4
   5  -1   3 3125.12 592.415   9
  -5  -1  -3 2723.69 422.250   4
  -5   1  -3 3055.90 518.004   4
   5  -1   4 15697.3 1336.73   9
  -5   1  -4 16367.6 1250.14   4
   5  -1   5 1202.29 257.282   5
   5  -1   5 1088.39 255.702   7
  -5   1  -5 895.430 357.366   4
   5   1   6 2451.21 416.976   5
   5  -1   6 3055.72 425.069   5
   5  -1   6 2751.02 375.512   7
  -5   1  -6 2343.93 551.169   4
   5  -1   7 2060.27 378.695   5
   5   1   7 1583.96 347.711   5
   5  -1   7 2096.32 342.923   7
   5   1   8 20965.9 1111.05   5
   5  -1   8 22024.6 1148.86   5
   5  -1   8 21772.7 1044.26   7
   5   1   9 6563.12 636.283   5
   5  -1   9 5393.24 494.340   7
   5  -1   9 6488.82 625.912   5
   5   1  10 1431.31 279.395   5
   5  -1  10 1416.71 298.070   5
   5   1  11 2429.18 303.821   5
   5  -1  11 2338.72 324.077   5
   5  -1  12 747.618 171.208   5
  -5  -2  15 2752.06 250.883   5
  -5  -2  15 2950.79 311.611   6
  -5   2  14 3384.62 459.483   6
  -5  -2  14 3421.00 391.391   6
  -5   2  13 1163.61 330.150   6
  -5  -2  13 1172.75 244.292   6
  -5  -2  12 7489.96 719.516   1
  -5   2  12 7376.00 722.823   6
  -5  -2  12 7926.41 597.379   6
  -5  -2  11 223.226 205.523   1
  -5   2  11 84.1655 242.536   6
  -5  -2  11-16.3305 187.890   6
  -5   2  10 1101.12 375.465   6
  -5  -2  10 565.079 272.258   1
  -5  -2  10 975.560 254.628   6
  -5  -2   9 41096.5 1216.29   6
  -5  -2   9 39371.6 1600.40   1
   5  -2  -9 35896.7 2488.46   9
  -5  -2   9 40475.7 1802.64   2
   5   2  -9 40927.6 2212.51   4
  -5   2   9 34853.9 1466.50   6
  -5   2   9 36157.6 1843.90   3
  -5  -2   8 4336.35 532.269   1
  -5  -2   8 4004.08 541.881   2
   5  -2  -8 3428.54 780.686   9
  -5   2   8 4628.81 608.625   3
  -5  -2   7 4220.89 539.112   2
   5  -2  -7 3296.39 679.138   9
  -5   2   7 3592.03 659.368   2
  -5   2   7 4004.39 518.020   3
  -5   2   6 9080.36 687.412   3
   5  -2  -6 7777.11 1040.31   9
  -5  -2   6 8321.57 714.597   2
  -5   2   6 7574.90 980.984   2
  -5   2   5 16397.7 860.056   3
   5  -2  -5 13050.3 1276.59   9
  -5  -2   5 14551.5 893.051   2
  -5   2   5 13898.4 1227.93   2
   5  -2  -4 2319.13 549.491   9
  -5   2   4 2384.28 331.886   3
  -5  -2   4 2378.63 359.210   2
  -5   2   4 2013.29 501.710   2
  -5   2   3 1466.72 258.244   3
  -5  -2   3 1009.42 553.928  10
  -5  -2   3 1833.13 289.605   2
   5  -2  -3 911.123 409.253   9
  -5   2   3 1151.64 404.797   2
  -5   2   2 188284. 2832.62   3
  -5  -2   2 193663. 5641.80  10
   5  -2  -2 179285. 4431.95   9
  -5   2   2 196418. 3535.13   4
  -5   2   2 184084. 4380.06   2
  -5  -2   2 188443. 2840.66   2
  -5   2   1 3122.72 416.530   3
  -5  -2   1 3238.32 373.934   2
   5  -2  -1 3890.95 681.806   9
  -5   2   1 3048.74 468.060   4
  -5  -2   1 3128.86 795.673  10
  -5  -2   0 31282.2 2264.51  10
   5  -2   0 35184.5 1959.15   9
  -5  -2   0 32606.1 1119.69   2
  -5   2   0 33543.3 1535.82   4
  -5  -2  -1 8100.49 1212.67  10
   5  -2   1 7804.30 934.670   9
  -5   2  -1 7816.63 782.271   4
  -5  -2  -2 18780.0 1942.79  10
   5  -2   2 17948.3 1416.30   9
  -5   2  -2 18435.4 1283.28   4
  -5  -2  -3 36664.9 2834.47  10
   5  -2   3 32446.8 1938.89   9
  -5   2  -3 31814.5 1767.72   4
  -5  -2  -4 17171.0 2119.80  10
   5  -2   4 14357.8 1348.23   9
  -5   2  -4 14264.2 1258.59   4
   5  -2   4 16959.5 835.761   7
   5  -2   5 5385.09 561.321   5
  -5  -2  -5 6685.69 1348.18  10
  -5   2  -5 6402.66 878.691   4
   5   2   5 5123.63 568.487   5
   5  -2   5 5776.72 522.777   7
   5  -2   6 5311.83 559.645   5
   5  -2   6 6848.44 593.662   7
   5   2   6 5282.55 586.655   5
   5   2   7-396.743 253.108   5
   5  -2   7 2.03556 109.840   7
   5  -2   8 641.940 251.642   5
   5  -2   8 638.095 191.480   7
   5  -2   9 7018.22 602.340   5
   5  -2   9 7402.70 564.148   7
   5  -2  10 7458.14 563.178   5
   5  -2  10 6367.25 471.702   7
   5  -2  11 2693.04 293.275   5
  -5  -3  14 190.202 127.120   6
  -5  -3  13 3218.32 349.420   6
  -5  -3  12 2772.72 333.514   6
  -5  -3  11 402.570 189.153   1
  -5  -3  11 243.904 182.594   6
  -5  -3  10 15502.5 796.759   6
  -5  -3  10 14156.5 953.055   1
  -5  -3   9 23252.8 962.749   6
  -5  -3   9 22717.6 1180.34   1
  -5  -3   8 2917.04 465.876   1
  -5   3   8 2678.28 585.021   3
  -5  -3   8 3293.76 530.835   2
   5   3  -8 3270.97 638.529   4
  -5   3   7 4701.98 659.812   3
   5  -3  -7 3133.94 814.619   9
  -5  -3   7 3803.23 456.269   1
  -5  -3   7 4567.27 600.213   2
  -5  -3   7 3764.81 525.219   7
   5   3  -7 4076.60 675.586   4
  -5   3   6 669.292 261.561   3
   5  -3  -6 330.844 463.422   9
   5   3  -6 712.686 258.960   8
  -5  -3   6 560.700 224.254   2
   5   3  -6 941.338 297.576   4
  -5   3   5 466.654 198.262   3
   5  -3  -5 97.9727 374.040   9
  -5  -3   5 803.277 236.927   2
  -5   3   4 739.274 254.792   3
  -5  -3   4 712.385 206.597   2
   5  -3  -4 966.709 526.890   9
  -5   3   3 2677.06 412.351   3
  -5  -3   3 3161.29 457.848   2
  -5   3   2 14864.4 1029.31   3
  -5  -3   2 13380.9 1951.93  10
   5  -3  -2 13451.6 1335.04   9
  -5  -3   2 15045.3 886.667   2
  -5   3   1 11746.5 953.012   3
  -5  -3   1 10998.2 1658.02  10
   5  -3  -1 11539.8 1219.71   9
  -5  -3   1 11670.0 773.559   2
  -5   3   1 13993.6 1050.51   4
  -5   3   0-22.2681 185.438   3
   5  -3   0 533.377 432.439   9
  -5   3   0 234.706 150.001   4
   5  -3   1 46195.2 2365.14   9
  -5   3  -1 43911.2 1992.52   4
  -5  -3  -1 44180.2 3299.69  10
  -5  -3  -2 5859.74 1269.38  10
   5  -3   2 5646.82 841.560   9
  -5   3  -2 5310.93 731.903   4
   5   3   2 3630.98 520.014   8
   5  -3   2 6083.63 510.928   7
  -5  -3  -3 1085.24 770.581  10
   5  -3   3 1204.42 517.529   9
   5   3   3 1070.51 274.706   8
   5  -3   3 1253.77 258.560   7
  -5   3  -3 1321.74 408.590   4
  -5  -3  -4 13565.9 2062.51  10
   5   3   4 11489.0 872.782   8
  -5   3  -4 14311.1 1364.08   4
   5  -3   4 15452.4 826.698   7
   5  -3   5 4544.66 469.773   7
   5  -3   6 1089.98 267.861   5
   5  -3   6 1312.50 291.211   7
   5  -3   7 2186.38 330.501   5
   5  -3   7 3480.27 411.514   7
   5  -3   8 119.681 100.939   5
   5  -3   8 41.7844 116.251   7
   5  -3   9 1430.31 241.344   5
   5  -3   9 1658.21 257.298   7
   5  -3  10 2373.53 268.346   5
   5  -3  10 1985.22 244.615   7
  -5  -4  13 1212.96 173.685   6
  -5  -4  12 4691.99 352.655   6
  -5  -4  11 3961.85 371.261   6
  -5  -4  10 2876.37 333.084   6
  -5  -4   9 4314.25 433.921   6
  -5  -4   9 4441.27 428.168   7
  -5  -4   8 1224.86 283.165   7
   5   4  -7 483.006 189.959   8
  -5  -4   7-147.665 220.858   7
   5   4  -6 1036.93 264.221   8
  -5  -4   6 932.476 344.866   7
   5   4  -5 27962.7 1430.17   8
  -5   4   4 5150.89 686.019   3
  -5  -4   4 4640.07 616.870   2
   5   4  -4 4485.39 628.924   8
  -5   4   3 7968.87 823.594   3
  -5  -4   3 7093.95 707.279   2
   5   4  -3 6193.17 691.548   8
  -5   4   2 8555.25 898.838   3
   5   4  -2 9578.13 879.524   8
  -5   4   1 26080.0 1602.72   3
  -5  -4   1 29748.3 3234.97  10
   5   4  -1 26450.4 1415.04   8
  -5  -4   0 22524.5 2823.77  10
   5   4   0 19258.8 1218.99   8
   5   4   1 21380.1 1268.39   8
   5   4   2 1311.91 303.340   8
   5  -4   2 2166.06 323.700   7
   5   4   3 2152.91 415.266   8
   5  -4   3 2516.84 337.710   7
   5   4   4 707.656 237.337   8
   5  -4   4 567.304 212.623   7
   5  -4   5 7466.10 570.662   7
   5  -4   6 4697.54 443.426   7
   5  -4   7 3562.84 364.427   7
   5  -4   8 229.795 121.761   7
   5  -4   9 586.269 126.859   7
  -5  -5  11 2093.41 199.529   6
  -5  -5  10 2895.04 260.172   6
  -5  -5   9 3386.73 310.574   6
  -5  -5   9 2900.18 300.123   7
  -5  -5   8 528.883 166.463   6
  -5  -5   8 732.438 188.384   7
  -5  -5   7 2483.95 385.090   7
   5   5  -6 3817.26 508.173   8
  -5  -5   6 3679.84 457.434   7
   5   5  -5 1825.41 393.521   8
  -5  -5   5 2232.04 384.877   7
   5   5  -4 612.187 239.108   8
  -5  -5   4 339.183 230.352   7
   5   5  -3 1251.21 344.888   8
   5   5  -2 2318.05 451.783   8
   5   5  -1 318.594 195.710   8
   5   5   0 327.396 234.589   8
   5   5   1 9512.36 802.588   8
   5   5   2 2845.56 404.291   8
   5  -5   2 2847.40 302.166   7
   5   5   3 741.062 255.389   8
   5  -5   3 672.677 165.801   7
   5  -5   4 1702.79 235.180   7
   5  -5   5 5261.15 380.985   7
   5  -5   6 4849.76 338.948   7
   5  -5   7 4524.67 281.462   7
  -5  -6   8 2012.18 170.092   6
  -5  -6   7 3380.76 252.243   6
  -5  -6   7 3043.37 265.314   7
  -5  -6   6 301.785 164.420   7
  -5  -6   5 709.903 189.320   7
  -5  -6   4 2015.86 301.648   7
   5   6  -3 1730.68 330.497   8
  -5  -6   3 1922.85 312.020   7
   5   6  -2 5856.11 540.481   8
  -5  -6   2 5179.63 471.337   7
   5   6  -1 1203.21 280.888   8
  -5  -6   1 983.085 230.589   7
   5   6   0 878.253 205.486   8
  -5  -6   0 580.535 168.351   7
   5   6   1-180.218 135.132   8
  -5  -6  -1-21.3809 119.527   7
  -5  -6  -2 1375.97 217.743   7
  -6   0  15 6298.34 500.858   6
  -6   0  14 858.420 266.410   6
  -6   0  13 791.814 265.722   6
  -6   0  12 489.035 261.605   6
  -6   0  12 1177.19 318.741   1
  -6   0  11 6234.17 696.211   1
  -6   0  11 6594.04 578.544   6
  -6   0  10 23.4256 218.564   6
  -6   0  10 109.349 266.876   1
   6   0 -10 718.853 517.298   9
  -6   0   9 7030.81 708.149   1
   6   0  -9 6808.23 1147.39   9
  -6   0   9 6984.25 824.444   2
   6   0  -8 44333.0 2535.20   9
  -6   0   8 47964.0 2053.49   2
   6   0  -7 7110.60 1031.13   9
  -6   0   7 6313.89 720.246   2
   6   0  -6 169.950 199.875   9
  -6   0   6 348.032 172.296   2
   6   0  -5 1484.69 426.916   9
  -6   0   5 1278.41 340.519   2
  -6   0   4-15.4500 101.741   2
   6   0  -4 374.181 264.879   9
   6   0  -3 1568.67 486.454   9
  -6   0   3 1422.91 315.991   2
   6   0  -2 1728.10 483.473   9
  -6   0   2 2079.00 381.583   2
   6   0  -1 12433.9 1115.71   9
  -6   0   1 11778.9 885.419   2
   6   0   0 5397.18 729.416   9
  -6   0   0 5874.62 665.439   4
  -6   0   0 4881.13 781.941  10
  -6   0   0 4583.21 570.739   2
   6   0   1 1471.45 389.076   9
  -6   0  -1 1137.58 330.259   4
  -6   0  -1 1620.23 353.434   2
   6   0   2 7514.72 897.946   9
  -6   0  -2 7507.69 777.359   4
   6   0   3 3341.20 606.034   9
  -6   0  -3 2984.48 573.996   4
   6   0   4 316.362 200.859   5
   6   0   4-15.7080 99.2886   7
  -6   0  -4-135.755 169.564   4
   6   0   5 3704.70 471.633   5
   6   0   5 3230.80 407.623   7
  -6   0  -5 3716.37 621.635   4
   6   0   6 3323.18 496.030   5
   6   0   6 3299.91 435.318   7
   6   0   7 213.049 237.119   5
   6   0   8 288.339 235.107   5
   6   0   9 9337.01 696.793   5
   6   0  10 229.043 194.791   5
   6   0  11 1602.43 231.516   5
  -6   1  15 1322.37 233.838   6
  -6  -1  15 1540.27 261.361   6
  -6   1  14 744.658 246.893   6
  -6  -1  14 455.681 197.320   6
  -6   1  13 1069.13 343.695   6
  -6  -1  13 1713.31 321.105   6
  -6  -1  12 630.008 313.972   1
  -6   1  12 724.027 218.710   6
  -6  -1  12 957.509 270.129   6
  -6   1  11 1576.56 370.671   6
  -6  -1  11 2141.65 461.092   1
  -6  -1  11 1564.41 288.908   6
  -6   1  11 1140.44 360.566   1
  -6  -1  10 8861.81 823.831   1
   6   1 -10 7707.95 1214.39   9
   6  -1 -10 8102.14 1312.86   9
  -6  -1  10 6784.38 879.758   2
  -6  -1  10 9577.92 622.643   6
  -6  -1   9 10111.4 617.517   6
  -6  -1   9 8974.07 819.864   1
   6   1  -9 8011.28 1170.51   9
   6  -1  -9 9307.40 1297.19   9
  -6  -1   9 9092.29 904.434   2
  -6   1   9 8778.80 1065.59   2
   6   1  -8 58407.1 2864.03   9
   6  -1  -8 52816.8 2871.24   9
  -6  -1   8 55747.4 2117.35   2
  -6   1   8 57123.0 2507.94   2
   6   1  -7 1300.65 466.602   9
   6  -1  -7 827.737 370.805   9
  -6  -1   7 1418.97 319.198   2
  -6   1   7 1649.97 410.518   2
   6   1  -6 2161.28 505.701   9
   6  -1  -6 1787.93 528.432   9
  -6  -1   6 2338.00 400.835   2
  -6   1   6 2051.71 478.099   2
   6   1  -5 12705.6 1162.53   9
   6  -1  -5 12787.6 1290.22   9
  -6  -1   5 13100.8 886.548   2
  -6   1   5 11646.7 1031.57   2
   6   1  -4 20118.4 1381.62   9
   6  -1  -4 21122.5 1590.34   9
  -6  -1   4 21778.6 1123.00   2
  -6   1   4 22667.6 1441.96   2
   6  -1  -3 359.019 321.116   9
   6   1  -3 644.676 342.916   9
  -6  -1   3 893.797 257.164   2
  -6   1   3 601.671 252.425   2
  -6  -1   2 92708.9 3281.97  10
   6  -1  -2 91801.8 3261.68   9
   6   1  -2 92490.6 2734.74   9
  -6  -1   2 91367.3 2216.99   2
  -6   1   2 89628.3 2827.22   2
  -6  -1   1 44938.3 2334.88  10
   6  -1  -1 47377.1 2307.10   9
   6   1  -1 45168.4 1850.27   9
  -6  -1   1 44778.6 1555.98   2
  -6   1   1 50966.9 1982.11   4
  -6   1   1 43135.3 2008.42   2
  -6  -1   0 17726.3 1525.65  10
   6  -1   0 17098.7 1413.26   9
   6   1   0 17750.1 1153.68   9
  -6   1   0 18575.5 1207.99   4
  -6  -1   0 16659.6 954.104   2
  -6   1   0 16800.5 1282.78   2
  -6  -1  -1 5589.16 908.267  10
   6   1   1 5431.48 653.251   9
   6  -1   1 5016.76 753.683   9
  -6   1  -1 4561.55 612.440   4
  -6  -1  -2 61648.9 3237.66  10
   6  -1   2 57360.6 2588.39   9
   6   1   2 62641.8 2210.20   9
  -6   1  -2 61229.3 2328.67   4
  -6  -1  -3 5827.63 1069.97  10
   6  -1   3 4431.13 790.159   9
  -6   1  -3 5259.10 718.750   4
   6   1   4 3235.32 501.197   5
  -6  -1  -4 3506.96 995.444  10
   6  -1   4 2739.49 418.012   5
   6  -1   4 3436.53 768.415   9
   6  -1   4 2964.16 374.436   7
  -6   1  -4 2892.03 566.617   4
   6  -1   5 935.903 293.185   5
  -6  -1  -5 840.298 860.550  10
   6   1   5 1500.80 342.626   5
   6  -1   5 1280.23 291.984   7
  -6   1  -5 1098.64 372.573   4
   6   1   6 1997.39 434.201   5
   6  -1   6 1993.73 374.075   5
   6  -1   6 2349.00 369.235   7
   6   1   7 4128.41 536.515   5
   6  -1   7 4816.73 569.098   5
   6  -1   7 4498.22 485.369   7
   6   1   8 25320.1 1179.06   5
   6  -1   8 26407.7 1213.42   5
   6  -1   8 24362.3 1082.56   7
   6   1   9 10806.4 718.070   5
   6  -1   9 11145.9 743.794   5
   6   1  10 649.385 185.388   5
   6  -1  10 529.040 185.054   5
   6  -1  11 429.072 153.945   5
  -6  -2  15 3294.13 306.672   6
  -6  -2  14 2563.02 321.375   6
  -6   2  13 248.350 254.795   6
  -6  -2  13 160.765 150.896   6
  -6  -2  12 3860.70 542.544   1
  -6   2  12 3388.49 534.272   6
  -6  -2  12 4155.30 434.219   6
  -6  -2  11 5383.97 492.552   6
  -6  -2  11 5015.04 603.679   1
  -6  -2  10 6080.40 499.646   6
  -6  -2  10 7039.30 699.151   1
  -6  -2   9 33131.8 1091.87   6
  -6  -2   9 30665.9 1461.13   1
   6  -2  -9 29136.9 2309.28   9
  -6  -2   9 31866.4 1696.82   2
  -6  -2   8 1157.86 259.039   6
  -6  -2   8 1357.12 298.953   1
   6  -2  -8 1563.42 696.796   9
  -6  -2   8 1604.73 390.554   2
  -6   2   8 1530.24 602.146   2
   6  -2  -7 2848.52 739.049   9
  -6  -2   7 3330.36 541.444   2
  -6  -2   7 2925.82 472.547   1
  -6   2   7 2772.54 652.345   2
  -6  -2   6 5021.72 584.393   2
   6  -2  -6 4834.67 909.875   9
  -6   2   6 5027.28 826.910   2
   6  -2  -5 16512.0 1562.32   9
  -6  -2   5 17068.9 1062.68   2
  -6   2   5 17772.8 1480.46   2
   6  -2  -4 471.936 385.202   9
  -6  -2   4 1249.69 293.667   2
  -6   2   4 1302.56 494.471   2
  -6  -2   3 7549.04 1231.39  10
   6  -2  -3 8837.73 1149.57   9
  -6  -2   3 8966.15 713.171   2
  -6   2   3 9659.75 1098.39   2
  -6  -2   2 77361.8 3784.46  10
   6  -2  -2 73208.2 3076.15   9
  -6  -2   2 76755.0 2031.63   2
  -6   2   2 75435.7 3072.24   2
  -6  -2   1 18908.6 1958.86  10
   6  -2  -1 19540.4 1595.23   9
  -6  -2   1 18345.8 991.708   2
  -6   2   1 20769.5 1337.16   4
  -6  -2   0 9881.63 1381.44  10
   6  -2   0 9319.62 1134.26   9
  -6   2   0 10718.8 977.786   4
  -6  -2  -1 963.753 453.869  10
   6  -2   1 910.738 426.507   9
  -6   2  -1 841.383 314.361   4
  -6  -2  -2 872.311 459.018  10
   6  -2   2 934.408 494.961   9
  -6   2  -2 1274.09 422.511   4
   6   2   3 769.534 312.650   5
  -6  -2  -3 1297.23 575.384  10
   6  -2   3 1238.12 508.541   9
   6  -2   3 1259.68 264.705   7
  -6   2  -3 1349.74 390.383   4
   6   2   4 5546.55 597.624   5
  -6  -2  -4 7281.15 1494.68  10
   6  -2   4 7059.80 619.534   5
   6  -2   4 6271.15 971.541   9
  -6   2  -4 7413.32 936.014   4
   6  -2   4 8063.51 605.972   7
   6   2   5 17747.1 1025.13   5
   6  -2   5 17248.2 965.875   5
   6  -2   5 19945.4 967.055   7
   6   2   6 25144.6 1211.13   5
   6  -2   6 25381.5 1175.01   5
   6  -2   6 28984.1 1167.12   7
   6   2   7 8341.84 682.015   5
   6  -2   7 8494.15 678.646   5
   6  -2   7 9712.88 683.840   7
   6  -2   8 5062.45 508.199   5
   6  -2   8 5785.66 506.661   7
   6  -2   9 8080.51 577.894   5
   6  -2   9 7407.86 527.731   7
   6  -2  10 4510.51 374.890   5
  -6  -2 -10 1969.30 285.549   1
  -6  -3  14 86.2946 118.860   6
  -6  -3  13 312.730 153.750   6
  -6  -3  12 14177.1 679.781   6
  -6  -3  11 10574.2 626.059   6
  -6  -3  11 8548.81 713.682   1
  -6  -3  10 9099.73 594.863   6
  -6  -3  10 7874.94 702.627   1
  -6  -3   9 6572.89 509.280   6
  -6  -3   9 6217.20 647.370   1
  -6  -3   8 2243.33 323.265   6
  -6  -3   8 2214.32 411.671   1
  -6  -3   7 196.736 190.525   1
   6  -3  -7 98.8275 552.248   9
  -6  -3   7 283.640 294.616   2
   6   3  -7 967.653 349.969   4
  -6  -3   6 412.147 167.377   1
   6   3  -6 808.556 276.650   8
  -6  -3   6 386.995 280.093   2
   6  -3  -5 838.687 534.137   9
   6   3  -5 679.892 222.456   8
  -6  -3   5 37.2585 118.690   1
  -6  -3   5 487.234 234.370   2
   6  -3  -4 11834.0 1409.31   9
  -6  -3   4 10472.3 876.259   2
   6   3  -4 8912.93 788.440   8
   6   3  -3 496.804 208.050   8
  -6  -3   3 995.436 307.011   2
  -6  -3   2 3039.43 922.350  10
   6  -3  -2 2873.24 722.535   9
   6   3  -2 2863.36 457.369   8
  -6  -3   2 2736.08 426.582   2
  -6  -3   1 5264.24 1470.80  10
   6  -3  -1 6099.67 1009.02   9
   6   3  -1 5438.31 625.389   8
  -6   3   1 5777.08 778.321   4
  -6  -3   0 9295.39 1717.53  10
   6  -3   0 8249.52 1063.87   9
   6   3   0 7559.38 744.857   8
  -6   3   0 8599.12 912.823   4
  -6  -3  -1 846.402 818.987  10
   6  -3   1 460.649 310.789   9
   6   3   1 569.381 236.550   8
  -6   3  -1 1035.89 357.178   4
  -6  -3  -2 15920.6 2197.10  10
   6  -3   2 14903.7 1507.34   9
   6   3   2 12415.7 954.350   8
  -6   3  -2 13695.1 1242.55   4
   6  -3   2 15889.3 792.081   7
   6   3   3 12271.4 940.344   8
   6  -3   3 15678.9 817.137   7
   6   3   4 3438.69 513.602   8
   6  -3   4 4496.62 463.292   7
   6  -3   5 3796.28 432.542   7
   6  -3   6 5560.66 507.200   5
   6  -3   6 7401.45 573.887   7
   6  -3   7-55.8832 156.767   5
   6  -3   7 106.911 106.624   7
   6  -3   8 382.388 120.210   5
   6  -3   8 334.741 146.707   7
   6  -3   9 4885.38 333.262   5
   6  -3   9 4835.34 362.536   7
  -6  -4  13 818.440 146.481   6
  -6  -4  12 5312.69 349.113   6
  -6  -4  11 19432.8 719.487   6
  -6  -4  10 1982.94 276.710   6
  -6  -4   9 1850.69 301.356   6
  -6  -4   8 2097.55 373.575   7
   6   4  -7 485.819 270.434   8
  -6  -4   7 1187.95 282.430   7
   6   4  -6 4599.45 577.879   8
  -6  -4   6 3832.40 496.370   7
   6   4  -5 1992.55 389.101   8
   6   4  -4 8844.54 839.835   8
   6   4  -3 7196.66 770.960   8
   6   4  -2 10035.1 901.570   8
   6   4  -1 4800.12 645.678   8
   6   4   0 9401.56 855.444   8
   6   4   1 14042.7 1037.37   8
   6   4   2 877.617 275.743   8
   6  -4   2 717.878 193.134   7
   6   4   3 7983.88 731.627   8
   6  -4   3 9990.20 626.046   7
   6   4   4 732.886 219.638   8
   6  -4   4 701.393 185.450   7
   6  -4   5 204.315 126.368   7
   6  -4   6 1354.37 233.118   7
   6  -4   7 379.271 129.652   7
   6  -4   8 295.061 93.3860   7
  -6  -5  10 2602.75 222.355   6
  -6  -5   9 5996.48 365.854   6
  -6  -5   8 6567.88 428.670   6
  -6  -5   8 6673.28 471.274   7
   6   5  -7 1991.53 338.592   8
  -6  -5   7 1752.27 319.056   7
   6   5  -6 740.705 239.514   8
  -6  -5   6 591.628 226.834   7
   6   5  -5 16927.8 1044.08   8
  -6  -5   5 16812.1 960.127   7
   6   5  -4 1271.97 337.469   8
   6   5  -3 334.574 219.107   8
   6   5  -2 1225.20 344.500   8
   6   5  -1 1716.46 348.196   8
   6   5   0 1355.54 324.260   8
   6   5   1 156.507 169.504   8
   6   5   2 2218.54 385.765   8
   6   5   3 1764.94 304.101   8
   6  -5   3 2055.92 238.062   7
   6  -5   4 1500.31 202.491   7
   6  -5   5 9312.67 416.883   7
   6  -5   6 1907.45 165.382   7
  -6  -6   7 63.5350 69.7488   6
  -6  -6   6 418.453 104.771   6
  -6  -6   6 493.251 127.561   7
  -6  -6   5 1786.54 244.239   7
  -6  -6   4 858.134 184.716   7
   6   6  -3 3139.72 367.035   8
  -6  -6   3 2774.45 333.384   7
   6   6  -2 1766.82 288.342   8
  -6  -6   2 1610.95 257.886   7
   6   6  -1 4754.11 433.556   8
  -6  -6   1 4083.88 373.168   7
   6   6   0 1926.30 279.640   8
  -6  -6   0 1454.40 226.373   7
   6   6   1 311.931 100.916   8
  -6  -6  -1 151.522 118.309   7
  -6  -6  -2-115.515 52.0107   7
  -7   0  15 759.892 215.767   6
  -7   0  14 1248.75 304.076   6
  -7   0  13 312.527 175.854   6
  -7   0  12 289.931 240.781   1
  -7   0  11 159.452 193.907   1
  -7   0  10 11281.3 903.960   1
  -7   0   9 11971.1 914.864   1
   7   0  -9 9990.57 1374.39   9
  -7   0   9 12374.3 1216.89   2
   7   0  -8 8937.31 1189.93   9
  -7   0   8 10514.3 845.084   1
  -7   0   8 10575.8 1055.19   2
   7   0  -7 3105.23 772.998   9
  -7   0   7 3099.56 542.492   2
   7   0  -6-187.425 357.588   9
  -7   0   6-244.809 268.635   2
   7   0  -5-315.159 247.066   9
  -7   0   5 247.947 146.003   2
   7   0  -4 46345.6 2427.57   9
  -7   0   4 47053.6 1983.53   2
   7   0  -3 613.794 313.178   9
  -7   0   3 729.837 256.898   2
   7   0  -2 380.387 308.183   9
  -7   0   2-10.3326 144.026   2
   7   0  -1 94.4549 273.905   9
  -7   0   1 110.569 232.080   2
   7   0   0 1668.11 487.348   9
  -7   0   0 50.8964 269.996   2
   7   0   1 879.472 357.893   9
  -7   0  -1 511.126 250.470   4
   7   0   2 15515.9 1356.98   9
  -7   0  -2 16229.0 1301.87   4
   7   0   3 18266.0 994.713   5
   7   0   3 19027.1 1547.65   9
  -7   0  -3 21194.5 1549.65   4
   7   0   3 15653.1 898.476   7
   7   0   4 2848.15 417.940   5
   7   0   4 2369.73 383.003   7
  -7   0  -4 3089.24 595.124   4
   7   0   5 24.6387 155.307   5
   7   0   6 3347.77 493.492   5
   7   0   7 30696.2 1330.67   5
   7   0   8 6404.87 585.908   5
   7   0   9 8525.77 592.343   5
   7   0  10 5508.22 397.189   5
  -7  -1  15 266.256 149.773   6
  -7  -1  14 4639.40 405.659   6
  -7  -1  13 1510.67 290.043   6
  -7  -1  13 2253.03 418.237   1
  -7  -1  12 168.533 224.916   1
  -7  -1  12 9.55579 186.321   6
  -7  -1  11 6331.04 704.939   1
  -7  -1  11 6166.61 530.030   6
  -7  -1  10 37310.8 1635.31   1
  -7  -1   9 1641.14 460.086   1
   7   1  -9 2304.62 706.319   9
   7  -1  -9 1890.38 766.653   9
  -7  -1   9 1664.53 523.919   2
  -7   1   9 1648.60 603.144   2
   7   1  -8 8904.67 1237.84   9
   7  -1  -8 9451.12 1310.27   9
  -7  -1   8 9224.98 824.963   1
  -7  -1   8 9646.43 944.650   2
  -7   1   8 9139.59 1094.11   2
   7   1  -7 4241.41 833.719   9
   7  -1  -7 3581.35 830.549   9
  -7  -1   7 4175.46 608.586   2
  -7  -1   7 3583.78 528.705   1
  -7   1   7 3216.46 651.804   2
   7  -1  -6 1174.69 442.729   9
  -7  -1   6 1745.69 425.340   2
  -7   1   6 1177.03 374.125   2
   7  -1  -5 1646.07 560.594   9
   7   1  -5 1412.49 401.246   9
  -7  -1   5 2033.22 409.732   2
  -7   1   5 1160.60 357.260   2
   7  -1  -4 35258.9 2251.23   9
   7   1  -4 36104.7 1993.24   9
  -7  -1   4 40293.6 1749.87   2
  -7   1   4 37933.9 2066.11   2
   7  -1  -3 17528.8 1588.61   9
   7   1  -3 19888.7 1402.46   9
  -7  -1   3 19046.4 1185.32   2
  -7   1   3 18695.6 1453.28   2
   7  -1  -2 12922.7 1358.20   9
   7   1  -2 13087.3 1152.54   9
  -7  -1   2 12943.2 963.208   2
  -7   1   2 11662.8 1162.66   2
   7  -1  -1 1694.42 588.449   9
   7   1  -1 1971.80 434.843   9
  -7  -1   1 2103.75 409.792   2
  -7   1   1 2001.72 501.526   2
  -7   1   0 3966.26 702.822   2
   7  -1   0 4443.91 763.438   9
  -7   1   0 4381.53 683.385   4
  -7  -1  -1 3178.13 797.653  10
   7  -1   1 4125.00 775.721   9
  -7   1  -1 3833.81 645.028   4
  -7  -1  -2 1170.71 685.878  10
   7   1   2 1825.66 356.316   5
   7  -1   2 1517.85 326.690   5
   7  -1   2 2282.50 614.586   9
   7  -1   2 1927.11 323.466   7
  -7   1  -2 1679.67 467.192   4
   7   1   3 143.156 237.409   5
   7  -1   3 384.175 186.948   5
   7  -1   3 588.081 393.125   9
  -7  -1  -3 391.029 687.677  10
   7  -1   3 640.171 207.957   7
  -7   1  -3 445.623 234.067   4
   7   1   4 605.374 265.905   5
   7  -1   4 598.950 301.764   5
   7  -1   4-66.0076 116.310   7
  -7   1  -4 99.0121 218.935   4
   7   1   5 1460.30 380.936   5
   7  -1   5 2344.41 372.361   5
   7  -1   5 1216.07 327.004   7
   7   1   6 1650.80 359.507   5
   7  -1   6 1601.66 354.443   5
   7  -1   6 1539.08 333.628   7
   7   1   7 11140.1 808.917   5
   7  -1   7 11729.3 801.735   5
   7  -1   7 11312.6 748.166   7
   7   1   8 1480.60 303.400   5
   7  -1   8 1224.82 273.112   5
   7  -1   9 9016.02 579.313   5
   7  -1  10 1563.32 227.410   5
  -7  -1 -10 1408.69 251.375   1
  -7  -2  14 3862.99 340.269   6
  -7  -2  13 1871.46 264.649   6
  -7  -2  12 1700.39 372.196   1
  -7  -2  12 1641.70 283.233   6
  -7  -2  11 2127.76 388.144   1
  -7  -2  11 2589.37 341.661   6
  -7  -2  10 50466.0 1326.82   6
  -7  -2  10 45474.5 1795.33   1
  -7  -2   9 6505.22 706.583   1
  -7  -2   8 5629.14 674.589   1
   7  -2  -8 4966.15 1064.48   9
  -7  -2   8 5116.03 730.033   2
  -7   2   8 3920.61 932.553   2
  -7  -2   7 4658.31 588.790   1
   7  -2  -7 4554.22 1026.94   9
  -7  -2   7 4312.85 637.507   2
  -7   2   7 3481.19 740.610   2
   7  -2  -6 2709.66 692.915   9
  -7  -2   6 2708.66 485.006   2
  -7  -2   6 2547.88 499.632   1
  -7   2   6 2618.25 708.775   2
  -7  -2   5 131.314 200.578   1
   7  -2  -5 130.665 509.642   9
  -7  -2   5 787.654 288.498   2
  -7   2   5-45.3010 281.750   2
   7  -2  -4 3733.58 840.907   9
  -7  -2   4 3141.77 499.753   2
  -7   2   4 2664.12 673.476   2
   7  -2  -3 14316.0 1558.27   9
  -7  -2   3 13829.1 1005.77   2
  -7   2   3 12944.8 1381.11   2
  -7  -2   2 18238.7 1960.00  10
   7  -2  -2 15049.5 1538.43   9
  -7  -2   2 14637.1 1020.51   2
  -7  -2   1 20569.5 2203.63  10
   7  -2  -1 20274.8 1759.22   9
  -7   2   1 22366.8 1520.79   4
  -7  -2   0 1016.14 610.712  10
   7  -2   0 32.0197 353.142   9
  -7   2   0 299.389 338.620   4
  -7  -2   0 322.613 168.391   1
  -7  -2  -1 4724.43 1279.78  10
   7  -2   1 4582.10 942.333   9
  -7   2  -1 5840.83 850.331   4
   7  -2   1 5975.67 487.366   7
  -7  -2  -1 4791.25 609.450   1
  -7  -2  -2 6944.50 1458.86  10
   7  -2   2 8834.35 1138.32   9
  -7   2  -2 6906.06 909.519   4
   7  -2   2 8062.00 595.382   7
  -7  -2  -2 6547.18 724.302   1
  -7  -2  -3 5.70641 737.828  10
   7  -2   3 666.295 183.554   5
   7  -2   3 162.895 195.081   7
   7  -2   4 651.051 225.573   5
   7  -2   4 645.962 223.093   7
   7  -2   5 1029.10 292.937   5
   7  -2   5 1100.97 282.542   7
   7  -2   6 138.994 164.719   5
   7  -2   6 68.4732 138.933   7
   7  -2   7 2522.14 364.081   5
   7  -2   7 2003.76 299.549   7
   7  -2   8 6257.40 491.754   5
   7  -2   8 6696.58 498.013   7
  -7  -2  -8 5825.43 537.796   1
  -7  -2  -9 1427.89 248.693   1
   7  -2   9 2702.84 292.750   5
  -7  -3  13 1909.57 240.283   6
  -7  -3  12 7693.38 604.683   1
  -7  -3  12 8187.10 490.900   6
  -7  -3  11 6061.01 438.726   6
  -7  -3  11 5260.62 549.773   1
  -7  -3  10 261.444 170.773   1
  -7  -3  10 416.532 174.851   6
  -7  -3   9 2857.78 339.429   6
  -7  -3   9 2820.27 443.302   1
  -7  -3   8 780.393 239.125   6
  -7  -3   8 1020.07 294.544   1
  -7  -3   7 2359.73 403.976   1
   7   3  -6 2203.54 431.832   8
  -7  -3   6 2516.58 455.669   1
   7   3  -5-12.3783 106.000   8
  -7  -3   5 67.1314 172.370   2
   7  -3  -4 640.945 377.615   9
   7   3  -4 605.988 263.874   8
  -7  -3   4 1300.23 383.026   2
  -7  -3   4 585.866 246.261   1
   7  -3  -3 5067.76 979.582   9
  -7  -3   3 6070.29 714.562   2
   7   3  -3 4891.88 625.914   8
  -7  -3   3 4716.36 537.074   1
  -7  -3   2 4156.25 1262.72  10
   7  -3  -2 4650.81 930.229   9
   7   3  -2 4115.39 580.890   8
  -7  -3   2 4269.64 540.295   1
  -7  -3   1 27706.8 3043.42  10
   7  -3  -1 27154.8 2109.94   9
   7   3  -1 26036.5 1442.14   8
  -7  -3   1 22919.2 1229.28   1
  -7  -3   0 75969.1 4832.11  10
   7  -3   0 80292.1 3533.73   9
   7   3   0 79113.0 2490.91   8
  -7  -3   0 73194.9 2206.38   1
   7   3   1 5421.42 670.036   8
  -7  -3  -1 6215.69 662.184   1
   7   3   2 5021.15 640.592   8
   7  -3   2 6008.53 495.846   7
  -7  -3  -2 4900.31 565.984   1
   7   3   3 1340.12 353.269   8
   7  -3   3 1901.61 306.445   7
   7   3   4 11105.5 851.780   8
   7  -3   4 12385.5 725.492   7
   7   3   5 5260.83 539.070   8
   7  -3   5 5969.37 503.326   7
   7  -3   6 14288.9 725.305   7
   7  -3   7 990.676 185.999   5
   7  -3   7 1163.34 216.821   7
   7  -3   8 817.458 161.715   7
  -7  -4  12 2258.73 213.768   6
  -7  -4  11 7066.33 397.915   6
  -7  -4  10 1316.74 200.197   6
  -7  -4   9 3127.07 316.615   6
  -7  -4   8 389.189 161.150   6
   7   4  -7 1145.13 289.585   8
  -7  -4   7 1850.08 346.113   7
   7   4  -6 12230.8 916.439   8
   7   4  -5 5164.80 655.152   8
   7   4  -4 5411.29 669.449   8
   7   4  -3 7994.15 813.217   8
   7   4  -2 10179.1 917.513   8
   7   4  -1 5841.03 710.183   8
   7   4   0 28976.2 1496.59   8
   7   4   1 3362.95 527.290   8
   7   4   2 500.694 234.590   8
   7   4   3 1133.14 312.028   8
   7  -4   3 2084.14 266.838   7
   7   4   4 871.819 265.531   8
   7  -4   4 519.843 151.722   7
   7  -4   5 882.672 187.930   7
   7  -4   6 706.173 149.540   7
   7  -4   7 1204.27 152.596   7
  -7  -5   9 1318.02 160.566   6
  -7  -5   8 2325.11 223.789   6
  -7  -5   8 2112.24 253.712   7
  -7  -5   7 173.305 116.680   6
   7   5  -7 223.596 101.365   8
  -7  -5   7-11.8170 99.6190   7
   7   5  -6 1631.52 294.244   8
  -7  -5   6 1734.11 305.185   7
   7   5  -5 1406.55 296.878   8
  -7  -5   5 1340.82 294.503   7
   7   5  -4 2521.35 397.684   8
   7   5  -3 3488.86 477.365   8
   7   5  -2 2387.87 403.418   8
   7   5  -1 8444.13 734.727   8
   7   5   0 331.762 236.289   8
   7   5   1 1401.63 286.196   8
   7   5   2 156.078 124.340   8
   7   5   3 1149.53 240.419   8
  -7  -6   5 2010.76 208.906   7
  -7  -6   4 1032.75 187.069   7
   7   6  -3 1418.70 225.569   8
  -7  -6   3 1123.83 193.741   7
   7   6  -2 870.218 195.688   8
  -7  -6   2 642.998 163.790   7
   7   6  -1-10.3626 73.5370   8
  -7  -6   1 63.0644 79.4219   7
  -7  -6   0 3.57240 67.8445   7
  -8   0  13 1166.06 271.203   1
  -8   0  12 8352.77 736.407   1
  -8   0  11 16488.6 1043.16   1
  -8   0  10 12983.5 973.579   1
  -8   0   9 9878.94 870.260   1
   8   0  -8 23977.6 2161.77   9
  -8   0   8 24344.0 1294.30   1
  -8   0   8 23969.9 1752.57   2
   8   0  -7 7148.79 1209.10   9
  -8   0   7 6988.41 728.952   1
  -8   0   7 7517.51 939.864   2
  -8   0   6 40.4615 229.762   1
   8   0  -6-105.739 484.280   9
  -8   0   6 136.659 212.730   2
   8   0  -5 52288.9 2863.52   9
  -8   0   5 54090.6 2444.83   2
   8   0  -4 42366.5 2542.92   9
  -8   0   4 42875.9 2161.67   2
   8   0  -3 2406.94 665.418   9
  -8   0   3 1970.56 474.496   2
   8   0  -2 25.2962 532.214   9
  -8   0   2 1414.83 439.728   2
   8   0  -1 5657.64 929.343   9
  -8   0   1 5579.32 853.053   2
   8   0   0 706.854 236.601   5
  -8   0   0 913.542 401.436   1
   8   0   0 364.959 305.215   9
   8   0   1 54078.8 1727.14   5
   8   0   1 58844.1 2803.78   9
   8   0   2 4308.56 514.740   5
   8   0   2 4917.00 886.052   9
   8   0   3-48.1037 140.088   5
   8   0   4 1095.93 321.123   5
   8   0   5 3841.85 499.497   5
   8   0   6-30.6114 176.815   5
   8   0   7 57665.0 1652.71   5
   8   0   8-96.2064 150.615   5
  -8   0  -9 861.464 211.805   1
  -8  -1  13 5167.90 537.061   1
  -8  -1  12 2306.81 453.759   1
  -8  -1  11 401.145 253.389   1
  -8  -1  10 23007.1 1293.32   1
  -8  -1   9 530.353 354.920   1
  -8  -1   8 5670.04 682.348   1
   8  -1  -8 4005.80 882.930   9
  -8  -1   8 5895.85 830.393   2
  -8   1   8 5278.98 898.871   2
  -8  -1   7 1255.02 380.477   1
  -8  -1   7 1134.85 349.801   2
  -8   1   7 921.550 425.979   2
   8  -1  -6 2349.31 769.369   9
  -8  -1   6 2053.13 492.411   2
  -8   1   6 2308.65 570.385   2
  -8  -1   6 2481.74 486.221   1
   8  -1  -5 9156.82 1280.07   9
  -8  -1   5 10851.5 1040.90   2
  -8  -1   5 8444.41 811.113   1
  -8   1   5 8067.34 1115.18   2
   8  -1  -4 10937.8 1386.29   9
  -8  -1   4 12003.4 1093.08   2
  -8  -1   4 11610.4 925.169   1
  -8   1   4 12561.5 1311.55   2
   8  -1  -3 947.405 411.352   9
  -8  -1   3 964.269 346.029   2
  -8  -1   3 1570.09 404.225   1
  -8   1   3 798.309 437.426   2
  -8  -1   2 1993.69 418.998   1
   8  -1  -2 1956.87 542.821   9
  -8  -1   2 1949.82 457.868   2
  -8   1   2 1099.03 461.772   2
   8  -1  -1 3818.29 802.634   9
  -8  -1   1 3605.55 539.970   1
  -8   1   1 3170.53 659.520   2
  -8   1   0 799.329 265.533   1
  -8  -1   0 574.756 302.239   1
   8  -1   0 499.864 298.343   9
   8  -1   1 3628.98 434.499   5
   8  -1   1 4055.43 796.642   9
  -8   1  -1 3822.74 677.461   4
  -8  -1  -1 3438.31 515.057   1
   8  -1   1 3346.93 435.174   7
   8   1   2 7358.03 693.936   5
   8  -1   2 6564.23 602.865   5
   8  -1   2 6770.15 1043.99   9
  -8   1  -2 7518.03 1006.19   4
   8  -1   2 6677.54 579.035   7
   8   1   3 1869.42 361.430   5
   8  -1   3 1608.09 329.440   5
   8  -1   3 2114.67 371.591   7
   8   1   4 1509.56 402.432   5
   8  -1   4 1430.41 327.180   5
   8  -1   4 1592.73 334.537   7
   8   1   5 1742.36 401.009   5
   8  -1   5 1910.40 348.435   5
   8   1   6 770.663 280.006   5
   8  -1   6 1054.65 272.895   5
   8  -1   7 10338.2 676.624   5
   8  -1   8 549.300 197.004   5
  -8  -1  -8 221.921 204.993   1
  -8  -1  -9 293.777 149.832   1
  -8   1  -9 598.001 164.656   1
  -8  -2  13 2451.39 368.761   1
  -8  -2  12 253.362 218.549   1
  -8  -2  11 119.213 157.135   1
  -8  -2  10 16564.3 1075.37   1
  -8  -2   9 14061.2 1038.21   1
  -8  -2   8 397.252 265.041   1
  -8  -2   7 3328.14 527.382   1
   8  -2  -6 3430.13 927.624   9
  -8  -2   6 3599.31 553.999   1
  -8  -2   6 3956.35 669.538   2
  -8   2   6 3549.54 898.054   2
  -8  -2   5 610.024 235.620   1
   8  -2  -5 1205.66 877.004   9
   8   2  -5 874.887 252.912   8
  -8  -2   5 549.960 280.593   2
  -8   2   5 110.856 216.571   2
  -8  -2   4 1452.77 399.879   1
   8  -2  -4 754.011 609.257   9
  -8  -2   4 1934.81 444.785   2
  -8   2   4 1715.94 590.827   2
   8  -2  -3 47663.4 2911.89   9
  -8  -2   3 48309.1 2117.31   2
  -8  -2   3 44893.2 1813.05   1
   8  -2  -2 10207.9 1396.98   9
  -8  -2   2 10652.5 886.029   1
   8  -2  -1 6723.90 1130.25   9
  -8  -2   1 7495.70 779.569   1
   8  -2   0 54763.0 3007.40   9
  -8  -2   0 50035.3 1961.96   1
   8  -2   1 666.468 192.823   7
  -8  -2  -1 682.693 322.112   1
   8  -2   2 8575.60 615.189   7
  -8  -2  -2 7158.59 782.254   1
   8  -2   3 11127.7 716.062   7
  -8  -2  -3 10534.8 918.333   1
   8  -2   4 1517.89 280.760   5
  -8  -2  -4 1177.41 377.801   1
   8  -2   4 1539.89 301.966   7
   8  -2   5 3369.68 402.314   5
   8  -2   5 3706.09 425.174   7
  -8  -2  -5 3495.06 487.759   1
   8  -2   6 5356.60 468.572   5
   8  -2   6 5087.83 455.954   7
  -8  -2  -6 3830.79 512.768   1
  -8  -2  -7 1820.02 309.081   1
  -8   2  -7 1537.66 259.322   1
  -8  -2  -8 376.715 169.908   1
   8  -2   8 62.0407 91.4417   5
  -8  -3  12 1328.82 287.869   1
  -8  -3  11 2207.50 355.392   1
  -8  -3  10 402.896 178.725   1
  -8  -3   9 1368.99 321.871   1
  -8  -3   8 1336.95 304.971   1
  -8  -3   7 292.595 231.277   1
  -8  -3   6 5471.32 619.047   1
   8   3  -6 5990.66 661.251   8
   8   3  -5 2290.33 413.938   8
  -8  -3   5 2313.73 428.337   1
   8   3  -4 420.607 251.363   8
  -8  -3   4 344.454 179.790   1
   8   3  -3 18998.3 1230.99   8
  -8  -3   3 18718.5 1148.81   1
   8   3  -2 6879.15 752.246   8
  -8  -3   2 7034.83 722.096   1
   8   3  -1 5511.99 675.692   8
  -8  -3   1 5433.71 648.641   1
   8   3   0 6631.92 733.186   8
  -8  -3   0 6180.43 652.308   1
   8   3   1 3374.88 536.266   8
  -8  -3  -1 3647.50 507.666   1
  -8  -3  -2 344.145 174.215   1
   8   3   2 167.478 216.725   8
   8  -3   2 583.731 176.582   7
   8   3   3 6603.24 672.270   8
   8  -3   3 8253.43 566.913   7
  -8  -3  -3 6704.12 641.450   1
   8  -3   4 6697.37 500.399   7
  -8  -3  -4 5619.99 593.043   1
   8   3   5 6270.60 564.248   8
   8  -3   5 5650.49 439.025   7
   8  -3   6 1109.79 196.439   7
  -8  -4  10 3865.54 339.424   1
  -8  -4   9 1290.80 265.730   1
   8   4  -7 1036.97 246.761   8
   8   4  -6 8451.08 739.199   8
  -8  -4   6 7535.99 631.211   7
   8   4  -5 615.081 274.632   8
   8   4  -4 46.9114 146.227   8
   8   4  -3 951.640 308.516   8
   8   4  -2 362.012 247.936   8
   8   4  -1 1939.07 431.896   8
   8   4   0 6500.30 690.671   8
   8   4   1 2013.24 405.422   8
   8   4   2 91.7110 177.181   8
   8   4   3 12.5817 144.101   8
   8   4   4 721.000 210.633   8
   8  -4   4 122.725 69.1334   7
   8  -4   5 413.476 95.9244   7
   8   5  -7 1308.87 208.393   8
  -8  -5   7 1014.39 184.751   7
   8   5  -6 859.515 186.500   8
  -8  -5   6 1173.16 226.300   7
   8   5  -5 1184.13 282.876   8
  -8  -5   5 1298.28 256.328   7
   8   5  -4 3472.89 415.572   8
  -8  -5   4 3264.42 377.027   7
   8   5  -3 1013.59 266.958   8
   8   5  -2 3242.59 438.564   8
   8   5  -1 1468.72 285.130   8
   8   5   0 1210.85 247.342   8
   8   5   1 210.086 124.074   8
   8   5   2 150.985 132.642   8
  -9   0  13 214.446 176.006   1
  -9   0  12 1304.51 321.075   1
  -9   0  11 12983.5 887.347   1
  -9   0  10 20247.9 1174.43   1
  -9   0   9 13605.4 976.676   1
  -9   0   8 4210.76 602.762   1
  -9   0   7 10210.0 870.120   1
   9   0  -6 7939.37 1226.18   9
  -9   0   6 7062.24 745.276   1
  -9   0   6 7149.83 990.741   2
   9   0  -5 20415.5 1924.04   9
  -9   0   5 19063.3 1192.27   1
  -9   0   5 22017.7 1749.92   2
   9   0  -4 8312.24 1271.66   9
  -9   0   4 5667.08 703.492   1
  -9   0   4 6813.60 1023.11   2
   9   0  -3 9670.28 1307.56   9
  -9   0   3 9743.27 1253.71   2
  -9   0   3 9504.59 865.786   1
  -9   0   2 1955.38 488.428   1
   9   0  -2 1751.91 535.483   9
  -9   0   2 2184.31 573.422   2
   9   0  -1 1320.35 560.637   9
  -9   0   1 1040.75 418.118   1
  -9   0   0-136.173 248.551   1
  -9   0  -1 1265.34 434.267   1
  -9   0  -2 203.407 265.232   1
   9   0   3 280.614 136.882   5
  -9   0  -3-0.86731 243.570   1
  -9   0  -4 764.569 332.087   1
   9   0   4 304.913 206.497   5
   9   0   5-146.068 168.332   5
  -9   0  -5-54.0696 209.200   1
  -9   0  -6 2107.09 390.129   1
  -9   0  -7 1805.33 319.463   1
  -9   0  -8 999.854 207.847   1
  -9  -1  13 2929.52 381.221   1
  -9  -1  12 12719.2 853.330   1
  -9  -1  11 34280.1 1473.39   1
  -9  -1  10 22860.6 1265.71   1
  -9  -1   9 46122.2 1824.31   1
  -9  -1   8 2213.54 492.758   1
  -9  -1   7 1480.24 431.712   1
  -9  -1   6 14950.8 1095.54   1
  -9  -1   6 15938.4 1443.51   2
  -9   1   5 2332.16 457.692   1
  -9  -1   5 2018.54 481.428   1
   9  -1  -5 2910.22 757.024   9
  -9  -1   5 2080.79 533.196   2
  -9   1   5 2157.58 724.442   2
   9  -1  -4 9247.21 1327.15   9
  -9  -1   4 7446.78 1013.89   2
  -9   1   4 7775.70 738.802   1
  -9  -1   4 7881.66 816.161   1
  -9   1   4 8327.79 1227.32   2
   9  -1  -3 12148.5 1505.25   9
  -9  -1   3 9522.12 1136.47   2
  -9   1   3 10285.5 831.062   1
  -9   1   3 11191.0 1322.82   2
  -9  -1   3 10930.6 979.704   1
   9  -1  -2 11158.3 1397.22   9
  -9   1   2 11179.9 934.732   1
  -9  -1   2 10019.7 917.084   1
  -9   1   2 9546.72 1304.58   2
   9  -1  -1 10064.7 1299.47   9
  -9  -1   1 9176.50 886.273   1
  -9   1   1 7464.62 758.863   1
  -9  -1   0 2476.36 495.957   1
  -9   1   0 2051.08 474.488   1
  -9  -1  -1 23029.6 1394.37   1
  -9   1  -1 22331.2 1291.59   1
  -9   1  -2 1182.44 405.013   1
   9  -1   2 1130.96 298.447   5
  -9  -1  -2 1684.04 392.200   1
   9  -1   3 1710.23 312.477   5
  -9   1  -3 1772.97 407.548   1
  -9  -1  -3 1585.96 396.302   1
   9  -1   4 491.555 221.437   5
  -9   1  -4 348.096 230.681   1
  -9  -1  -4 134.057 265.271   1
   9  -1   5 6359.34 554.141   5
  -9  -1  -5 5908.46 664.840   1
  -9   1  -5 5257.50 589.493   1
   9  -1   6 4881.14 448.772   5
  -9  -1  -6 4164.50 517.725   1
  -9   1  -6 3755.10 468.407   1
  -9  -1  -7 6042.87 520.214   1
  -9   1  -7 6112.96 487.126   1
  -9  -1  -8 3585.48 319.880   1
  -9  -2  13 3596.25 387.670   1
  -9  -2  12 1510.24 330.385   1
  -9  -2  11 1437.58 345.806   1
  -9  -2  10 757.935 295.578   1
  -9  -2   9 3235.29 519.768   1
  -9  -2   8 1248.99 378.535   1
  -9  -2   7 566.633 279.233   1
  -9  -2   6 296.740 242.893   1
  -9  -2   5 1866.21 422.307   1
   9   2  -5 2069.49 397.847   8
  -9  -2   4 4927.10 661.266   1
  -9  -2   3 30680.3 1544.02   1
  -9  -2   2 9955.92 906.923   1
  -9  -2   1 31158.0 1598.51   1
  -9  -2   0 5271.53 666.178   1
  -9  -2  -1 10812.4 946.730   1
  -9  -2  -2 2802.81 461.287   1
   9  -2   2 2632.11 363.862   7
  -9  -2  -3 1814.06 386.605   1
   9  -2   4 985.076 232.285   5
  -9  -2  -4 1023.51 293.733   1
   9  -2   5 13112.4 652.050   5
  -9  -2  -5 11962.6 822.321   1
  -9  -2  -6 173.868 154.637   1
  -9  -2  -7 3212.60 315.091   1
  -9  -3  12 672.952 195.036   1
  -9  -3  11 2102.05 321.870   1
  -9  -3  10 1684.29 316.865   1
  -9  -3   9 889.958 274.659   1
  -9  -3   8 304.537 248.380   1
  -9  -3   7 1629.21 376.670   1
  -9  -3   6 6175.89 660.677   1
   9   3  -6 5183.22 594.503   8
   9   3  -5 600.636 204.301   8
  -9  -3   5 586.973 264.358   1
  -9  -3   4 3727.67 514.018   1
   9   3  -4 4024.79 587.849   8
  -9  -3   3 18904.4 1130.93   1
   9   3  -3 18515.8 1203.08   8
  -9  -3   2 9.39088 189.771   1
   9   3  -2 725.659 283.561   8
   9   3  -1 6355.50 722.268   8
  -9  -3   1 6238.08 659.977   1
   9   3   0 7923.90 800.581   8
  -9  -3   0 7691.50 725.798   1
  -9  -3  -1 1375.34 338.951   1
   9   3   1 1293.81 355.190   8
   9   3   2 787.924 294.183   8
  -9  -3  -2 824.402 263.264   1
   9   3   3 46.2216 203.213   8
   9  -3   3 207.235 102.619   7
  -9  -3  -3 428.549 249.239   1
   9   3   4-111.072 170.604   8
  -9  -3  -4 42.0266 127.294   1
  -9  -4   9 805.908 203.193   1
  -9  -4   8 1112.49 211.713   1
   9   4  -7 687.521 200.355   8
   9   4  -6 1181.38 266.950   8
  -9  -4   6 1680.81 306.660   7
   9   4  -5 969.848 276.967   8
   9   4  -4 3351.73 475.040   8
   9   4  -3 3259.59 485.299   8
   9   4  -2 235.056 152.852   8
   9   4  -1 4110.03 527.632   8
   9   4   0 929.007 272.358   8
   9   4   1 471.910 193.388   8
   9   4   2 2017.96 319.687   8
   9   4   3 649.451 192.474   8
   9   5  -6 4746.73 365.961   8
   9   5  -5 465.002 139.745   8
  -9  -5   5 640.268 156.080   7
   9   5  -4 1959.06 273.886   8
  -9  -5   4 1306.63 229.182   7
   9   5  -3 775.978 184.293   8
  -9  -5   3 578.264 172.438   7
   9   5  -2 232.514 129.729   8
   9   5  -1 429.241 157.924   8
   9   5   0 1694.55 232.203   8
 -10   0  13-121.982 147.123   1
 -10   0  12 348.734 201.530   1
 -10   0  11 25096.9 1140.75   1
 -10   0  10 5066.64 582.583   1
 -10   0   9 13.4104 160.186   1
 -10   0   8 15527.0 1046.18   1
 -10   0   7 9374.66 813.551   1
 -10   0   6 4421.46 582.102   1
 -10   0   5 7642.62 787.616   1
 -10   0   4 26144.6 1422.30   1
 -10   0   3 680.322 322.530   1
 -10   0   2 2473.84 514.725   1
 -10   0   1 412.842 326.231   1
 -10   0   0 12064.6 1018.29   1
 -10   0  -1 11537.1 965.623   1
 -10   0  -2 7659.32 788.349   1
 -10   0  -3 22.7031 230.246   1
 -10   0  -4 2645.13 451.490   1
 -10   0  -5 2149.69 368.766   1
 -10   0  -6 9708.16 600.994   1
 -10  -1  13 4310.34 412.866   1
 -10  -1  12 4588.86 482.352   1
 -10  -1  11 5739.38 565.166   1
 -10  -1  10 5523.47 616.915   1
 -10  -1   9 315.656 281.821   1
 -10  -1   8 1130.57 379.034   1
 -10  -1   7 4092.61 593.258   1
 -10   1   6 7086.29 714.631   1
 -10  -1   6 6498.72 737.650   1
 -10   1   5 8427.84 752.892   1
 -10  -1   5 8895.21 852.740   1
 -10   1   4 3759.30 551.421   1
 -10  -1   4 4075.70 643.709   1
 -10   1   3 6004.81 696.448   1
 -10  -1   3 6494.47 756.624   1
 -10  -1   2 3735.64 640.173   1
 -10   1   2 3598.59 568.958   1
 -10   1   1 17246.3 1107.20   1
 -10  -1   1 17852.3 1224.19   1
 -10  -1   0 8467.38 837.584   1
 -10   1   0 8802.13 809.153   1
 -10  -1  -1 917.824 326.311   1
 -10   1  -1 911.758 324.339   1
 -10  -1  -2 1071.58 325.419   1
 -10   1  -2 645.459 308.596   1
 -10  -1  -3 816.124 313.562   1
 -10   1  -3 581.154 198.859   1
 -10  -1  -4 71.4662 195.440   1
 -10   1  -4 13.8942 172.844   1
 -10  -1  -5 693.790 241.090   1
 -10   1  -5 669.438 208.546   1
 -10  -1  -6 6625.89 486.773   1
 -10   1  -6 5936.83 412.436   1
 -10  -2  13 4519.25 385.597   1
 -10  -2  12 564.528 183.514   1
 -10  -2  11 3429.75 454.989   1
 -10  -2  10 4600.26 544.721   1
 -10  -2   9 6863.78 660.183   1
 -10  -2   8 5680.22 618.607   1
 -10  -2   7 2120.59 430.840   1
 -10  -2   6 753.261 274.833   1
  10   2  -5 1260.17 325.152   8
 -10  -2   5 1964.20 390.109   1
  10   2  -4 4407.73 569.460   8
 -10  -2   4 4302.78 579.781   1
 -10  -2   3 306.101 224.227   1
 -10  -2   2 7277.61 769.748   1
 -10  -2   1 7976.44 783.972   1
 -10  -2   0 1537.17 392.242   1
 -10  -2  -1 2887.65 484.374   1
 -10  -2  -2 997.181 287.102   1
 -10  -2  -3 3217.51 469.961   1
 -10  -2  -4 1899.59 337.603   1
  10   2   4 2308.89 346.563   8
  10   2   5 1843.83 239.073   8
 -10  -2  -5 1712.81 264.914   1
 -10  -3  12 4592.91 341.112   1
 -10  -3  11 3507.20 354.351   1
 -10  -3  10 750.621 227.293   1
 -10  -3   9 4376.00 464.811   1
 -10  -3   8 735.384 245.711   1
 -10  -3   7 5379.14 545.964   1
  10   3  -6 167.446 75.8117   8
 -10  -3   6-19.0246 108.471   1
  10   3  -5 350.432 155.614   8
 -10  -3   5 543.808 243.188   1
 -10  -3   4 8251.63 725.809   1
  10   3  -4 7554.86 713.803   8
 -10  -3   3 3599.82 475.022   1
  10   3  -3 4095.00 545.691   8
  10   3  -2 8888.97 800.239   8
 -10  -3   2 9060.44 741.507   1
  10   3  -1 41941.7 1689.28   8
 -10  -3   1 40220.7 1508.70   1
 -10  -3   0 830.079 249.838   1
  10   3   0 741.018 260.765   8
  10   3   1 3128.95 454.502   8
 -10  -3  -1 2906.45 396.556   1
  10   3   2 3224.18 426.399   8
 -10  -3  -2 3132.99 376.250   1
  10   3   3 6436.44 507.871   8
 -10  -3  -3 4921.89 407.515   1
  10   4  -6 1427.35 254.140   8
  10   4  -5 168.070 143.424   8
  10   4  -4-111.418 148.612   8
  10   4  -3 627.614 187.790   8
  10   4  -2 2522.15 382.246   8
  10   4  -1 2311.54 365.103   8
  10   4   0 396.958 173.333   8
  10   4   1 270.834 133.193   8
  10   4   2 885.358 163.639   8
 -11   0  12 2577.79 303.550   1
 -11   0  11 32321.1 1121.53   1
 -11   0  10 1899.32 340.483   1
 -11   0   9 1597.06 325.399   1
 -11   0   8 6518.61 647.767   1
 -11   0   7 10827.0 846.810   1
 -11   0   6 255.971 163.002   1
 -11   0   5 3698.45 560.683   1
 -11   0   4 2126.16 451.442   1
 -11   0   3 1853.79 402.150   1
 -11   0   2 160.227 177.841   1
 -11   0   1 1498.20 366.533   1
 -11   0   0 11838.9 917.701   1
 -11   0  -1 1003.55 329.668   1
 -11   0  -2 452.938 193.883   1
 -11   0  -3 560.818 219.034   1
 -11   0  -4 666.728 192.719   1
 -11   0  -5 547.188 146.465   1
 -11  -1  13 2657.05 258.943   1
 -11  -1  12 1846.54 273.196   1
 -11  -1  11 15042.5 814.416   1
 -11  -1  10 4718.66 509.741   1
 -11  -1   9 1162.73 317.505   1
 -11  -1   8 0.66038 189.478   1
 -11  -1   7-254.974 189.095   1
 -11  -1   6 161.274 219.814   1
 -11  -1   5 1577.48 391.578   1
 -11   1   5 1424.37 351.243   1
 -11   1   4 2107.41 408.072   1
 -11  -1   4 2178.14 445.330   1
 -11   1   3 2294.51 422.481   1
 -11  -1   3 2689.36 476.017   1
 -11   1   2 2253.30 444.405   1
 -11  -1   2 2003.49 457.233   1
 -11   1   1 1226.26 330.431   1
 -11  -1   1 1539.54 377.851   1
 -11   1   0 12558.8 829.564   1
 -11  -1   0 12305.0 933.546   1
 -11   1  -1 1704.95 308.004   1
 -11  -1  -1 1672.31 362.963   1
 -11   1  -2 747.880 244.508   1
 -11  -1  -2 1133.35 317.430   1
 -11   1  -3 1548.78 271.611   1
 -11  -1  -3 1460.66 322.262   1
 -11  -1  -4 2254.17 317.886   1
 -11   1  -4 1895.53 240.136   1
 -11  -2  12 2837.20 313.859   1
 -11  -2  11 0.79053 127.754   1
 -11  -2  10 2221.47 332.176   1
 -11  -2   9 259.920 205.865   1
 -11  -2   8 1964.99 369.060   1
 -11  -2   7 2632.16 417.608   1
 -11  -2   6 792.877 266.485   1
  11   2  -5 2157.45 357.949   8
 -11  -2   5 2085.63 412.207   1
 -11  -2   4 1653.34 371.470   1
  11   2  -4 806.841 288.482   8
  11   2  -3 3793.53 522.515   8
 -11  -2   3 5657.22 640.489   1
 -11  -2   2 573.632 296.816   1
  11   2  -2 404.895 206.357   8
 -11  -2   1 11550.1 851.595   1
 -11  -2   0 1306.90 311.259   1
  11   2   1 5088.60 550.053   8
 -11  -2  -1 4589.33 519.684   1
 -11  -2  -2 976.655 267.313   1
  11   2   2 857.938 244.398   8
 -11  -2  -3 277.206 140.956   1
  11   2   3 398.778 175.471   8
 -11  -3  11 252.680 89.3476   1
 -11  -3  10 6224.51 414.169   1
 -11  -3   9 1156.39 235.320   1
 -11  -3   8 2363.11 325.700   1
 -11  -3   7 5311.56 495.298   1
 -11  -3   6 1704.91 304.589   1
  11   3  -6 1610.62 253.308   8
 -11  -3   5 3296.61 407.729   1
  11   3  -5 2691.56 392.367   8
 -11  -3   4 11513.1 736.243   1
  11   3  -4 11113.2 768.825   8
 -11  -3   3 6350.88 547.001   1
  11   3  -3 6212.25 596.462   8
 -11  -3   2 3832.32 445.569   1
  11   3  -2 4313.63 490.967   8
  11   3  -1 280.418 152.883   8
 -11  -3   1 401.008 184.646   1
  11   3   0 290.762 163.420   8
 -11  -3   0 67.2699 151.729   1
  11   3   1 37.5725 132.227   8
 -11  -3  -1 327.653 152.088   1
  11   3   2 1273.95 218.696   8
  11   4  -5 61.1718 65.9587   8
  11   4  -4 3536.00 336.675   8
  11   4  -3 5298.60 431.487   8
  11   4  -2 165.888 96.2201   8
  11   4  -1 4293.41 361.135   8
 -12   0  11 278.997 112.082   1
 -12   0  10 18299.1 762.756   1
 -12   0   9 3820.58 425.738   1
 -12   0   8 748.945 272.928   1
 -12   0   7 3559.11 440.707   1
 -12   0   6-46.6001 202.954   1
 -12   0   5 877.782 277.421   1
 -12   0   4 3500.98 481.721   1
 -12   0   3 249.079 170.440   1
 -12   0   2 642.437 263.173   1
 -12   0   1 715.018 264.824   1
 -12   0   0 2080.68 318.215   1
 -12   0  -1 1408.46 275.619   1
 -12   0  -2-168.279 140.684   1
 -12  -1  11 4725.19 382.819   1
 -12  -1  10-29.2534 154.743   1
 -12  -1   9 924.622 238.103   1
 -12  -1   8 230.592 158.737   1
 -12  -1   7 193.547 183.442   1
 -12  -1   6 5171.83 561.848   1
 -12  -1   5 731.252 284.639   1
  12   1  -4 704.483 226.807   8
 -12  -1   4 714.602 264.358   1
 -12  -1   3 2160.65 363.630   1
 -12   1   3 2175.19 353.139   1
 -12   1   2 8190.15 579.681   1
 -12  -1   2 9060.20 730.841   1
 -12   1   1 2440.25 356.442   1
 -12  -1   1 3769.35 477.373   1
 -12   1   0 1477.18 270.155   1
 -12  -1   0 1777.08 330.697   1
 -12   1  -1 212.759 156.334   1
 -12  -1  -1 506.640 205.109   1
 -12  -1  -2 183.130 155.615   1
 -12  -2  11 1306.71 199.357   1
 -12  -2  10 3896.22 352.225   1
 -12  -2   9 1961.49 289.548   1
 -12  -2   8 172.316 167.602   1
 -12  -2   7 490.472 198.607   1
 -12  -2   6 421.319 204.465   1
  12   2  -5 364.295 149.139   8
 -12  -2   5 275.810 181.289   1
  12   2  -4 693.521 230.227   8
 -12  -2   4 619.007 222.397   1
 -12  -2   3 4584.13 469.756   1
  12   2  -3 4628.27 472.907   8
 -12  -2   2 18084.3 914.453   1
  12   2  -2 19885.0 978.803   8
 -12  -2   1 1816.21 303.854   1
  12   2  -1 1568.82 282.644   8
  12   2   0 5564.85 475.346   8
 -12  -2   0 5600.42 456.601   1
 -12  -2  -1 852.868 181.114   1
  12   2   1 855.936 206.928   8
 -12  -3   8 2746.66 264.024   1
 -12  -3   7 5709.36 408.260   1
 -12  -3   6-98.7330 116.949   1
 -12  -3   5 2509.09 307.637   1
  12   3  -5 2077.21 241.483   8
 -12  -3   4 8885.31 513.195   1
  12   3  -4 8838.76 529.265   8
 -12  -3   3 4455.41 365.963   1
  12   3  -3 4701.98 414.348   8
  12   3  -2 368.910 118.539   8
 -12  -3   2 629.690 148.972   1
  12   3  -1 1892.58 254.407   8
 -13   0   8 792.597 180.924   1
 -13   0   7 949.315 219.584   1
 -13   0   6 54.0685 154.868   1
 -13   0   5 2985.80 331.008   1
 -13   0   4 5056.46 422.907   1
 -13   0   3 4050.70 384.230   1
 -13   0   2 118.679 131.469   1
 -13   0   1 5098.71 393.312   1
 -13  -1   9 616.433 153.226   1
 -13  -1   8 833.776 201.719   1
 -13  -1   7 2611.73 318.966   1
 -13  -1   6 1133.84 253.630   1
 -13  -1   5 2873.51 345.095   1
  13   1  -4 66.8743 88.3084   8
 -13  -1   4 99.7686 152.922   1
 -13  -1   3 2064.18 294.074   1
  13   1  -3 2594.24 298.453   8
 -13  -1   2 9234.37 555.877   1
  13   1  -2 10076.4 575.404   8
  13   1  -1 1064.02 200.764   8
 -13  -1   1 1126.20 200.052   1
 -13  -1   0 2103.33 240.425   1
  13   1   0 2381.99 253.369   8
 -13  -2   8 5657.22 380.451   1
 -13  -2   7 2320.98 265.558   1
 -13  -2   6 456.756 165.851   1
 -13  -2   5 983.567 195.754   1
 -13  -2   4 316.282 147.304   1
  13   2  -3 46.2272 86.6577   8
 -13  -2   3 248.092 102.646   1
 -13  -2   2 10145.6 490.581   1
   0   0   0    0.00    0.00   0
TITL ming9CuLT in P2(1)/m
REM P2(1)/m (#11 in standard setting)
CELL 1.54184  11.109841   5.715903  13.055282  90.0000 109.3876  90.0000
ZERR    3.00   0.000452   0.000231   0.000522   0.0000   0.0045   0.0000
LATT  1
SYMM -x, y+1/2,-z
SFAC C H N O
UNIT 33.00 30.00 3.00 3.00
TREF
HKLF 4
END
;
_shelx_hkl_checksum              39292
_shelx_shelxl_version_number     2014/7
_olex2_date_sample_data_collection 2015-06-24
_olex2_submission_special_instructions 'No special instructions were received'
loop_
_space_group_symop_operation_xyz
'x, y, z'
'-x, y+1/2, -z'
loop_
_atom_site_label
_atom_site_type_symbol
_atom_site_fract_x
_atom_site_fract_y
_atom_site_fract_z
_atom_site_U_iso_or_equiv
_atom_site_adp_type
_atom_site_occupancy
_atom_site_site_symmetry_order
_atom_site_calc_flag
_atom_site_refinement_flags_posn
O1 O 0.31271(19) 0.7990(4) 0.62818(15) 0.0281(5) Uani 1 1 d .
H1 H 0.2982 0.7549 0.5638 0.042 Uiso 1 1 calc GR
N1 N 0.3256(2) 0.5198(4) 0.47372(17) 0.0224(5) Uani 1 1 d .
N2 N 0.3124(2) 0.4572(5) 0.36583(17) 0.0228(5) Uani 1 1 d .
C1 C 0.4230(3) 0.4280(5) 0.6607(2) 0.0223(6) Uani 1 1 d .
C2 C 0.3782(3) 0.6316(6) 0.6967(2) 0.0238(6) Uani 1 1 d .
C3 C 0.4026(3) 0.6638(6) 0.8082(2) 0.0273(7) Uani 1 1 d .
H3 H 0.3720 0.7998 0.8334 0.033 Uiso 1 1 calc R
C4 C 0.4708(3) 0.4986(6) 0.8810(2) 0.0312(8) Uani 1 1 d .
H4 H 0.4861 0.5216 0.9563 0.037 Uiso 1 1 calc R
C5 C 0.5177(3) 0.2988(6) 0.8468(2) 0.0288(7) Uani 1 1 d .
H5 H 0.5660 0.1876 0.8982 0.035 Uiso 1 1 calc R
C6 C 0.4929(3) 0.2642(6) 0.7367(2) 0.0245(6) Uani 1 1 d .
H6 H 0.5239 0.1273 0.7125 0.029 Uiso 1 1 calc R
C7 C 0.3985(3) 0.3829(5) 0.5454(2) 0.0225(6) Uani 1 1 d .
H7 H 0.4366 0.2519 0.5235 0.027 Uiso 1 1 calc R
C10 C 0.2167(3) 0.5577(5) 0.2945(2) 0.0207(6) Uani 1 1 d .
C11 C 0.1249(3) 0.7161(5) 0.3228(2) 0.0229(6) Uani 1 1 d .
C12 C 0.0000(3) 0.6407(6) 0.3045(2) 0.0256(6) Uani 1 1 d .
H12 H -0.0280 0.4942 0.2705 0.031 Uiso 1 1 calc R
C13 C -0.0835(3) 0.7827(6) 0.3366(2) 0.0298(7) Uani 1 1 d .
H13 H -0.1684 0.7320 0.3251 0.036 Uiso 1 1 calc R
C14 C -0.0431(3) 0.9958(6) 0.3848(2) 0.0310(7) Uani 1 1 d .
H14 H -0.0999 1.0906 0.4073 0.037 Uiso 1 1 calc R
C15 C 0.0802(3) 1.0728(6) 0.4007(2) 0.0301(7) Uani 1 1 d .
H15 H 0.1072 1.2213 0.4328 0.036 Uiso 1 1 calc R
C16 C 0.1640(3) 0.9325(6) 0.3695(2) 0.0253(7) Uani 1 1 d .
H16 H 0.2484 0.9852 0.3803 0.030 Uiso 1 1 calc R
C21 C 0.1976(2) 0.5151(5) 0.1781(2) 0.0225(6) Uani 1 1 d .
C22 C 0.2502(3) 0.3193(6) 0.1445(2) 0.0260(6) Uani 1 1 d .
H22 H 0.2958 0.2061 0.1961 0.031 Uiso 1 1 calc R
C23 C 0.2354(3) 0.2913(6) 0.0352(2) 0.0317(7) Uani 1 1 d .
H23 H 0.2698 0.1571 0.0120 0.038 Uiso 1 1 calc R
C24 C 0.1708(3) 0.4581(6) -0.0403(2) 0.0312(8) Uani 1 1 d .
H24 H 0.1626 0.4394 -0.1146 0.037 Uiso 1 1 calc R
C25 C 0.1183(3) 0.6514(6) -0.0075(2) 0.0303(7) Uani 1 1 d .
H25 H 0.0734 0.7652 -0.0591 0.036 Uiso 1 1 calc R
C26 C 0.1315(3) 0.6781(6) 0.1018(2) 0.0260(7) Uani 1 1 d .
H26 H 0.0947 0.8102 0.1243 0.031 Uiso 1 1 calc R
loop_
_atom_site_aniso_label
_atom_site_aniso_U_11
_atom_site_aniso_U_22
_atom_site_aniso_U_33
_atom_site_aniso_U_23
_atom_site_aniso_U_13
_atom_site_aniso_U_12
O1 0.0307(11) 0.0268(11) 0.0246(10) -0.0004(9) 0.0064(9) 0.0030(10)
N1 0.0254(12) 0.0249(14) 0.0168(10) 0.0007(10) 0.0069(9) 0.0005(11)
N2 0.0259(12) 0.0254(14) 0.0178(11) -0.0003(10) 0.0080(9) 0.0007(11)
C1 0.0208(13) 0.0281(17) 0.0186(13) -0.0006(12) 0.0075(11) -0.0037(13)
C2 0.0213(13) 0.0278(16) 0.0220(13) -0.0019(12) 0.0068(11) -0.0033(13)
C3 0.0273(15) 0.0327(19) 0.0232(14) -0.0071(13) 0.0104(12) -0.0038(14)
C4 0.0337(16) 0.043(2) 0.0189(13) -0.0021(14) 0.0118(12) -0.0040(16)
C5 0.0286(15) 0.0366(19) 0.0215(14) 0.0066(14) 0.0087(12) 0.0009(15)
C6 0.0211(14) 0.0312(18) 0.0221(13) 0.0017(13) 0.0082(11) -0.0005(13)
C7 0.0223(14) 0.0261(16) 0.0201(14) -0.0011(11) 0.0084(12) -0.0010(12)
C10 0.0232(14) 0.0212(15) 0.0183(12) 0.0025(11) 0.0075(11) -0.0024(12)
C11 0.0256(14) 0.0276(16) 0.0147(11) 0.0045(11) 0.0054(11) 0.0018(12)
C12 0.0279(15) 0.0285(16) 0.0184(12) 0.0027(12) 0.0048(11) -0.0011(13)
C13 0.0250(15) 0.0424(19) 0.0223(14) 0.0078(14) 0.0084(12) 0.0037(15)
C14 0.0322(16) 0.040(2) 0.0233(13) 0.0043(14) 0.0127(12) 0.0117(15)
C15 0.0387(17) 0.0276(17) 0.0240(14) 0.0033(13) 0.0103(13) 0.0064(14)
C16 0.0272(15) 0.0282(17) 0.0216(13) 0.0042(12) 0.0094(11) 0.0031(13)
C21 0.0197(13) 0.0279(18) 0.0193(13) -0.0024(12) 0.0058(11) -0.0042(12)
C22 0.0254(14) 0.0288(17) 0.0225(13) -0.0006(13) 0.0062(12) 0.0016(14)
C23 0.0312(16) 0.037(2) 0.0280(15) -0.0142(15) 0.0120(13) -0.0058(16)
C24 0.0281(15) 0.045(2) 0.0185(13) -0.0060(14) 0.0053(11) -0.0100(16)
C25 0.0319(16) 0.0369(19) 0.0192(13) 0.0009(13) 0.0045(12) -0.0044(15)
C26 0.0231(14) 0.0333(19) 0.0199(13) -0.0001(13) 0.0049(11) -0.0013(14)
loop_
_atom_type_symbol
_atom_type_description
_atom_type_scat_dispersion_real
_atom_type_scat_dispersion_imag
_atom_type_scat_source
C C 0.0181 0.0091 'International Tables Vol C Tables 4.2.6.8 and 6.1.1.4'
H H 0.0000 0.0000 'International Tables Vol C Tables 4.2.6.8 and 6.1.1.4'
N N 0.0311 0.0180 'International Tables Vol C Tables 4.2.6.8 and 6.1.1.4'
O O 0.0492 0.0322 'International Tables Vol C Tables 4.2.6.8 and 6.1.1.4'
loop_
_geom_angle_atom_site_label_1
_geom_angle_atom_site_label_2
_geom_angle_atom_site_label_3
_geom_angle
C7 N1 N2 113.9(2)
C10 N2 N1 113.2(2)
C2 C1 C7 121.6(3)
C6 C1 C2 119.5(2)
C6 C1 C7 118.9(3)
O1 C2 C1 122.7(2)
O1 C2 C3 118.2(3)
C3 C2 C1 119.2(3)
C4 C3 C2 120.0(3)
C3 C4 C5 121.5(3)
C6 C5 C4 119.0(3)
C5 C6 C1 120.9(3)
N1 C7 C1 120.1(3)
N2 C10 C11 123.7(2)
N2 C10 C21 118.0(2)
C21 C10 C11 118.3(2)
C12 C11 C10 119.3(3)
C16 C11 C10 120.6(3)
C16 C11 C12 120.0(3)
C11 C12 C13 119.3(3)
C14 C13 C12 120.2(3)
C13 C14 C15 120.3(3)
C14 C15 C16 119.9(3)
C11 C16 C15 120.2(3)
C22 C21 C10 121.3(3)
C26 C21 C10 119.2(3)
C26 C21 C22 119.4(3)
C23 C22 C21 119.7(3)
C24 C23 C22 120.4(3)
C25 C24 C23 120.1(3)
C24 C25 C26 119.6(3)
C21 C26 C25 120.9(3)
loop_
_geom_bond_atom_site_label_1
_geom_bond_atom_site_label_2
_geom_bond_distance
O1 C2 1.346(4)
N1 N2 1.413(3)
N1 C7 1.281(4)
N2 C10 1.293(4)
C1 C2 1.406(4)
C1 C6 1.397(4)
C1 C7 1.462(3)
C2 C3 1.402(4)
C3 C4 1.375(5)
C4 C5 1.389(5)
C5 C6 1.386(4)
C10 C11 1.499(4)
C10 C21 1.483(3)
C11 C12 1.396(4)
C11 C16 1.384(4)
C12 C13 1.397(4)
C13 C14 1.376(5)
C14 C15 1.387(4)
C15 C16 1.388(4)
C21 C22 1.399(4)
C21 C26 1.383(4)
C22 C23 1.391(4)
C23 C24 1.388(5)
C24 C25 1.382(5)
C25 C26 1.393(4)
loop_
_geom_hbond_atom_site_label_D
_geom_hbond_atom_site_label_H
_geom_hbond_atom_site_label_A
_geom_hbond_distance_DH
_geom_hbond_distance_HA
_geom_hbond_distance_DA
_geom_hbond_angle_DHA
O1 H1 N1 0.84 1.88 2.613(3) 145.6
loop_
_geom_torsion_atom_site_label_1
_geom_torsion_atom_site_label_2
_geom_torsion_atom_site_label_3
_geom_torsion_atom_site_label_4
_geom_torsion
O1 C2 C3 C4 -179.1(3)
N1 N2 C10 C11 -2.6(4)
N1 N2 C10 C21 176.8(2)
N2 N1 C7 C1 178.9(2)
N2 C10 C11 C12 -110.0(3)
N2 C10 C11 C16 68.2(4)
N2 C10 C21 C22 21.2(4)
N2 C10 C21 C26 -155.6(3)
C1 C2 C3 C4 0.7(4)
C2 C1 C6 C5 0.6(4)
C2 C1 C7 N1 -6.1(4)
C2 C3 C4 C5 0.5(5)
C3 C4 C5 C6 -1.2(5)
C4 C5 C6 C1 0.6(5)
C6 C1 C2 O1 178.5(3)
C6 C1 C2 C3 -1.3(4)
C6 C1 C7 N1 174.0(3)
C7 N1 N2 C10 164.0(3)
C7 C1 C2 O1 -1.4(4)
C7 C1 C2 C3 178.8(3)
C7 C1 C6 C5 -179.5(3)
C10 C11 C12 C13 176.4(2)
C10 C11 C16 C15 -176.6(2)
C10 C21 C22 C23 -176.9(3)
C10 C21 C26 C25 176.1(3)
C11 C10 C21 C22 -159.3(3)
C11 C10 C21 C26 23.9(4)
C11 C12 C13 C14 0.6(4)
C12 C11 C16 C15 1.6(4)
C12 C13 C14 C15 0.8(4)
C13 C14 C15 C16 -1.1(4)
C14 C15 C16 C11 -0.1(4)
C16 C11 C12 C13 -1.8(4)
C21 C10 C11 C12 70.6(3)
C21 C10 C11 C16 -111.2(3)
C21 C22 C23 C24 1.1(5)
C22 C21 C26 C25 -0.8(4)
C22 C23 C24 C25 -1.3(5)
C23 C24 C25 C26 0.5(5)
C24 C25 C26 C21 0.6(4)
C26 C21 C22 C23 0.0(4)
