#------------------------------------------------------------------------------
#$Date: 2019-11-10 19:56:46 +0200 (Sun, 10 Nov 2019) $
#$Revision: 226106 $
#$URL: file:///home/coder/svn-repositories/cod/cif/4/51/60/4516093.cif $
#------------------------------------------------------------------------------
#
# This file is available in the Crystallography Open Database (COD),
# http://www.crystallography.net/
#
# All data on this site have been placed in the public domain by the
# contributors.
#
data_4516093
loop_
_publ_author_name
'Ghosh, Milan'
'Ta, Sabyasachi'
'Banerjee, Mahuya'
'Das, Debasis'
_publ_section_title
;
 Metal-Ion Displacement Approach for Optical Recognition of Thorium:
 Application of a Molybdenum(VI) Complex for Nanomolar Determination and
 Enrichment of Th(IV).
;
_journal_issue                   11
_journal_name_full               'ACS omega'
_journal_page_first              16089
_journal_page_last               16098
_journal_paper_doi               10.1021/acsomega.8b01901
_journal_volume                  3
_journal_year                    2018
_chemical_formula_moiety         'C22 H30 N4 O2'
_chemical_formula_sum            'C22 H30 N4 O2'
_chemical_formula_weight         382.50
_space_group_crystal_system      triclinic
_space_group_IT_number           2
_space_group_name_Hall           '-P 1'
_space_group_name_H-M_alt        'P -1'
_atom_sites_solution_hydrogens   mixed
_audit_creation_date             2017-06-09
_audit_creation_method
;
Olex2 1.2
(compiled Mar 28 2017 19:26:29 for OlexSys, GUI svn.r5337)
;
_cell_angle_alpha                79.149(3)
_cell_angle_beta                 69.618(3)
_cell_angle_gamma                83.152(3)
_cell_formula_units_Z            1
_cell_length_a                   6.8980(4)
_cell_length_b                   8.2874(5)
_cell_length_c                   9.6802(6)
_cell_measurement_reflns_used    1955
_cell_measurement_temperature    150(2)
_cell_measurement_theta_max      27.128
_cell_measurement_theta_min      2.273
_cell_volume                     508.60(5)
_computing_molecular_graphics    'Olex2 (Dolomanov et al., 2009)'
_computing_publication_material  'Olex2 (Dolomanov et al., 2009)'
_computing_structure_refinement  'ShelXL (Sheldrick, 2015)'
_computing_structure_solution    'SHELXT 2014/5 (Sheldrick, 2014)'
_diffrn_ambient_temperature      150.0
_diffrn_measured_fraction_theta_full 0.992
_diffrn_measured_fraction_theta_max 0.992
_diffrn_measurement_device_type  CCD
_diffrn_measurement_method       'omega and phi scans'
_diffrn_radiation_type           MoK\a
_diffrn_radiation_wavelength     0.71073
_diffrn_reflns_av_R_equivalents  0.0303
_diffrn_reflns_av_unetI/netI     0.0220
_diffrn_reflns_Laue_measured_fraction_full 0.992
_diffrn_reflns_Laue_measured_fraction_max 0.992
_diffrn_reflns_limit_h_max       8
_diffrn_reflns_limit_h_min       -8
_diffrn_reflns_limit_k_max       10
_diffrn_reflns_limit_k_min       -10
_diffrn_reflns_limit_l_max       12
_diffrn_reflns_limit_l_min       -12
_diffrn_reflns_number            9094
_diffrn_reflns_point_group_measured_fraction_full 0.992
_diffrn_reflns_point_group_measured_fraction_max 0.992
_diffrn_reflns_theta_full        25.242
_diffrn_reflns_theta_max         27.128
_diffrn_reflns_theta_min         2.273
_exptl_absorpt_coefficient_mu    0.082
_exptl_crystal_colour            yellow
_exptl_crystal_density_diffrn    1.249
_exptl_crystal_description       block
_exptl_crystal_F_000             206
_exptl_crystal_size_max          0.3
_exptl_crystal_size_mid          0.2
_exptl_crystal_size_min          0.08
_refine_diff_density_max         0.257
_refine_diff_density_min         -0.203
_refine_diff_density_rms         0.036
_refine_ls_extinction_method     none
_refine_ls_goodness_of_fit_ref   1.070
_refine_ls_hydrogen_treatment    mixed
_refine_ls_matrix_type           full
_refine_ls_number_parameters     133
_refine_ls_number_reflns         2235
_refine_ls_number_restraints     0
_refine_ls_restrained_S_all      1.070
_refine_ls_R_factor_all          0.0418
_refine_ls_R_factor_gt           0.0364
_refine_ls_shift/su_max          0.000
_refine_ls_shift/su_mean         0.000
_refine_ls_structure_factor_coef Fsqd
_refine_ls_weighting_details
'w=1/[\s^2^(Fo^2^)+(0.0596P)^2^+0.0811P] where P=(Fo^2^+2Fc^2^)/3'
_refine_ls_weighting_scheme      calc
_refine_ls_wR_factor_gt          0.1023
_refine_ls_wR_factor_ref         0.1062
_reflns_Friedel_coverage         0.000
_reflns_number_gt                1956
_reflns_number_total             2235
_reflns_threshold_expression     'I > 2\s(I)'
_iucr_refine_instructions_details
;
TITL f_a.res in P-1 d=40mm t=10s
 ddvf153.res created by SHELXL-2016/4 at 09:48:28 on 09-Jun-2017
CELL 0.71073 6.898 8.2874 9.6802 79.149 69.618 83.152
ZERR 1 0.0004 0.0005 0.0006 0.003 0.003 0.003
LATT 1
SFAC C H N O
UNIT 22 30 4 2

L.S. 100
PLAN  20
SIZE 0.08 0.2 0.3
TEMP -123.15
BOND
BOND $H
HTAB
fmap 2
acta
REM <olex2.extras>
REM <HklSrc "%./ddvf153.hkl">
REM </olex2.extras>

WGHT    0.059600    0.081100
FVAR       2.60602
O1    4    0.603831    0.260053    0.118613    11.00000    0.02428    0.02667 =
         0.03833   -0.01709   -0.00997   -0.00072
H1    2    0.686953    0.174402    0.079472    11.00000    0.05789
N1    3    0.938438    0.066774    0.029676    11.00000    0.02855    0.01648 =
         0.01872   -0.00434   -0.00447    0.00314
N2    3    0.636934    0.713808    0.346851    11.00000    0.02156    0.02246 =
         0.02804   -0.01133   -0.00966    0.00141
C1    1    0.720501    0.348648    0.161808    11.00000    0.02301    0.01889 =
         0.01903   -0.00369   -0.00604   -0.00313
C2    1    0.623564    0.483399    0.229803    11.00000    0.01906    0.02172 =
         0.02380   -0.00648   -0.00639   -0.00013
AFIX  43
H2    2    0.480486    0.509620    0.245068    11.00000   -1.20000
AFIX   0
C3    1    0.734206    0.582225    0.276694    11.00000    0.02257    0.01784 =
         0.01644   -0.00315   -0.00585   -0.00021
C4    1    0.948654    0.541008    0.249368    11.00000    0.02279    0.02190 =
         0.02116   -0.00442   -0.00983   -0.00163
AFIX  43
H4    2    1.027658    0.606174    0.278478    11.00000   -1.20000
AFIX   0
C5    1    1.042862    0.407153    0.180930    11.00000    0.02103    0.02304 =
         0.01997   -0.00300   -0.00800    0.00120
AFIX  43
H5    2    1.186833    0.382709    0.162947    11.00000   -1.20000
AFIX   0
C6    1    0.933333    0.305384    0.136734    11.00000    0.02362    0.01774 =
         0.01620   -0.00211   -0.00565    0.00050
C7    1    1.036765    0.164609    0.068619    11.00000    0.02517    0.01943 =
         0.01712   -0.00182   -0.00528    0.00182
AFIX  43
H7    2    1.180856    0.142668    0.051690    11.00000   -1.20000
AFIX   0
C8    1    0.754664    0.835738    0.369959    11.00000    0.02513    0.01889 =
         0.02414   -0.00642   -0.00878   -0.00116
AFIX  23
H8A   2    0.678329    0.944482    0.364825    11.00000   -1.20000
H8B   2    0.889664    0.844121    0.288161    11.00000   -1.20000
AFIX   0
C9    1    0.793123    0.794813    0.518548    11.00000    0.03403    0.03507 =
         0.02371   -0.00902   -0.01015   -0.00617
AFIX 137
H9A   2    0.660167    0.789372    0.600310    11.00000   -1.50000
H9B   2    0.872800    0.880406    0.527294    11.00000   -1.50000
H9C   2    0.871174    0.688300    0.523746    11.00000   -1.50000
AFIX   0
C10   1    0.414624    0.752475    0.382290    11.00000    0.02073    0.02405 =
         0.02638   -0.01059   -0.00509    0.00116
AFIX  23
H10A  2    0.363863    0.812436    0.468693    11.00000   -1.20000
H10B  2    0.342591    0.648634    0.411319    11.00000   -1.20000
AFIX   0
C11   1    0.360863    0.856669    0.251502    11.00000    0.02599    0.02872 =
         0.03841   -0.00674   -0.01482    0.00049
AFIX 137
H11A  2    0.434572    0.958420    0.220608    11.00000   -1.50000
H11B  2    0.211223    0.883735    0.281996    11.00000   -1.50000
H11C  2    0.402241    0.794818    0.167846    11.00000   -1.50000
AFIX   0
HKLF 4




REM  f_a.res in P-1 d=40mm t=10s
REM R1 =  0.0364 for    1956 Fo > 4sig(Fo)  and  0.0418 for all    2235 data
REM    133 parameters refined using      0 restraints

END  
     
WGHT      0.0596      0.0811 

REM Instructions for potential hydrogen bonds
HTAB O1 N1

REM Highest difference peak  0.257,  deepest hole -0.203,  1-sigma level  0.036
Q1    1   0.8272  0.3162  0.1604  11.00000  0.05    0.26
Q2    1   0.9741  0.2255  0.1205  11.00000  0.05    0.24
Q3    1   0.6794  0.4141  0.1930  11.00000  0.05    0.23
Q4    1   0.9664  0.3298  0.1794  11.00000  0.05    0.21
Q5    1   1.0000  0.0000  0.0000  10.50000  0.05    0.20
Q6    1   0.6798  0.6458  0.3194  11.00000  0.05    0.20
Q7    1   0.6759  0.5223  0.2590  11.00000  0.05    0.18
Q8    1   0.8309  0.5439  0.2819  11.00000  0.05    0.17
Q9    1   0.8465  0.5779  0.2372  11.00000  0.05    0.17
Q10   1   0.6855  0.7578  0.3645  11.00000  0.05    0.17
Q11   1   0.3946  0.7995  0.3214  11.00000  0.05    0.16
Q12   1   0.5326  0.7295  0.3614  11.00000  0.05    0.15
Q13   1   0.7731  0.8120  0.4428  11.00000  0.05    0.13
Q14   1   0.8206  0.0779  0.0516  11.00000  0.05    0.13
Q15   1   0.9707  0.4504  0.2324  11.00000  0.05    0.13
Q16   1   0.5042  0.5385  0.1788  11.00000  0.05    0.12
Q17   1   0.9909  0.4787  0.1978  11.00000  0.05    0.11
Q18   1   0.5994  0.9428  0.3486  11.00000  0.05    0.11
Q19   1   1.0021  0.1483 -0.0012  11.00000  0.05    0.11
Q20   1   0.9841  0.0918  0.0744  11.00000  0.05    0.10

  REM The information below was added by Olex2.
  REM
  REM R1 = 0.0364 for 1956 Fo > 4sig(Fo) and 0.0418 for all 9094 data
  REM n/a parameters refined using n/a restraints
  REM Highest difference peak 0.26, deepest hole -0.20
  REM Mean Shift 0, Max Shift 0.000.

  REM +++ Tabular Listing of Refinement Information +++
  REM R1_all = 0.0418
  REM R1_gt = 0.0364
  REM wR_ref = 0.1062
  REM GOOF = 1.070
  REM Shift_max = 0.000
  REM Shift_mean = 0
  REM Reflections_all = 9094
  REM Reflections_gt = 1956
  REM Parameters = n/a
  REM Hole = -0.20
  REM Peak = 0.26
  REM Flack = n/a

  
;
_cod_data_source_file            ao8b01901_si_002.cif
_cod_data_source_block           L
_cod_database_code               4516093
_shelx_shelxl_version_number     2016/4
_shelx_space_group_comment
;
The symmetry employed for this shelxl refinement is uniquely defined
by the following loop, which should always be used as a source of
symmetry information in preference to the above space-group names.
They are only intended as comments.
;
_shelx_estimated_absorpt_t_max   0.994
_shelx_estimated_absorpt_t_min   0.976
_olex2_refinement_description
;
1. Fixed Uiso
 At 1.2 times of:
  All C(H) groups, All C(H,H) groups
 At 1.5 times of:
  All C(H,H,H) groups
2.a Secondary CH2 refined with riding coordinates:
 C8(H8A,H8B), C10(H10A,H10B)
2.b Aromatic/amide H refined with riding coordinates:
 C2(H2), C4(H4), C5(H5), C7(H7)
2.c Idealised Me refined as rotating group:
 C9(H9A,H9B,H9C), C11(H11A,H11B,H11C)
;
_olex2_submission_special_instructions 'No special instructions were received'
loop_
_space_group_symop_operation_xyz
'x, y, z'
'-x, -y, -z'
loop_
_atom_site_label
_atom_site_type_symbol
_atom_site_fract_x
_atom_site_fract_y
_atom_site_fract_z
_atom_site_U_iso_or_equiv
_atom_site_adp_type
_atom_site_occupancy
_atom_site_site_symmetry_order
_atom_site_calc_flag
_atom_site_refinement_flags_posn
O1 O 0.60383(11) 0.26005(9) 0.11861(8) 0.0283(2) Uani 1 1 d .
H1 H 0.687(2) 0.174(2) 0.0795(18) 0.058(4) Uiso 1 1 d .
N1 N 0.93844(12) 0.06677(9) 0.02968(8) 0.0223(2) Uani 1 1 d .
N2 N 0.63693(12) 0.71381(10) 0.34685(9) 0.0229(2) Uani 1 1 d .
C1 C 0.72050(14) 0.34865(11) 0.16181(10) 0.0203(2) Uani 1 1 d .
C2 C 0.62356(14) 0.48340(11) 0.22980(10) 0.0214(2) Uani 1 1 d .
H2 H 0.480486 0.509620 0.245068 0.026 Uiso 1 1 calc R
C3 C 0.73421(14) 0.58222(11) 0.27669(9) 0.0191(2) Uani 1 1 d .
C4 C 0.94865(14) 0.54101(11) 0.24937(10) 0.0211(2) Uani 1 1 d .
H4 H 1.027658 0.606174 0.278478 0.025 Uiso 1 1 calc R
C5 C 1.04286(14) 0.40715(11) 0.18093(10) 0.0213(2) Uani 1 1 d .
H5 H 1.186833 0.382709 0.162947 0.026 Uiso 1 1 calc R
C6 C 0.93333(14) 0.30538(11) 0.13673(10) 0.0197(2) Uani 1 1 d .
C7 C 1.03676(14) 0.16461(11) 0.06862(10) 0.0215(2) Uani 1 1 d .
H7 H 1.180856 0.142668 0.051690 0.026 Uiso 1 1 calc R
C8 C 0.75466(14) 0.83574(11) 0.36996(10) 0.0222(2) Uani 1 1 d .
H8A H 0.678329 0.944482 0.364825 0.027 Uiso 1 1 calc R
H8B H 0.889664 0.844121 0.288161 0.027 Uiso 1 1 calc R
C9 C 0.79312(16) 0.79481(13) 0.51855(11) 0.0298(2) Uani 1 1 d .
H9A H 0.660167 0.789372 0.600310 0.045 Uiso 1 1 calc GR
H9B H 0.872800 0.880406 0.527294 0.045 Uiso 1 1 calc GR
H9C H 0.871174 0.688300 0.523746 0.045 Uiso 1 1 calc GR
C10 C 0.41462(14) 0.75247(12) 0.38229(10) 0.0238(2) Uani 1 1 d .
H10A H 0.363863 0.812436 0.468693 0.029 Uiso 1 1 calc R
H10B H 0.342591 0.648634 0.411319 0.029 Uiso 1 1 calc R
C11 C 0.36086(15) 0.85667(13) 0.25150(12) 0.0299(2) Uani 1 1 d .
H11A H 0.434572 0.958420 0.220608 0.045 Uiso 1 1 calc GR
H11B H 0.211223 0.883735 0.281996 0.045 Uiso 1 1 calc GR
H11C H 0.402241 0.794818 0.167846 0.045 Uiso 1 1 calc GR
loop_
_atom_site_aniso_label
_atom_site_aniso_U_11
_atom_site_aniso_U_22
_atom_site_aniso_U_33
_atom_site_aniso_U_23
_atom_site_aniso_U_13
_atom_site_aniso_U_12
O1 0.0243(4) 0.0267(4) 0.0383(4) -0.0171(3) -0.0100(3) -0.0007(3)
N1 0.0286(4) 0.0165(4) 0.0187(4) -0.0043(3) -0.0045(3) 0.0031(3)
N2 0.0216(4) 0.0225(4) 0.0280(4) -0.0113(3) -0.0097(3) 0.0014(3)
C1 0.0230(5) 0.0189(4) 0.0190(4) -0.0037(3) -0.0060(3) -0.0031(3)
C2 0.0191(4) 0.0217(4) 0.0238(5) -0.0065(4) -0.0064(4) -0.0001(3)
C3 0.0226(4) 0.0178(4) 0.0164(4) -0.0032(3) -0.0059(3) -0.0002(3)
C4 0.0228(4) 0.0219(4) 0.0212(4) -0.0044(3) -0.0098(3) -0.0016(3)
C5 0.0210(4) 0.0230(4) 0.0200(4) -0.0030(3) -0.0080(3) 0.0012(3)
C6 0.0236(5) 0.0177(4) 0.0162(4) -0.0021(3) -0.0056(3) 0.0005(3)
C7 0.0252(5) 0.0194(4) 0.0171(4) -0.0018(3) -0.0053(4) 0.0018(4)
C8 0.0251(5) 0.0189(4) 0.0241(5) -0.0064(3) -0.0088(4) -0.0012(3)
C9 0.0340(5) 0.0351(5) 0.0237(5) -0.0090(4) -0.0102(4) -0.0062(4)
C10 0.0207(5) 0.0241(5) 0.0264(5) -0.0106(4) -0.0051(4) 0.0012(3)
C11 0.0260(5) 0.0287(5) 0.0384(6) -0.0067(4) -0.0148(4) 0.0005(4)
loop_
_atom_type_symbol
_atom_type_description
_atom_type_scat_dispersion_real
_atom_type_scat_dispersion_imag
_atom_type_scat_source
C C 0.0033 0.0016 'International Tables Vol C Tables 4.2.6.8 and 6.1.1.4'
H H 0.0000 0.0000 'International Tables Vol C Tables 4.2.6.8 and 6.1.1.4'
N N 0.0061 0.0033 'International Tables Vol C Tables 4.2.6.8 and 6.1.1.4'
O O 0.0106 0.0060 'International Tables Vol C Tables 4.2.6.8 and 6.1.1.4'
loop_
_geom_angle_atom_site_label_1
_geom_angle_atom_site_label_2
_geom_angle_atom_site_label_3
_geom_angle
_geom_angle_site_symmetry_3
C1 O1 H1 107.2(10) .
C7 N1 N1 113.94(10) 2_755
C3 N2 C8 121.47(7) .
C3 N2 C10 121.74(8) .
C10 N2 C8 116.20(7) .
O1 C1 C2 117.53(8) .
O1 C1 C6 121.11(8) .
C2 C1 C6 121.36(8) .
C1 C2 H2 119.5 .
C1 C2 C3 120.97(8) .
C3 C2 H2 119.5 .
N2 C3 C2 120.90(8) .
N2 C3 C4 121.23(8) .
C2 C3 C4 117.87(8) .
C3 C4 H4 119.8 .
C5 C4 C3 120.42(8) .
C5 C4 H4 119.8 .
C4 C5 H5 118.9 .
C4 C5 C6 122.29(8) .
C6 C5 H5 118.9 .
C1 C6 C7 122.44(9) .
C5 C6 C1 117.08(8) .
C5 C6 C7 120.49(8) .
N1 C7 C6 121.73(9) .
N1 C7 H7 119.1 .
C6 C7 H7 119.1 .
N2 C8 H8A 108.9 .
N2 C8 H8B 108.9 .
N2 C8 C9 113.31(8) .
H8A C8 H8B 107.7 .
C9 C8 H8A 108.9 .
C9 C8 H8B 108.9 .
C8 C9 H9A 109.5 .
C8 C9 H9B 109.5 .
C8 C9 H9C 109.5 .
H9A C9 H9B 109.5 .
H9A C9 H9C 109.5 .
H9B C9 H9C 109.5 .
N2 C10 H10A 109.1 .
N2 C10 H10B 109.1 .
N2 C10 C11 112.46(8) .
H10A C10 H10B 107.8 .
C11 C10 H10A 109.1 .
C11 C10 H10B 109.1 .
C10 C11 H11A 109.5 .
C10 C11 H11B 109.5 .
C10 C11 H11C 109.5 .
H11A C11 H11B 109.5 .
H11A C11 H11C 109.5 .
H11B C11 H11C 109.5 .
loop_
_geom_bond_atom_site_label_1
_geom_bond_atom_site_label_2
_geom_bond_distance
_geom_bond_site_symmetry_2
O1 H1 0.911(17) .
O1 C1 1.3611(11) .
N1 N1 1.3971(14) 2_755
N1 C7 1.2976(13) .
N2 C3 1.3739(11) .
N2 C8 1.4622(11) .
N2 C10 1.4594(12) .
C1 C2 1.3855(12) .
C1 C6 1.4149(13) .
C2 H2 0.9500 .
C2 C3 1.4105(12) .
C3 C4 1.4198(13) .
C4 H4 0.9500 .
C4 C5 1.3772(13) .
C5 H5 0.9500 .
C5 C6 1.4065(12) .
C6 C7 1.4382(12) .
C7 H7 0.9500 .
C8 H8A 0.9900 .
C8 H8B 0.9900 .
C8 C9 1.5215(13) .
C9 H9A 0.9800 .
C9 H9B 0.9800 .
C9 H9C 0.9800 .
C10 H10A 0.9900 .
C10 H10B 0.9900 .
C10 C11 1.5248(14) .
C11 H11A 0.9800 .
C11 H11B 0.9800 .
C11 H11C 0.9800 .
loop_
_refln_index_h
_refln_index_k
_refln_index_l
_refln_F_squared_meas
_refln_F_squared_sigma
0 0 -1 918.29 3.87
0 0 1 951.17 3.95
0 0 -3 340.18 4.35
0 0 -3 360.23 4.47
0 0 3 343.28 4.38
0 0 3 362 4.49
0 0 -4 55.44 2.76
0 0 -4 54.85 2.65
0 0 4 58.55 2.79
0 0 4 55.27 2.62
0 0 -5 1.25 1.54
0 0 -5 1.34 1.45
0 0 5 0.97 1.54
0 0 5 1.48 1.48
0 0 -6 0.37 1.93
0 0 -6 1.45 1.74
0 0 6 -0.26 1.82
0 0 6 0.09 1.79
0 0 6 1.99 1.85
0 0 -7 72.43 4.58
0 0 -7 77.12 4.64
0 0 7 67.56 4.49
0 0 7 72.23 4.75
0 0 7 73.65 4.49
0 0 -8 1092.99 13.23
0 0 8 1080.7 13.14
0 0 8 1087.33 13.17
0 0 8 1061.67 12.72
0 0 -9 338.36 9.16
0 0 -9 334.54 8.82
0 0 9 305.33 11.09
0 0 9 318.7 8.9
0 0 9 326.89 8.59
0 0 -10 346.83 10.55
0 0 -10 372.89 10.16
0 0 10 374 10.07
0 0 10 356.42 9.9
0 0 -11 17.15 7.91
0 0 -11 11.81 4.58
0 0 11 12.97 4.44
0 0 11 16.19 5.01
0 -1 11 1.93 4.44
0 -1 11 8.25 5.12
0 1 -11 2.82 7.94
0 1 -11 1.79 4.38
0 -1 10 83.86 7.11
0 -1 10 79.4 6.94
0 1 -10 86.74 8.45
0 1 -10 73.28 7.14
0 -1 9 4.12 3.27
0 -1 9 6.06 3.33
0 -1 9 9.16 3.36
0 1 -9 6.46 3.7
0 1 -9 5.75 3.21
0 -1 8 3.36 2.65
0 -1 8 1.22 2.67
0 -1 8 3.33 2.53
0 1 -8 2.96 2.79
0 1 -8 3.78 2.59
0 -1 7 117.46 5.38
0 -1 7 123.15 5.35
0 -1 7 113.02 5.21
0 1 -7 96.04 8.31
0 1 -7 119.85 5.18
0 -1 6 729.54 9.27
0 -1 6 669.06 8.9
0 -1 6 681.98 9.13
0 1 -6 653.47 8.76
0 1 -6 701.06 9.05
0 -1 5 4.15 1.62
0 -1 5 1.54 1.56
0 1 -5 1.19 1.59
0 1 -5 4.38 1.56
0 -1 4 746.75 7.45
0 -1 4 711.56 7.25
0 1 -4 713.04 7.25
0 1 -4 713.86 7.23
0 -1 1 140.02 1.99
0 -1 1 141.64 2.02
0 1 -1 137.32 1.99
0 1 -1 141.47 1.99
0 -1 0 1865.28 5.69
0 1 0 1704.04 5.04
0 -1 -1 326.27 2.79
0 -1 -1 280.07 2.53
0 1 1 318.36 2.73
0 1 1 319.72 1.56
0 -1 -3 73.11 2.5
0 -1 -3 77.21 2.53
0 1 3 79.11 2.53
0 -1 -4 413.83 5.55
0 -1 -4 411.69 5.55
0 1 4 397.19 5.49
0 1 4 412.09 5.52
0 -1 -5 18.12 2.11
0 -1 -5 18.01 2.05
0 1 5 18.29 2.05
0 1 5 22.76 2.73
0 1 5 21.42 2.39
0 -1 -6 1409.35 12.32
0 -1 -6 1438.2 12.43
0 1 6 1390.8 12.32
0 1 6 1328.22 14.82
0 1 6 1427.76 11.58
0 -1 -7 1394.1 13.51
0 -1 -7 1412.14 13.57
0 1 7 1415.3 13.63
0 1 7 1355.56 13.34
0 1 7 1365.17 12.55
0 -1 -8 91.37 5.69
0 -1 -8 83.55 5.21
0 1 8 86.31 5.35
0 1 8 81.87 5.49
0 1 8 87.99 5.01
0 -1 -9 8.99 3.53
0 -1 -9 11.98 3.24
0 1 9 12.37 3.7
0 1 9 9.02 3.41
0 1 9 14.51 3.41
0 -1 -10 6.34 4.24
0 -1 -10 8.79 3.64
0 1 10 4.72 3.5
0 1 10 -0.09 5.04
0 1 10 7.48 3.81
0 -1 -11 14.54 4.61
0 1 11 18.43 4.67
0 1 11 16.95 4.86
0 -2 10 4.52 3.67
0 -2 10 1.54 4.24
0 2 -10 5.18 5.6
0 2 -10 -2.5 3.73
0 -2 9 0.51 3.44
0 -2 9 3.3 3.53
0 -2 9 -2.13 3.33
0 2 -9 4.27 4.24
0 2 -9 -0.51 3.13
0 -2 8 206.13 7.03
0 -2 8 211.91 7.2
0 -2 8 201.07 6.94
0 2 -8 209.29 7.62
0 2 -8 206.39 6.94
0 -2 7 116.78 5.41
0 -2 7 112.6 5.35
0 -2 7 112.54 5.41
0 2 -7 115.64 8.51
0 2 -7 129.12 5.41
0 -2 6 314.6 6.77
0 -2 6 305.56 6.63
0 -2 6 291.22 6.74
0 2 -6 302.23 6.69
0 2 -6 314.09 6.66
0 -2 5 5128.6 21.88
0 2 -5 5033.81 21.56
0 2 -5 5139.8 21.88
0 -2 3 1082.94 8.22
0 -2 3 1046.56 8.05
0 2 -3 984.37 7.82
0 2 -3 1057.23 8.11
0 -2 2 6053.8 16.64
0 2 -2 5662.84 16.02
0 -2 1 109.67 2.47
0 -2 1 96.49 2.36
0 2 -1 102.58 2.42
0 -2 -2 789.48 6
0 -2 -2 799.58 6.03
0 2 2 758.13 5.89
0 2 2 742.48 5.8
0 2 2 724.65 3.24
0 -2 -3 7.65 1.34
0 -2 -3 5.69 1.14
0 2 3 7.25 1.31
0 2 3 5.77 1.19
0 2 3 7.71 0.94
0 -2 -4 1649.08 10.98
0 -2 -4 1574.09 10.72
0 2 4 1710.9 11.21
0 2 4 1581.75 10.72
0 2 4 1537 8.51
0 -2 -5 536.15 7.23
0 -2 -5 570.06 7.45
0 2 5 547.9 7.31
0 2 5 561.93 7.42
0 2 5 535.92 6.09
0 -2 -6 689.06 9.5
0 -2 -6 723.25 9.19
0 2 6 733.24 9.33
0 2 6 710.79 9.16
0 2 6 734.03 8.05
0 -2 -7 3.73 2.28
0 -2 -7 5.95 2.22
0 2 7 8.48 2.53
0 2 7 8.51 2.45
0 2 7 7.91 2.11
0 -2 -8 91.4 5.63
0 -2 -8 101.05 5.43
0 2 8 99.96 5.35
0 2 8 106.08 5.83
0 2 8 103.72 4.98
0 -2 -9 23.16 3.87
0 -2 -9 28.05 3.76
0 2 9 27.71 3.81
0 2 9 28.59 4.12
0 2 9 29.81 3.81
0 -2 -10 0.48 4.1
0 -2 -10 3.73 3.33
0 2 10 5.21 3.64
0 2 10 4.24 4.18
0 2 10 9.25 3.7
0 -2 -11 21.05 4.61
0 2 11 18.49 4.69
0 2 11 22.79 4.72
0 -3 10 7.57 4.27
0 -3 10 -1.39 4.27
0 3 -10 1.31 6.14
0 3 -10 4.38 4.21
0 -3 9 7.48 5.86
0 -3 9 9.47 3.7
0 3 -9 8.19 4.78
0 3 -9 10.16 3.7
0 -3 8 26.74 3.67
0 -3 8 30.78 4.01
0 -3 8 26.88 3.98
0 3 -8 38.15 4.55
0 3 -8 39.86 4.1
0 -3 7 2938.04 20.51
0 -3 7 2755.67 19.91
0 -3 7 2784.99 20.91
0 3 -7 2871.85 20.48
0 3 -7 2949.65 20.48
0 -3 6 6720.1 28.45
0 -3 6 6141.5 27.2
0 -3 6 6042.22 28.31
0 3 -6 6497.24 27.79
0 3 -6 6416.16 27.74
0 -3 5 198.22 5.41
0 -3 5 193.84 5.35
0 -3 5 185.68 5.46
0 3 -5 195.98 5.49
0 3 -5 195.81 5.32
0 -3 4 2569.16 14.91
0 -3 4 2587.23 14.94
0 3 -4 2561.42 14.79
0 3 -4 2739.85 15.33
0 -3 3 48.16 2.76
0 -3 3 46.77 2.79
0 3 -3 46.17 2.79
0 3 -3 51.83 2.9
0 -3 2 82.01 2.79
0 -3 2 79.65 2.76
0 3 -2 81.05 2.9
0 3 -2 86.71 2.84
0 -3 1 123.18 2.93
0 -3 1 112.74 2.79
0 3 -1 125.28 3.02
0 3 -1 122.15 2.96
0 -3 0 1772.4 9.07
0 -3 0 1741.14 8.99
0 3 0 1826.48 9.19
0 3 0 1713.4 8.88
0 -3 -1 1961.35 9.73
0 -3 -1 1894.81 9.56
0 3 1 2002.88 9.84
0 3 1 1884.54 9.5
0 -3 -2 1346.06 8.7
0 -3 -2 1349.44 8.7
0 3 2 1278.64 8.45
0 -3 -3 1881.81 11.21
0 -3 -3 1889.04 11.24
0 3 3 1869.44 11.21
0 3 3 1834.1 11.04
0 -3 -4 2307.59 13.6
0 -3 -4 2303.01 13.63
0 3 4 2401.55 13.91
0 3 4 2272.25 13.48
0 3 4 2226.68 9.02
0 -3 -5 735.49 8.73
0 -3 -5 710.93 8.53
0 3 5 700.81 8.51
0 3 5 703.62 8.48
0 3 5 698.22 6.29
0 -3 -6 225.62 5.97
0 -3 -6 216.15 5.77
0 3 6 224.08 5.97
0 3 6 204.23 6.66
0 3 6 222.12 4.58
0 -3 -7 4.86 2.56
0 -3 -7 4.58 2.28
0 3 7 4.81 2.45
0 3 7 2.11 2.39
0 3 7 4.47 2.02
0 -3 -8 183.34 6.8
0 -3 -8 180.24 6.6
0 3 8 181.24 6.83
0 3 8 187.27 6.74
0 3 8 186.82 5.58
0 -3 -9 93.73 6.63
0 -3 -9 90.24 5.92
0 3 9 90.01 6.03
0 3 9 95.07 6.88
0 3 9 94.67 5.41
0 -3 -10 -5.26 3.9
0 -3 -10 -1.56 3.27
0 3 10 0.85 3.5
0 3 10 -3.7 4.15
0 3 10 2.33 3.27
0 -3 -11 1.37 4.12
0 3 11 7.65 4.35
0 3 11 2.79 4.12
0 -4 9 1186.75 16.16
0 -4 9 1117.11 16.64
0 4 -9 1117.54 17.1
0 4 -9 1180.69 16.27
0 -4 8 1685.38 17.55
0 -4 8 1677.76 23.44
0 -4 8 1578.56 17.98
0 4 -8 1600.26 17.55
0 4 -8 1719.2 17.72
0 -4 7 435.76 9.13
0 -4 7 418.24 9.02
0 -4 7 410.84 9.27
0 4 -7 418.27 9.47
0 4 -7 442.08 9.13
0 -4 6 236.12 6.71
0 -4 6 229.89 7
0 4 -6 235.46 7.03
0 4 -6 215.8 8.59
0 -4 5 -0.88 2.05
0 -4 5 1.25 2.16
0 -4 5 0.74 2.28
0 4 -5 0.09 2.25
0 4 -5 -0.57 2.08
0 -4 4 62.36 3.87
0 -4 4 65.37 3.98
0 -4 4 63.35 3.81
0 4 -4 55.53 3.93
0 4 -4 63.5 3.81
0 -4 3 86.03 3.73
0 -4 3 87.42 3.64
0 4 -3 90.49 3.76
0 4 -3 94.33 3.73
0 -4 2 321.37 5.23
0 -4 2 319.21 5.26
0 4 -2 307.8 5.18
0 4 -2 348.23 5.41
0 -4 1 245.45 4.41
0 -4 1 246.98 4.41
0 4 -1 258.5 4.58
0 4 -1 238.85 4.44
0 -4 0 94.59 3.07
0 -4 0 91.49 3.02
0 -4 0 92.85 2.08
0 4 0 101.87 3.13
0 4 0 91.74 3.07
0 -4 -1 2219.06 11.86
0 -4 -1 2192.17 11.83
0 -4 -1 2064.3 5.43
0 4 1 2255.67 11.98
0 4 1 2207.31 11.81
0 -4 -2 162.04 3.9
0 -4 -2 155.86 3.81
0 4 2 154.39 3.81
0 4 2 145.88 3.7
0 -4 -3 126.65 3.78
0 -4 -3 119.62 3.78
0 4 3 119.45 3.78
0 4 3 118.34 3.73
0 -4 -4 693.24 8.22
0 -4 -4 685.64 8.22
0 4 4 676.14 8.16
0 4 4 658.14 7.97
0 4 4 660.95 4.01
0 -4 -5 132.25 4.69
0 -4 -5 121.56 4.58
0 4 5 124.32 4.69
0 4 5 128.84 4.67
0 4 5 124.26 2.79
0 -4 -6 59.23 4.44
0 -4 -6 56.16 4.21
0 4 6 60.08 4.21
0 4 6 49.3 4.55
0 4 6 60.51 2.84
0 -4 -7 22.22 3.27
0 -4 -7 23.36 3.1
0 4 7 26.11 3.39
0 4 7 25.77 3.33
0 4 7 24.38 2.39
0 -4 -8 51.15 5.41
0 -4 -8 47.85 4.69
0 4 8 49.24 5.15
0 4 8 52.66 5.6
0 4 8 52.34 3.87
0 -4 -9 1.19 3.44
0 -4 -9 4.12 3.21
0 4 9 3.02 3.27
0 4 9 1.45 3.5
0 4 9 7.11 2.79
0 -4 -10 21.22 4.24
0 4 10 19.57 4.38
0 4 10 15.53 4.92
0 4 10 19.26 6.46
0 -4 -11 275.6 10.55
0 4 11 283.28 10.92
0 4 11 276.62 9.5
0 -5 9 96.27 8.05
0 -5 9 88.07 8.08
0 5 -9 99.45 11.55
0 5 -9 95.78 8.25
0 -5 8 217.99 8.31
0 -5 8 211.82 8.62
0 5 -8 241.21 10.27
0 5 -8 241.32 8.79
0 -5 7 11.46 3.36
0 -5 7 5.8 3.19
0 -5 7 6.54 3.33
0 5 -7 10.72 4.1
0 5 -7 10.5 3.53
0 -5 6 10.3 2.96
0 -5 6 15.76 3.04
0 -5 6 5.52 2.79
0 5 -6 13.68 3.73
0 5 -6 9.79 2.99
0 -5 5 -0.6 2.19
0 -5 5 -1.59 2.19
0 -5 5 0.65 2.22
0 5 -5 -1.99 2.47
0 -5 4 64.46 4.21
0 -5 4 68.9 4.3
0 -5 4 66.43 4.21
0 5 -4 56.47 4.52
0 5 -4 63.92 4.24
0 -5 3 33.11 3.41
0 -5 3 35.5 3.44
0 -5 3 33.14 3.24
0 5 -3 38.38 3.73
0 5 -3 40 3.61
0 -5 2 170.6 4.75
0 -5 2 170.03 4.67
0 -5 2 166.93 4.21
0 5 -2 164.97 4.78
0 5 -2 169.75 4.69
0 -5 1 543.66 7.57
0 -5 1 526.96 6.97
0 -5 1 546.96 5.92
0 5 -1 564.09 7.17
0 5 -1 518.88 6.94
0 -5 0 79.34 3.39
0 -5 0 77.55 3.39
0 -5 0 76.87 2.25
0 5 0 81.9 3.53
0 5 0 70.09 3.27
0 -5 -1 127.64 3.9
0 -5 -1 134.73 3.95
0 5 1 131.51 4.04
0 5 1 130.35 3.95
0 -5 -2 0.82 1.54
0 -5 -2 1.96 1.51
0 5 2 -0.34 1.54
0 5 2 1.54 1.56
0 -5 -3 252.07 6.14
0 -5 -3 264.88 5.55
0 5 3 273.89 5.66
0 5 3 262.97 5.55
0 -5 -4 99.23 4.3
0 -5 -4 100.73 4.38
0 5 4 100.51 4.32
0 5 4 102.87 4.38
0 -5 -5 100.19 4.72
0 -5 -5 103.55 4.75
0 5 5 104.35 4.78
0 5 5 103.32 4.84
0 5 5 98.14 2.02
0 -5 -6 28.19 3.27
0 -5 -6 23.55 3.04
0 5 6 24.55 3.16
0 5 6 26.57 3.33
0 5 6 24.95 2.13
0 -5 -7 1.08 2.59
0 -5 -7 1.02 2.5
0 5 7 2.47 2.62
0 5 7 1.51 2.82
0 5 7 0.8 1.56
0 -5 -8 84.18 6.03
0 -5 -8 51.38 7.23
0 5 8 86 6.12
0 5 8 83.78 6.46
0 5 8 84.43 4.1
0 -5 -9 968.39 14.79
0 -5 -9 1047.38 15.05
0 5 9 1034.5 15.05
0 5 9 974.53 14.82
0 5 9 1059.73 10.98
0 -5 -10 24.46 4.58
0 5 10 20.91 4.67
0 5 10 23.36 3.98
0 -6 8 1.82 4.86
0 -6 8 5.55 3.98
0 6 -8 4.64 6.32
0 6 -8 1.25 4.15
0 -6 7 14.37 3.73
0 -6 7 15.08 4.07
0 6 -7 10.78 4.84
0 6 -7 7 3.93
0 -6 6 1.85 3.04
0 -6 6 3.73 3.02
0 -6 6 5.41 3.19
0 6 -6 0.4 3.67
0 6 -6 -2.08 2.99
0 -6 5 53.82 4.95
0 -6 5 55.53 4.98
0 -6 5 53.82 4.98
0 6 -5 52.91 5.8
0 6 -5 60.17 5.29
0 -6 4 6.91 2.47
0 -6 4 6.34 2.45
0 -6 4 4.32 2.28
0 6 -4 5.12 2.76
0 6 -4 5.66 2.53
0 -6 3 322.06 7
0 -6 3 349.74 7.14
0 -6 3 338.19 6.63
0 6 -3 337.76 7.28
0 6 -3 364.58 7.25
0 -6 2 279.1 6.4
0 -6 2 287.8 6.37
0 -6 2 283.54 5.55
0 6 -2 259.98 6.26
0 6 -2 293.84 6.37
0 -6 1 180.87 5.21
0 -6 1 171.65 5.09
0 -6 1 174.36 4.01
0 6 -1 187.3 5.35
0 6 -1 176.83 5.15
0 -6 0 11.86 2.22
0 -6 0 5.38 2.02
0 -6 0 10.04 1.37
0 6 0 10.33 2.22
0 6 0 6.51 2.13
0 -6 -1 489.19 7.4
0 -6 -1 453.23 7.17
0 -6 -1 468.39 3.53
0 6 1 502.33 7.54
0 6 1 472.37 7.37
0 -6 -2 143.18 4.81
0 -6 -2 150.18 4.95
0 6 2 139.96 4.89
0 6 2 140.22 4.84
0 -6 -3 4.32 2.13
0 -6 -3 1.74 2.05
0 6 3 5.69 2.16
0 6 3 2.45 2.16
0 -6 -4 1.08 1.99
0 -6 -4 1.74 2.16
0 6 4 0.28 2.22
0 6 4 1.19 2.28
0 -6 -5 51.32 4.41
0 -6 -5 56.27 4.49
0 6 5 47.02 4.38
0 6 5 40.4 6.09
0 -6 -6 298.1 7.65
0 -6 -6 306.95 7.65
0 6 6 304.05 7.68
0 6 6 310.82 7.91
0 -6 -7 678.53 11.44
0 -6 -7 690.65 11.38
0 6 7 708.32 11.55
0 6 7 705.53 11.72
0 6 7 692.5 5.38
0 -6 -8 3.16 3.5
0 -6 -8 0.85 3.13
0 6 8 1.91 3.19
0 6 8 4.38 3.76
0 6 8 1.56 1.96
0 -6 -9 136.58 7.68
0 6 9 128.87 7.85
0 6 9 124.71 8.85
0 6 9 128.13 5.18
0 -6 -10 15.79 4.78
0 6 10 9.96 4.58
0 6 10 14.54 3.9
0 -7 7 -2.53 3.87
0 -7 7 -3.16 3.81
0 7 -7 -4.69 4.35
0 -7 6 83.69 6.43
0 -7 6 70.38 6.09
0 7 -6 85.09 8.79
0 7 -6 93.42 7.23
0 -7 5 17.64 4.47
0 -7 5 18.6 3.53
0 -7 5 24.44 3.47
0 7 -5 25.46 4.75
0 7 -5 27.4 4.01
0 -7 4 38.52 3.95
0 -7 4 42.24 4.86
0 -7 4 45.54 4.38
0 7 -4 38.29 4.32
0 7 -4 43.5 4.12
0 -7 3 263.88 7.23
0 -7 3 270.39 7.03
0 -7 3 252.61 6.2
0 7 -3 251.19 7.34
0 7 -3 276.68 7.31
0 -7 2 374.17 7.77
0 -7 2 362.85 7.51
0 -7 2 384.07 6.54
0 7 -2 365.13 7.71
0 7 -2 385.47 7.79
0 -7 1 10.84 2.62
0 -7 1 14 2.59
0 -7 1 19.34 2.05
0 7 -1 11.98 2.67
0 7 -1 12.6 2.79
0 -7 0 261.18 6.37
0 -7 0 257.88 6.34
0 -7 0 255.89 4.07
0 7 0 283.94 6.63
0 7 0 241.89 6.46
0 -7 -1 5.23 2.3
0 -7 -1 4.98 2.19
0 -7 -1 4.27 0.88
0 7 1 2.39 2.3
0 7 1 7.4 2.5
0 -7 -2 468.62 8.19
0 -7 -2 448.39 8.02
0 7 2 453.94 8.08
0 7 2 420.77 7.88
0 -7 -3 46.6 4.3
0 -7 -3 43.64 4.21
0 7 3 45.8 4.49
0 7 3 41.93 4.61
0 -7 -4 489.36 8.85
0 -7 -4 493.05 8.85
0 7 4 503.55 8.99
0 7 4 496.81 9.25
0 -7 -5 476.95 9.19
0 -7 -5 496.35 9.33
0 7 5 482.78 9.3
0 7 5 508.56 9.7
0 -7 -6 189.77 7.14
0 -7 -6 204.28 7.08
0 7 6 204.85 7.2
0 7 6 207.13 7.71
0 -7 -7 22.13 4.04
0 -7 -7 20.03 4.67
0 7 7 24.95 4.04
0 7 7 26.97 4.52
0 -7 -8 -1 3.56
0 7 8 -0.34 3.61
0 7 8 2.45 4.47
0 -7 -9 -2.22 3.93
0 7 9 -0.34 4.15
0 7 9 0.23 5.43
0 -8 6 43.64 5.18
0 -8 6 38.38 4.81
0 8 -6 39.51 5.63
0 -8 5 64.66 6.54
0 -8 5 74.05 5.72
0 8 -5 68.47 6.83
0 8 -5 61.9 7.2
0 -8 4 53 5.77
0 -8 4 43.64 4.69
0 8 -4 37.44 5.29
0 8 -4 44.38 4.61
0 -8 3 8.05 3.39
0 -8 3 2.76 2.87
0 -8 3 6 2.45
0 8 -3 0.71 3.73
0 8 -3 3.13 3.27
0 -8 2 78.09 5.75
0 -8 2 78.17 5.23
0 -8 2 83.84 4.21
0 8 -2 80.17 6.4
0 8 -2 87.39 5.8
0 -8 1 260.58 7.31
0 -8 1 263.25 7.14
0 -8 1 275.94 5.29
0 8 -1 265.76 7.74
0 -8 0 69.5 5.12
0 -8 0 71.74 4.84
0 -8 0 72.11 2.82
0 8 0 73.14 5.26
0 8 0 75.5 5.69
0 -8 -1 54.7 4.92
0 -8 -1 56.7 4.69
0 8 1 54.16 4.86
0 8 1 59.14 5.49
0 -8 -2 1119.41 13.03
0 -8 -2 1097.37 12.89
0 8 2 1148.35 13.14
0 8 2 1126.55 13.17
0 -8 -3 257.93 7.45
0 -8 -3 262.63 7.31
0 8 3 264.19 7.48
0 8 3 217.88 9.81
0 -8 -4 75.81 5.49
0 -8 -4 83.84 5.63
0 8 4 80.65 5.66
0 8 4 84.77 6.49
0 -8 -5 1.48 2.99
0 -8 -5 2.28 2.82
0 8 5 -3.24 2.9
0 8 5 1.96 3.7
0 -8 -6 34.48 4.21
0 8 6 38.89 4.55
0 8 6 46.2 5.38
0 -8 -7 4.89 3.61
0 8 7 1.05 3.64
0 8 7 -1.25 4.55
0 -8 -8 11.66 4.27
0 8 8 3.76 4.24
0 8 8 2.47 5.69
0 -9 4 106.31 7.45
0 -9 4 112.6 6.32
0 9 -4 112.28 8.34
0 -9 3 281.43 8.73
0 -9 3 268.63 8.02
0 9 -3 252.19 10.81
0 9 -3 284.85 9.44
0 -9 2 1.17 3.07
0 -9 2 9.16 2.53
0 9 -2 6.97 4.86
0 9 -2 2.99 3.61
0 -9 1 97.15 6.09
0 -9 1 91.57 3.93
0 9 -1 69.27 8.93
0 9 -1 100.08 6.6
0 -9 0 437.38 9.44
0 -9 0 442.82 5.23
0 9 0 441.02 9.79
0 9 0 277.11 15.5
0 -9 -1 31.35 4.44
0 -9 -1 40.08 4.1
0 9 1 38.83 4.32
0 9 1 38.01 7.88
0 -9 -2 48.3 5.8
0 -9 -2 42.36 4.24
0 9 2 45.4 4.49
0 9 2 45.89 5.01
0 -9 -3 116.09 6.23
0 9 3 113.9 6.86
0 9 3 105.46 7.79
0 -9 -4 7.14 3.36
0 9 4 10.41 3.76
0 9 4 7.91 4.52
0 -9 -5 3.24 3.27
0 9 5 -2.65 3.53
0 9 5 0 4.78
0 -9 -6 75.9 6.94
0 9 6 70.81 7.2
0 9 6 83.81 7.23
0 -9 -7 220.3 9.36
0 9 7 228.55 9.93
0 9 7 226.1 12.29
0 -10 1 53.2 5.15
0 10 -1 54.68 5.6
0 -10 0 80.25 6.77
0 10 0 80.54 7.48
0 -10 -1 8.62 3.61
0 10 1 10.67 4.21
0 10 1 3.56 5.52
0 -10 -2 71.89 6.71
0 10 2 84.86 7.51
0 10 2 78.26 9.7
0 -10 -3 93.65 7.14
0 10 3 99.28 7.65
0 10 3 86.96 7.57
0 -10 -4 164.4 13.88
0 10 4 193.93 9.13
0 10 4 163.83 11.12
0 -10 -5 188.86 9.1
0 10 5 199.62 9.59
0 10 5 189.52 18.15
-1 10 4 6.37 4.49
1 -10 -4 2.76 3.78
-1 10 3 6.69 4.32
1 -10 -3 2.99 3.7
-1 10 2 0 3.98
1 -10 -2 7.91 3.53
-1 10 1 9.3 4.18
1 -10 -1 3.07 3.33
-1 10 0 41.36 4.95
1 -10 0 35.1 5.32
-1 10 -1 108.27 7.79
-1 9 6 3.47 4.21
-1 9 6 -1.71 6.06
-1 9 5 58.43 6.97
-1 9 5 66.4 6.57
1 -9 -5 59.57 6.4
-1 9 4 0.4 3.56
-1 9 4 3.95 4.61
1 -9 -4 4.58 3.19
-1 9 3 71.94 6.4
-1 9 3 77.95 7.57
1 -9 -3 67.16 5.63
-1 9 2 12.4 3.58
-1 9 2 15.59 4.24
1 -9 -2 12.89 3.16
-1 9 1 174.13 7.17
-1 9 1 167.64 7.68
1 -9 -1 165.34 7.77
1 -9 -1 168.75 6.57
-1 9 0 474.22 9.56
-1 9 0 437.35 9.9
1 -9 0 483.52 11.44
1 -9 0 444.95 8.96
-1 9 -1 520.34 10.64
1 -9 1 526.91 9.56
1 -9 1 544.6 6.6
-1 9 -2 25.75 4.84
-1 9 -2 27.91 4.1
1 -9 2 25.83 3.53
1 -9 2 35.28 3.73
-1 9 -3 11.04 3.95
1 -9 3 10.04 3.39
1 -9 3 11.49 2.93
-1 9 -4 9.07 4.18
1 -9 4 7.74 3.19
-1 8 8 18.78 5.52
-1 8 8 17.58 7.23
1 -8 -8 18.23 4.92
-1 8 7 77.66 7.65
-1 8 7 69.47 7
1 -8 -7 81.5 7.2
-1 8 6 109.3 7.28
-1 8 6 101.98 8.59
1 -8 -6 96.1 6.51
-1 8 5 5.55 3.41
-1 8 5 -3.27 3.84
1 -8 -5 10.33 3.16
-1 8 4 4.24 2.99
-1 8 4 -1.45 3.39
1 -8 -4 -1.42 2.62
1 -8 -4 0.4 2.56
-1 8 3 366.15 8.28
-1 8 3 341.71 8.39
1 -8 -3 335.2 7.85
1 -8 -3 352.81 8.02
-1 8 2 704.36 10.35
-1 8 2 697.39 10.41
1 -8 -2 675.66 10.13
1 -8 -2 686.38 10.13
-1 8 1 767.97 10.47
-1 8 1 735.85 10.33
1 -8 -1 747.69 10.38
1 -8 -1 735.49 10.18
-1 8 0 167.95 6.09
-1 8 0 164.31 6.32
1 -8 0 161.58 5.89
1 -8 0 156.49 5.63
1 -8 0 160.56 3.1
-1 8 -1 -0.85 2.87
1 -8 1 -3.98 2.25
1 -8 1 -0.17 2.22
1 -8 1 -0.51 1.48
-1 8 -2 12.57 3.33
-1 8 -2 13.03 3.04
1 -8 2 9.53 2.82
1 -8 2 10.75 2.59
1 -8 2 9.36 2.13
-1 8 -3 8.05 3.53
-1 8 -3 12.83 3.3
1 -8 3 9.84 2.96
1 -8 3 9.05 2.73
1 -8 3 6.51 2.42
-1 8 -4 198.56 8.22
-1 8 -4 195.72 7.4
1 -8 4 193.76 6.69
1 -8 4 146.45 9.9
-1 8 -5 52.77 8.16
-1 8 -5 55.79 5.06
1 -8 5 62.76 5.86
1 -8 5 56.27 5.49
-1 8 -6 108.3 7.94
1 -8 6 99.17 6.88
-1 7 9 87.65 9.44
-1 7 9 65.29 8.05
1 -7 -9 82.19 8.36
-1 7 8 131.09 8.11
-1 7 8 131.71 9.96
1 -7 -8 144.4 7.91
-1 7 7 73.99 6.69
-1 7 7 83.66 8.11
1 -7 -7 76.5 6.17
-1 7 6 208.21 7.54
-1 7 6 200.78 8.22
1 -7 -6 167.07 7.03
1 -7 -6 217.88 7.4
-1 7 5 175.83 6.77
-1 7 5 145.94 11.27
1 -7 -5 163.15 6.34
1 -7 -5 173.36 6.4
-1 7 4 1371.66 13.88
-1 7 4 1331.46 13.77
1 -7 -4 1243.16 13.29
1 -7 -4 1243.1 13.29
-1 7 3 1200.75 15.48
-1 7 3 1277.16 12.83
1 -7 -3 1235.17 12.57
1 -7 -3 1227.74 12.57
-1 7 2 1.37 2.19
-1 7 2 -0.34 2.25
1 -7 -2 -0.17 1.99
1 -7 -2 0.2 1.96
-1 7 1 13.63 2.56
-1 7 1 12.72 2.56
1 -7 -1 9.81 2.36
1 -7 -1 11.55 2.33
-1 7 0 23.95 2.82
-1 7 0 23.5 2.82
1 -7 0 20.68 2.56
1 -7 0 23.5 2.62
1 -7 0 21.22 1.85
-1 7 -1 93.65 4.64
-1 7 -1 84.18 4.61
1 -7 1 86.82 4.3
1 -7 1 80.36 4.12
1 -7 1 87.76 3.21
-1 7 -2 6.94 2.53
-1 7 -2 3.04 2.33
1 -7 2 5.86 2.28
1 -7 2 9.53 2.19
1 -7 2 3.87 1.85
-1 7 -3 209.77 6.23
-1 7 -3 222.26 6.34
1 -7 3 221.83 6.17
1 -7 3 230.48 6.06
1 -7 3 225.93 5.77
-1 7 -4 24.01 3.61
-1 7 -4 24.49 3.39
1 -7 4 24.07 3.36
1 -7 4 24.95 3.1
1 -7 4 14.37 2.79
-1 7 -5 49.58 4.64
-1 7 -5 46.82 5.38
1 -7 5 48.7 5.21
1 -7 5 47.99 4.92
1 -7 5 50.3 4.89
-1 7 -6 436.1 10.61
-1 7 -6 483.33 9.96
1 -7 6 501.1 9.84
1 -7 6 453.37 9.96
-1 7 -7 58.49 5.43
1 -7 7 74.45 6.49
1 -7 7 61.79 6.71
-1 6 9 16.41 4.61
-1 6 9 20 5.97
-1 6 9 24.95 3.58
1 -6 -9 23.01 4.47
-1 6 8 218.93 8.51
-1 6 8 197.03 9.33
-1 6 8 197.94 5.01
1 -6 -8 187.1 7.91
-1 6 7 3.07 3.21
-1 6 7 5.26 3.73
-1 6 7 3.7 1.68
1 -6 -7 7.25 3.39
1 -6 -7 0.37 2.84
-1 6 6 1440.7 15.16
-1 6 6 1427.79 15.19
1 -6 -6 1305.97 14.54
1 -6 -6 1450.46 15.16
-1 6 5 482.81 8.88
-1 6 5 498.97 8.99
1 -6 -5 468.11 8.65
1 -6 -5 494.05 8.76
-1 6 4 2.05 2.19
-1 6 4 3.02 2.33
1 -6 -4 2.79 2.13
1 -6 -4 -0.14 2.11
-1 6 3 170.52 5.26
-1 6 3 167.07 5.29
1 -6 -3 157.51 5.12
1 -6 -3 166.16 5.12
1 -6 -3 160.3 3.44
-1 6 2 146.39 4.78
-1 6 2 135.04 4.61
1 -6 -2 137.29 4.64
1 -6 -2 141.24 4.61
1 -6 -2 118.77 5.77
-1 6 1 107.59 4.21
-1 6 1 95.9 4.04
1 -6 -1 110.32 4.21
1 -6 -1 95.75 4.01
1 -6 -1 109.18 3.84
-1 6 0 41.82 3.53
-1 6 0 41.59 3.36
1 -6 0 44.26 3.36
1 -6 0 43.89 3.3
1 -6 0 40.31 2.02
-1 6 -1 9.07 2.11
-1 6 -1 6.12 1.99
1 -6 1 6.63 1.99
1 -6 1 7.17 1.93
1 -6 1 8.93 1.62
-1 6 -2 157.17 4.84
-1 6 -2 170.66 4.89
1 -6 2 161.5 4.86
1 -6 2 156.86 4.61
1 -6 2 158.71 4.32
-1 6 -3 125.23 4.84
-1 6 -3 138.28 4.81
1 -6 3 136.09 4.81
1 -6 3 132 4.67
1 -6 3 132.4 4.58
-1 6 -4 1116.77 11.35
-1 6 -4 1184.73 11.66
1 -6 4 1159.75 11.61
1 -6 4 1139.36 11.46
1 -6 4 1135.69 11.98
-1 6 -5 521.96 8.88
-1 6 -5 559.08 9.07
1 -6 5 554.47 8.96
1 -6 5 581.36 9.07
1 -6 5 548.1 9.47
-1 6 -6 37.72 4.32
-1 6 -6 45.52 5.23
1 -6 6 40.77 5.01
1 -6 6 32.54 3.61
1 -6 6 42.67 5.01
-1 6 -7 6.12 4.3
-1 6 -7 -0.06 3.21
1 -6 7 1.62 3.02
1 -6 7 2.05 3.3
-1 6 -8 38.43 4.86
1 -6 8 43.61 4.61
1 -6 8 48.67 5.35
-1 5 10 13.46 4.92
-1 5 10 17.13 4.41
1 -5 -10 16.02 4.67
-1 5 9 7.54 3.98
-1 5 9 10.5 4.69
-1 5 9 7.65 3.3
1 -5 -9 10.72 3.87
-1 5 8 1330.18 16.16
-1 5 8 1327.74 16.36
-1 5 8 1323.81 11.32
1 -5 -8 1210.93 15.59
1 -5 -8 1284.98 17.44
-1 5 7 222.32 7.34
-1 5 7 226.73 7.71
-1 5 7 224.25 4.81
1 -5 -7 197.11 7.14
1 -5 -7 219.73 7.25
-1 5 6 86.65 5.43
-1 5 6 91.46 5.41
-1 5 6 90.83 3.04
1 -5 -6 82.58 5.01
1 -5 -6 95.27 5.15
-1 5 5 25.66 3.04
-1 5 5 21.51 2.9
-1 5 5 22.79 1.82
1 -5 -5 19.46 2.79
1 -5 -5 20.17 2.82
-1 5 4 106.42 4.58
-1 5 4 103.44 4.58
1 -5 -4 101.02 4.44
1 -5 -4 106.51 4.41
1 -5 -4 102.35 2.28
-1 5 3 123.6 4.35
-1 5 3 119.34 4.3
1 -5 -3 116.32 4.15
1 -5 -3 118.88 4.21
1 -5 -3 120.16 2.73
-1 5 2 4.04 1.74
-1 5 2 3.87 1.59
1 -5 -2 5.29 1.68
1 -5 -2 7.2 1.56
-1 5 1 305.1 5.21
-1 5 1 280.12 4.95
1 -5 -1 296 5.12
1 -5 -1 286.61 5.01
-1 5 0 211.85 4.44
-1 5 0 199.33 4.27
1 -5 0 206.1 4.3
1 -5 0 206.98 4.32
1 -5 0 201.41 3.02
1 -5 0 211.59 4.55
-1 5 -1 1278.89 9.5
-1 5 -1 1260.4 9.36
1 -5 1 1306.26 9.7
1 -5 1 1243.19 9.42
1 -5 1 1242.68 8.34
1 -5 1 1299 10.81
-1 5 -2 4119.47 17.13
-1 5 -2 4684.81 18.35
1 -5 2 4326.74 17.81
1 -5 2 4425.74 17.87
-1 5 -3 217.06 5.06
-1 5 -3 248.77 5.18
1 -5 3 227.01 5.09
1 -5 3 224.68 5.01
1 -5 3 226.81 5.18
-1 5 -4 369.51 6.54
-1 5 -4 420.97 6.86
1 -5 4 410.24 6.86
1 -5 4 427.99 6.88
1 -5 4 397.19 7.17
-1 5 -5 113.11 4.98
-1 5 -5 127.82 5.01
1 -5 5 120.76 4.78
1 -5 5 120.73 4.84
1 -5 5 115.1 5.04
-1 5 -6 151.37 6.14
-1 5 -6 150.43 5.77
1 -5 6 137.63 5.38
1 -5 6 140.47 5.46
1 -5 6 155.24 6.03
-1 5 -7 14.31 3.67
-1 5 -7 17.04 3.33
1 -5 7 16.53 3.19
1 -5 7 16.87 3.16
1 -5 7 18.04 3.58
-1 5 -8 38.75 6.09
-1 5 -8 41.96 4.47
1 -5 8 43.89 4.32
1 -5 8 36.98 4.78
-1 5 -9 79.88 7.99
-1 5 -9 101.19 7.82
1 -5 9 88.61 7.08
1 -5 9 83.64 7.65
-1 4 10 1323.98 18.23
-1 4 10 1332.4 15.19
1 -4 -10 1301.25 17.98
-1 4 9 31.32 4.58
-1 4 9 33.63 5.15
-1 4 9 30.47 3.87
1 -4 -9 32.63 4.41
-1 4 8 -1.14 2.87
-1 4 8 1.31 3.3
-1 4 8 0.28 2.42
1 -4 -8 0.77 2.84
1 -4 -8 2.73 3.53
1 -4 -8 -1.45 1.62
-1 4 7 170.83 6.46
-1 4 7 167.27 6.57
-1 4 7 172.28 4.84
1 -4 -7 160.5 6.34
1 -4 -7 172.34 6.34
1 -4 -7 167.93 3.27
-1 4 6 70.27 4.75
-1 4 6 67.31 3.27
1 -4 -6 68.93 4.67
1 -4 -6 60.62 4.27
1 -4 -6 62.58 2.25
-1 4 5 84.15 4.44
-1 4 5 81.45 4.41
1 -4 -5 81.05 4.3
1 -4 -5 86.96 4.35
1 -4 -5 87.08 2.19
-1 4 4 68.47 3.7
-1 4 4 60.48 3.56
1 -4 -4 67.42 3.67
1 -4 -4 67.93 3.61
1 -4 -4 69.64 1.99
-1 4 3 645.79 7.45
-1 4 3 594.44 7.17
1 -4 -3 607.07 7.25
1 -4 -3 616.77 7.28
1 -4 -3 630.94 4.67
-1 4 2 201.72 4.15
-1 4 2 199.19 4.1
1 -4 -2 192.76 4.07
1 -4 -2 197.17 4.12
1 -4 -2 202.18 3.13
-1 4 1 2502.23 12
-1 4 1 2489.28 11.89
1 -4 -1 2393.73 11.78
1 -4 -1 2520.8 12.09
1 -4 -1 2546.66 11.07
1 -4 0 8517.39 21.05
-1 4 -1 108.41 2.96
-1 4 -1 96.15 2.79
1 -4 1 105.26 2.93
1 -4 1 91.37 2.96
1 -4 1 98.12 2.59
1 -4 1 103.61 3.44
-1 4 -2 3.81 1.34
-1 4 -2 0 1.17
1 -4 2 0.34 1.17
1 -4 2 -0.85 1.05
1 -4 2 1.11 1.22
1 -4 2 0.65 1.74
-1 4 -3 13.43 1.76
-1 4 -3 12.2 1.74
1 -4 3 10.84 1.71
1 -4 3 9.56 1.59
1 -4 3 10.01 1.79
-1 4 -4 975.81 9.05
-1 4 -4 1041.92 9.36
1 -4 4 928.13 8.93
1 -4 4 924.09 8.88
1 -4 4 976.46 10.07
-1 4 -5 100.19 4.41
-1 4 -5 105.26 4.35
1 -4 5 102.98 4.32
1 -4 5 99.99 4.32
1 -4 5 97.92 4.61
-1 4 -6 38.49 4.15
-1 4 -6 35.87 3.95
1 -4 6 34.45 3.81
1 -4 6 35.02 4.07
-1 4 -7 77.38 5.6
-1 4 -7 75.33 5.04
1 -4 7 75.39 4.92
1 -4 7 96.1 5.29
1 -4 7 72.57 5.32
-1 4 -8 67.62 6.97
-1 4 -8 69.73 5.72
1 -4 8 71.35 5.43
1 -4 8 60.34 5.46
1 -4 8 72.74 5.97
-1 4 -9 1049.26 15.39
-1 4 -9 1079.76 14.62
1 -4 9 1083.68 14.59
1 -4 9 1042.86 15.73
-1 4 -10 573.99 23.38
-1 4 -10 538.94 12.46
1 -4 10 484.46 19.32
1 -4 10 513.82 12.92
-1 3 10 21.96 4.64
-1 3 10 22.9 4.52
1 -3 -10 30.04 4.78
-1 3 9 5.41 3.47
-1 3 9 4.75 3.98
-1 3 9 4.78 3.95
1 -3 -9 3.81 3.67
1 -3 -9 0.37 3.16
-1 3 8 3.27 2.84
-1 3 8 0.37 3.07
-1 3 8 0.85 2.47
1 -3 -8 6.88 3.04
1 -3 -8 5.01 2.84
-1 3 7 3.21 2.53
-1 3 7 5.49 2.65
-1 3 7 2.13 2.11
1 -3 -7 4.69 2.53
1 -3 -7 2.33 2.3
-1 3 6 56.04 4.21
-1 3 6 59.54 6.66
1 -3 -6 59.28 4.44
1 -3 -6 68.79 4.18
-1 3 5 6.6 2.05
-1 3 5 7.74 2.02
1 -3 -5 3.84 1.93
1 -3 -5 6.6 1.91
-1 3 4 81.05 3.58
-1 3 4 82.78 3.56
1 -3 -4 82.16 3.47
1 -3 -4 84.26 2.13
-1 3 3 2614.08 13.51
-1 3 3 2560.23 13.31
1 -3 -3 2691.66 13.74
1 -3 -3 2505.72 13.26
1 -3 -3 2701.47 8.99
-1 3 1 81.53 2.42
-1 3 1 78.4 2.3
-1 3 1 75.73 1.39
1 -3 -1 83.18 2.45
1 -3 -1 76.07 2.42
1 -3 -1 82.44 2.16
-1 3 0 149.07 2.67
-1 3 0 140.84 2.62
-1 3 0 135.7 2.13
1 -3 0 138.23 2.59
1 -3 0 131.2 2.53
1 -3 0 137.29 2.13
1 -3 0 146.79 2.96
-1 3 -1 1060.98 6.26
-1 3 -1 1036.12 6.17
-1 3 -1 1000.33 6.4
1 -3 1 1085.05 6.4
1 -3 1 1001.58 6.12
1 -3 1 1019.05 6.46
1 -3 1 1067.5 7.82
-1 3 -2 1321.42 7.54
-1 3 -2 1404.89 7.79
1 -3 2 1418.65 7.91
1 -3 2 1245.55 7.4
1 -3 2 1356.13 8.73
1 -3 2 1415.67 9.9
-1 3 -3 5.97 1.31
-1 3 -3 5.66 1.31
1 -3 3 5.29 1.28
1 -3 3 4.72 1.22
1 -3 3 4.52 1.39
1 -3 3 6.32 1.88
-1 3 -4 61.62 3.02
-1 3 -4 70.41 3.1
1 -3 4 64.83 2.99
1 -3 4 64.41 3.02
1 -3 4 67.31 3.39
-1 3 -5 25.38 3.13
-1 3 -5 25.6 3.07
1 -3 5 23.75 2.36
1 -3 5 26.66 3.04
1 -3 5 26.85 2.9
-1 3 -6 435.39 7.37
-1 3 -6 454.05 7.4
1 -3 6 466.17 7.54
1 -3 6 431.24 7.31
1 -3 6 430.44 8.11
-1 3 -7 2801.07 18.58
-1 3 -7 2792.62 22.22
1 -3 7 2999.15 19.32
1 -3 7 2905.84 19.06
-1 3 -8 681.66 11.01
-1 3 -8 686.01 10.67
1 -3 8 705.02 10.75
1 -3 8 683.62 10.67
1 -3 8 671.82 11.44
-1 3 -9 1.22 4.21
-1 3 -9 8.42 3.41
1 -3 9 4.04 3.04
1 -3 9 5.97 3.47
-1 3 -10 41.11 6.54
-1 3 -10 30.15 4.81
1 -3 10 41.31 4.92
1 -3 10 32.12 4.95
-1 2 11 9.76 4.84
-1 2 11 -1.05 4.78
1 -2 -11 -5.55 4.32
-1 2 10 7.77 3.95
-1 2 10 3.56 3.93
1 -2 -10 5.41 3.81
-1 2 9 161.24 7.57
-1 2 9 153.11 8.11
-1 2 9 151.8 6.71
1 -2 -9 153.19 7.97
1 -2 -9 155.18 7.42
-1 2 8 94.73 5.86
-1 2 8 92.48 6.32
-1 2 8 86.82 5.12
1 -2 -8 85.26 5.77
1 -2 -8 83.38 7.4
-1 2 7 1.22 2.47
-1 2 7 1.17 2.47
1 -2 -7 1.39 2.45
1 -2 -7 4.04 2.36
-1 2 6 11.35 2.45
1 -2 -6 6.69 2.36
1 -2 -6 8.34 2.28
-1 2 5 4764.21 21.71
-1 2 5 4522.21 21.02
1 -2 -5 4337.33 26.4
1 -2 -5 4807.42 21.79
-1 2 4 4942.21 19.91
-1 2 4 5268.93 20.48
1 -2 -4 5057.56 20.11
1 -2 -4 5283.98 20.6
-1 2 3 634.84 6.57
-1 2 3 644.59 6.54
1 -2 -3 633.41 6.54
1 -2 -3 660.58 6.66
-1 2 2 2023.2 9.84
-1 2 2 1940.38 9.59
1 -2 -2 2021.2 9.81
1 -2 -2 1918.59 9.59
1 -2 -2 2100.35 7.68
-1 2 1 319.87 3.53
-1 2 1 305.16 3.39
1 -2 -1 299.95 3.39
1 -2 -1 294.01 3.36
1 -2 -1 319.64 3.21
1 -2 0 0.57 0.31
1 -2 0 3982.1 11.55
-1 2 -1 2.11 0.74
-1 2 -1 0.68 0.71
-1 2 -1 2.56 0.91
1 -2 1 0.82 0.71
1 -2 1 1.02 0.82
1 -2 1 2.99 1.11
-1 2 -2 540.11 4.18
-1 2 -2 545.2 4.21
-1 2 -2 494.05 5.01
1 -2 2 491.66 4.04
1 -2 2 515.41 5.09
1 -2 2 546.73 5.6
-1 2 -3 514.85 4.95
-1 2 -3 581.73 5.26
1 -2 3 479.71 7.68
1 -2 3 552.05 5.15
1 -2 3 540.93 6
1 -2 3 549.35 6.26
-1 2 -4 1293.4 8.93
-1 2 -4 1356.47 9.13
1 -2 4 1286.43 8.93
1 -2 4 1233.8 8.76
1 -2 4 1212.47 9.96
1 -2 4 1265.69 10.21
-1 2 -5 9999 27.74
1 -2 5 9381.2 30.1
-1 2 -6 1200.18 10.98
-1 2 -6 1257.9 11.21
1 -2 6 1188.91 10.98
1 -2 6 1242.39 11.21
1 -2 6 1167.35 11.95
-1 2 -7 182.72 5.8
-1 2 -7 186.47 5.63
1 -2 7 188.38 5.8
1 -2 7 185.17 5.72
1 -2 7 178.57 5.97
-1 2 -8 135.1 6.12
-1 2 -8 145.51 5.8
1 -2 8 149.01 5.8
1 -2 8 131.34 5.72
1 -2 8 137.09 6.09
-1 2 -9 21.11 4.07
-1 2 -9 19.91 3.56
1 -2 9 24.01 3.61
1 -2 9 21.48 3.73
1 -2 9 19.26 3.7
-1 2 -10 31.49 5.43
-1 2 -10 28.31 4.35
1 -2 10 32.46 4.32
1 -2 10 19.8 4.32
-1 2 -11 25.63 7.42
-1 2 -11 19.23 4.84
1 -2 11 29.36 4.89
1 -2 11 25.12 5.35
-1 1 11 2.9 4.69
-1 1 11 4.35 5.01
1 -1 -11 3.16 4.69
-1 1 10 47.91 5.38
-1 1 10 48.25 5.18
1 -1 -10 64.78 7.14
-1 1 9 0.68 3.13
-1 1 9 5.09 3.78
-1 1 9 1.56 3.1
1 -1 -9 3.41 3.67
1 -1 -9 -1.91 2.99
-1 1 8 66.2 5.77
-1 1 8 64.04 5.97
1 -1 -8 79.43 5.97
1 -1 -8 70.61 6.23
-1 1 7 2519.75 18.95
-1 1 7 2436.23 18.55
1 -1 -7 2400.5 18.43
1 -1 -7 2486.47 18.78
-1 1 6 662.89 9.33
-1 1 6 661.18 9.36
1 -1 -6 652.39 9.3
1 -1 -6 673.21 9.39
-1 1 5 162.78 4.86
-1 1 5 168.98 4.86
1 -1 -5 163.18 4.84
1 -1 -5 167.24 4.69
-1 1 4 258.79 5.04
-1 1 4 267.89 5.06
1 -1 -4 265.5 4.98
1 -1 -4 274.29 5.04
-1 1 3 17.98 2.16
-1 1 3 21.65 2.11
1 -1 -3 11.66 1.45
1 -1 -3 21.76 2.02
-1 1 1 1842.89 7.14
-1 1 1 1833.28 7.08
1 -1 -1 1756.33 6.97
1 -1 -1 1772.03 7.03
1 -1 -1 1914.7 6.94
-1 1 0 123.83 1.76
-1 1 0 141.36 1.42
1 -1 0 140.19 1.48
1 -1 0 142.69 2.13
1 -1 1 3708.75 10.64
-1 1 -2 1953.58 6.63
-1 1 -2 2055.82 6.8
-1 1 -2 1809.81 8.59
1 -1 2 1962.12 6.69
1 -1 2 1811.6 8.56
1 -1 2 1970.8 8.9
-1 1 -4 972.17 7.48
-1 1 -4 987.9 7.54
1 -1 4 961.47 7.48
1 -1 4 971.26 7.51
1 -1 4 921.45 8.16
1 -1 4 983.35 8.11
-1 1 -5 874.39 8.19
-1 1 -5 862.7 8.14
1 -1 5 857.38 8.16
1 -1 5 866.71 8.19
1 -1 5 812.21 8.62
-1 1 -6 2479.69 15.16
-1 1 -6 2582.33 15.48
1 -1 6 2617.75 15.67
1 -1 6 2554 15.42
1 -1 6 2418.87 16.07
-1 1 -7 100.65 4.84
-1 1 -7 103.92 4.61
1 -1 7 104.29 4.81
1 -1 7 97.86 4.75
1 -1 7 99.23 4.84
-1 1 -8 28.19 3.36
1 -1 8 30.72 3.3
1 -1 8 29.61 3.27
1 -1 8 27.4 4.92
-1 1 -9 -1.74 3.07
-1 1 -9 4.72 2.76
1 -1 9 0.11 2.7
1 -1 9 0.34 2.87
1 -1 9 -0.31 2.76
-1 1 -10 6.37 4.18
-1 1 -10 2.53 3.36
1 -1 10 3.84 3.3
1 -1 10 11.01 3.93
-1 1 -11 33.4 6.4
-1 1 -11 36.98 5.01
1 -1 11 34.31 4.75
1 -1 11 33.43 5.15
-1 0 10 103.98 7.85
-1 0 10 109.44 7.77
1 0 -10 107.87 7.85
-1 0 9 594.07 11.72
-1 0 9 551.49 11.78
-1 0 9 579.11 11.24
1 0 -9 556.44 11.81
1 0 -9 609.46 11.86
-1 0 8 534.47 10.5
1 0 -8 524.72 10.38
1 0 -8 531.2 10.07
-1 0 7 192.7 6.6
-1 0 7 193.73 6.46
1 0 -7 172.48 6.4
1 0 -7 189.97 6.37
-1 0 6 80.71 4.47
-1 0 6 81.76 4.64
1 0 -6 71.83 4.44
1 0 -6 76.55 4.3
-1 0 5 767.43 9.07
-1 0 5 789.39 9.1
1 0 -5 770.3 9.02
1 0 -5 797.27 9.16
-1 0 4 156.18 4.1
-1 0 4 158.08 4.21
1 0 -4 153.96 4.15
1 0 -4 163.6 4.18
-1 0 3 122.32 3.27
-1 0 3 117.23 3.21
1 0 -3 106.11 3.1
1 0 -3 126.02 3.27
-1 0 2 643.63 5.58
-1 0 2 673.5 5.69
1 0 -2 645.79 5.6
1 0 -2 699.7 5.77
-1 0 1 173.9 2.56
-1 0 1 186.67 2.65
1 0 -1 172.85 2.59
1 0 -1 167.78 3.81
-1 0 0 299.13 2.22
1 0 0 292.53 2.19
1 0 2 4103.14 10.67
-1 0 -3 273.18 3.56
-1 0 -3 283.96 3.53
-1 0 -3 262.26 3.78
1 0 3 257.42 3.47
1 0 3 280.04 3.53
1 0 3 282.74 3.56
-1 0 -4 4671.73 15.96
-1 0 -4 4690.22 16.04
1 0 4 4614.75 15.96
1 0 4 4650.5 15.99
1 0 4 4499.65 16.64
1 0 4 4877.15 15.53
-1 0 -5 1738.01 11.29
-1 0 -5 1775.7 11.44
1 0 5 1716.67 11.29
1 0 5 1770.78 11.44
1 0 5 1646.29 11.46
-1 0 -6 155.24 4.61
-1 0 -6 155.81 4.47
1 0 6 152.59 4.58
1 0 6 148.35 5.58
1 0 6 144.66 4.49
-1 0 -7 -0.2 2.08
-1 0 -7 2.62 1.88
1 0 7 1.88 2.05
1 0 7 0.46 2.02
1 0 7 3.41 2.02
-1 0 -8 78.89 4.69
1 0 8 82.84 4.95
1 0 8 77.95 4.92
1 0 8 73.42 4.86
-1 0 -9 -0.09 2.99
-1 0 -9 4.78 2.67
1 0 9 3.56 2.67
1 0 9 6.23 2.93
1 0 9 3.81 2.99
-1 0 -10 4.52 3.78
-1 0 -10 -2.3 2.99
1 0 10 2.39 3.58
1 0 10 -1.71 3.36
1 0 10 1.14 3.27
-1 0 -11 38.97 5.92
-1 0 -11 36.61 4.84
1 0 11 36.61 4.72
1 0 11 38.55 5.38
-1 -1 10 112.54 8.08
-1 -1 10 105.63 8.02
1 1 -10 110.06 8.16
-1 -1 9 229.54 8.65
-1 -1 9 212.48 8.99
-1 -1 9 215.69 8.16
1 1 -9 209.57 9.02
1 1 -9 246.93 8.7
-1 -1 8 6.09 3.3
1 1 -8 4.41 3.27
1 1 -8 2.62 2.84
-1 -1 7 213.13 6.86
-1 -1 7 212.19 6.94
1 1 -7 208.29 6.97
1 1 -7 215.6 6.71
-1 -1 6 9.07 2.47
-1 -1 6 12.43 2.65
1 1 -6 9.53 2.5
1 1 -6 10.33 2.39
-1 -1 5 461.36 7.45
-1 -1 5 471.09 7.6
1 1 -5 447.4 7.31
1 1 -5 479.09 7.51
-1 -1 4 62.64 3.39
-1 -1 4 59.88 3.19
1 1 -4 58.46 3.3
1 1 -4 79.4 3.36
-1 -1 3 288.35 4.84
-1 -1 3 298.93 4.86
1 1 -3 296.68 4.78
-1 -1 2 877.84 6.88
-1 -1 2 885.01 6.91
1 1 -2 836.16 6.71
1 1 -2 901.62 6.97
-1 -1 0 1.62 0.74
-1 -1 0 2.3 0.71
1 1 0 2.33 0.71
1 1 0 1.51 0.8
-1 -1 -1 258.62 2.73
-1 -1 -1 259.5 2.73
1 1 1 228.83 2.76
1 1 1 253.75 2.7
-1 -1 -2 1519.7 7.03
-1 -1 -2 1461.13 6.88
-1 -1 -2 1354.05 6.23
1 1 2 1356.87 6.66
1 1 2 1445.82 6.86
1 1 2 1377.55 6.23
1 1 2 1546.04 5.38
-1 -1 -3 223.8 3.53
-1 -1 -3 210.28 3.36
-1 -1 -3 199.59 3.1
1 1 3 219.42 3.5
1 1 3 213.1 3.41
1 1 3 209.72 3.19
1 1 3 226.61 2.65
-1 -1 -4 100.96 3.04
-1 -1 -4 100.62 2.96
-1 -1 -4 96.72 2.79
1 1 4 100.31 3.02
1 1 4 99.11 2.96
1 1 4 99 2.79
1 1 4 108.95 2.45
-1 -1 -5 171.82 4.21
-1 -1 -5 165.14 4.04
1 1 5 169.69 4.15
1 1 5 166.56 4.07
1 1 5 167.36 3.9
-1 -1 -6 393.91 6.54
-1 -1 -6 392.55 6.46
1 1 6 380.89 6.46
1 1 6 387.31 6.46
1 1 6 385.47 6.2
-1 -1 -7 216.06 5.92
-1 -1 -7 208.55 5.69
1 1 7 213.5 5.83
1 1 7 203.86 5.58
1 1 7 206.13 5.52
-1 -1 -8 34.17 3.5
-1 -1 -8 30.38 3.21
1 1 8 32.54 3.33
1 1 8 37.04 4.44
1 1 8 39.34 4.18
-1 -1 -9 32.89 3.93
-1 -1 -9 29.87 3.58
1 1 9 32.52 3.64
1 1 9 33 3.9
1 1 9 24.29 5.92
-1 -1 -10 161.35 8.16
-1 -1 -10 175.1 7.48
1 1 10 164.06 7.57
1 1 10 166.39 7.82
1 1 10 172.34 7.25
-1 -1 -11 25.63 5.69
-1 -1 -11 19.88 4.41
1 1 11 20.99 4.38
1 1 11 24.75 4.81
-1 -1 -12 9.05 5.55
1 1 12 8.31 4.78
1 1 12 7.74 5.21
-1 -2 10 28.59 5.23
-1 -2 10 22.05 4.84
1 2 -10 24.1 5.06
-1 -2 9 20.14 4.15
-1 -2 9 17.69 4.49
1 2 -9 18.29 5.26
1 2 -9 28.42 4.49
-1 -2 8 20.85 4.81
-1 -2 8 22.53 4.07
1 2 -8 20.77 4.35
1 2 -8 22.1 3.76
-1 -2 7 26.48 3.44
-1 -2 7 23.24 3.5
1 2 -7 27.31 3.87
1 2 -7 26.88 3.3
-1 -2 6 23.44 3.02
-1 -2 6 25.38 3.21
1 2 -6 24.92 3.33
1 2 -6 25.03 3.04
-1 -2 5 2.13 2.08
-1 -2 5 1.62 2.05
1 2 -5 0.97 2.13
1 2 -5 2.28 1.99
-1 -2 4 2086.8 13.97
-1 -2 4 2218.23 14.39
1 2 -4 2079.15 13.91
1 2 -4 2124.33 14.11
-1 -2 3 4822.95 19.15
-1 -2 3 4835.44 19.09
1 2 -3 4656.65 18.72
1 2 -3 4752.66 18.97
-1 -2 2 37.92 2.39
-1 -2 2 39.14 2.36
1 2 -2 38.69 2.42
-1 -2 1 274.09 4.04
1 2 -1 279.87 4.1
1 2 -1 297.33 4.15
-1 -2 0 2561.45 10.41
-1 -2 0 2601.08 10.53
1 2 0 2590.33 10.5
-1 -2 -1 5.32 1.19
-1 -2 -1 2.82 1.11
1 2 1 4.38 1.14
1 2 1 3.19 1.11
-1 -2 -2 4965.56 14.82
-1 -2 -2 4717.19 14.48
-1 -2 -3 707.86 6.37
-1 -2 -3 740.46 6.51
-1 -2 -3 688.72 4.89
1 2 3 720.32 6.43
1 2 3 709.74 6.34
1 2 3 692.5 4.89
1 2 3 750.25 3.33
-1 -2 -4 530.24 6.2
-1 -2 -4 534.1 6.17
-1 -2 -4 516.78 5.04
1 2 4 543.35 6.32
1 2 4 547.28 6.26
1 2 4 532.48 5.12
1 2 4 563.43 3.61
-1 -2 -5 36.84 2.93
-1 -2 -5 36.73 2.73
1 2 5 40.99 2.93
1 2 5 41.22 2.9
1 2 5 37.29 2.39
-1 -2 -6 260.35 5.69
-1 -2 -6 259.81 5.66
1 2 6 277.99 5.89
1 2 6 265.99 5.8
1 2 6 265.73 5.04
-1 -2 -7 296 7.34
-1 -2 -7 296.68 6.63
1 2 7 304.22 6.83
1 2 7 298.59 6.74
1 2 7 297.28 5.97
-1 -2 -8 179.73 6.2
-1 -2 -8 174.16 6.03
1 2 8 177.48 6.23
1 2 8 175.41 6.2
1 2 8 175.64 5.55
-1 -2 -9 9.27 3.24
-1 -2 -9 8.85 2.87
1 2 9 10.9 2.99
1 2 9 10.35 3.07
1 2 9 11.32 2.93
-1 -2 -10 59.2 6.97
-1 -2 -10 51.15 6.03
1 2 10 51.75 5.69
1 2 10 49.9 5.04
1 2 10 57.92 5.55
-1 -2 -11 446.86 12.55
-1 -2 -11 450.16 11.38
1 2 11 486.82 11.66
1 2 11 464.09 10.87
-1 -2 -12 -2.65 4.47
1 2 12 -1.96 4.47
1 2 12 1.48 4.84
-1 -3 10 -0.94 4.52
-1 -3 9 6.43 3.78
-1 -3 9 3.02 4.1
1 3 -9 2.79 5.12
1 3 -9 2.79 3.73
-1 -3 8 47.34 5.89
-1 -3 8 40.17 4.72
-1 -3 8 40.25 4.49
1 3 -8 36.93 4.86
1 3 -8 38.01 4.27
-1 -3 7 0.8 2.7
-1 -3 7 1.39 2.93
1 3 -7 -1.37 3.04
1 3 -7 2.56 2.73
-1 -3 6 921.48 11.95
-1 -3 6 900.99 11.81
1 3 -6 938.83 12
1 3 -6 973.93 12.15
-1 -3 5 729.28 9.96
-1 -3 5 754.77 10.04
1 3 -5 731.02 9.99
1 3 -5 790.42 10.21
-1 -3 4 392.78 7
-1 -3 4 408.76 7.08
1 3 -4 389.48 6.94
1 3 -4 397.9 6.88
-1 -3 3 81.5 3.61
-1 -3 3 79.6 3.67
1 3 -3 75.78 3.64
1 3 -3 87.93 3.73
-1 -3 2 648.15 7.17
-1 -3 2 683.74 7.4
1 3 -2 661.15 7.28
1 3 -2 674.32 7.34
-1 -3 1 618.25 6.49
-1 -3 1 583.03 6.32
1 3 -1 580.93 6.34
-1 -3 0 140.13 3.27
-1 -3 0 140.87 3.33
1 3 0 144.8 3.41
1 3 0 142.38 3.3
-1 -3 -1 85.66 2.82
-1 -3 -1 92.06 2.82
1 3 1 86.82 2.84
1 3 1 75.33 2.73
-1 -3 -2 748.12 6.77
-1 -3 -2 721.03 6.71
-1 -3 -2 714.04 4.1
1 3 2 737.14 6.77
1 3 2 716.45 6.66
-1 -3 -3 238.79 4.41
-1 -3 -3 234.12 4.3
-1 -3 -3 226.81 2.67
1 3 3 238.87 4.32
-1 -3 -4 827.77 8.22
-1 -3 -4 825.95 8.22
-1 -3 -4 809.25 5.95
1 3 4 830.61 8.25
1 3 4 833.49 8.22
1 3 4 813.86 5.72
-1 -3 -5 105.03 3.93
-1 -3 -5 104.66 3.93
1 3 5 99.74 3.84
1 3 5 101.56 3.87
1 3 5 103.32 2.87
-1 -3 -6 31.26 3.64
-1 -3 -6 33.26 3.47
1 3 6 30.18 3.36
1 3 6 29.64 2.65
-1 -3 -7 3.21 2.28
-1 -3 -7 3.61 2.16
1 3 7 5.69 2.42
1 3 7 3.24 2.25
1 3 7 3.84 1.88
-1 -3 -8 -2.3 2.53
-1 -3 -8 0.51 2.3
1 3 8 -4.1 2.28
1 3 8 -1.08 2.33
1 3 8 0.06 2.02
-1 -3 -9 680.72 11.66
-1 -3 -9 651.79 11.07
1 3 9 597.37 16.22
1 3 9 672.62 11.46
1 3 9 702.71 10.01
-1 -3 -10 182.15 8.42
-1 -3 -10 186.47 7.88
1 3 10 185.36 7.97
1 3 10 173.33 8.25
1 3 10 185.68 7
-1 -3 -11 674.15 14.17
-1 -3 -11 707.38 13.6
1 3 11 720.64 13.83
1 3 11 722.83 12.52
-1 -4 9 18.46 4.58
-1 -4 9 26.6 5.38
1 4 -9 10.95 6.49
1 4 -9 19.63 4.84
-1 -4 8 493.28 11.21
-1 -4 8 460.62 11.09
1 4 -8 472.69 12.12
1 4 -8 489.21 11.21
-1 -4 7 351.1 9.05
1 4 -7 349.91 9.67
1 4 -7 370.42 9.27
-1 -4 6 23.24 3.44
1 4 -6 21.96 3.61
1 4 -6 23.5 3.36
-1 -4 5 270.42 6.97
-1 -4 5 295.03 7.31
1 4 -5 275.91 7.54
1 4 -5 301.32 7.25
-1 -4 4 481.56 8.08
-1 -4 4 478.32 8.11
1 4 -4 459.23 7.99
1 4 -4 509.53 8.28
-1 -4 3 32.49 3.39
-1 -4 3 30.3 3.5
1 4 -3 24.75 2.62
1 4 -3 27.62 3.33
-1 -4 2 418.35 6.49
-1 -4 2 413.57 6.51
1 4 -2 421.96 6.57
1 4 -2 420.8 6.57
-1 -4 1 11.01 1.76
-1 -4 1 15.13 1.91
1 4 -1 14.85 1.91
1 4 -1 10.33 1.79
-1 -4 0 16.16 1.88
-1 -4 0 13.97 1.76
1 4 0 16.98 1.91
1 4 0 13.97 1.79
-1 -4 -1 28.59 2.56
-1 -4 -1 26.74 2.56
1 4 1 29.07 2.56
1 4 1 28.02 2.53
-1 -4 -2 1539.53 10.81
-1 -4 -2 1494.33 10.67
1 4 2 1546.02 10.87
1 4 2 1515.6 10.72
-1 -4 -3 361.14 5.83
-1 -4 -3 355 5.77
-1 -4 -3 338.75 2.84
1 4 3 355.11 5.75
1 4 3 332.7 5.6
-1 -4 -4 1045.79 9.9
-1 -4 -4 1050.49 9.99
1 4 4 1054.13 9.99
1 4 4 1009.21 9.67
-1 -4 -5 0.2 1.76
-1 -4 -5 1.08 1.74
1 4 5 0.71 1.74
1 4 5 0.14 1.68
1 4 5 -0.14 1.08
-1 -4 -6 49.44 4.12
-1 -4 -6 40.91 3.9
1 4 6 48.13 4.15
1 4 6 48.53 3.87
1 4 6 46.2 2.65
-1 -4 -7 297.65 7.42
-1 -4 -7 285.93 7
1 4 7 296.57 7.23
1 4 7 290.79 7.25
1 4 7 290.88 5.35
-1 -4 -8 132.82 6.4
-1 -4 -8 133.5 6.03
1 4 8 130.8 6.03
1 4 8 123.35 6.26
1 4 8 139.42 4.72
-1 -4 -9 1780.68 18.18
-1 -4 -9 1884.74 18.49
1 4 9 1848.33 18.41
1 4 9 1773.11 18.06
1 4 9 1875.15 14.85
-1 -4 -10 56.13 6.8
-1 -4 -10 64.18 6.09
1 4 10 53.85 6.43
1 4 10 62.98 7.25
1 4 10 58.12 5.58
-1 -4 -11 22.67 4.78
1 4 11 17.72 4.69
1 4 11 16.58 4.32
-1 -5 8 13.11 4.1
-1 -5 8 12.18 4.12
1 5 -8 23.18 6.12
1 5 -8 12.2 4.24
-1 -5 7 9.62 6.51
-1 -5 7 7.45 3.73
1 5 -7 6.37 4.61
1 5 -7 2.47 3.61
-1 -5 6 91.97 6.29
-1 -5 6 102.58 6.4
1 5 -6 100.45 6.97
1 5 -6 105.37 6.23
-1 -5 5 66.71 5.09
-1 -5 5 69.24 5.26
1 5 -5 63.81 5.63
1 5 -5 77.29 6.23
-1 -5 4 501.13 8.82
-1 -5 4 516.89 8.93
1 5 -4 495.16 9.13
1 5 -4 518.69 8.93
-1 -5 3 633.39 9.13
-1 -5 3 625.65 9.1
1 5 -3 583.06 8.88
1 5 -3 624 9.07
-1 -5 2 30.44 3.61
-1 -5 2 31.38 3.56
1 5 -2 24.72 2.7
1 5 -2 31.04 3.5
-1 -5 1 17.01 2.22
-1 -5 1 15.96 2.25
1 5 -1 15.39 2.28
1 5 -1 14.25 2.33
-1 -5 0 233.38 5.38
-1 -5 0 234.92 5.29
1 5 0 233.38 5.23
1 5 0 221.21 5.18
-1 -5 -1 1.56 1.65
-1 -5 -1 3.73 1.65
1 5 1 3.58 1.74
1 5 1 3.76 1.71
-1 -5 -2 764.59 8.65
-1 -5 -2 748.63 8.59
1 5 2 799.44 8.82
1 5 2 785.87 8.76
-1 -5 -3 155.89 4.92
-1 -5 -3 163.2 4.78
1 5 3 169.38 4.89
1 5 3 165.42 4.81
-1 -5 -4 97.72 4.24
-1 -5 -4 96.78 4.32
1 5 4 104.06 4.3
1 5 4 97.43 4.32
-1 -5 -5 1081.75 11.58
-1 -5 -5 1133.81 11.86
1 5 5 1119.19 11.75
1 5 5 1061.3 13.94
-1 -5 -6 796.25 10.7
-1 -5 -6 793.94 10.61
1 5 6 768.06 10.58
1 5 6 767.77 10.55
1 5 6 778.95 6.17
-1 -5 -7 4219.04 24.89
-1 -5 -7 4234.29 24.98
1 5 7 4352.94 25.35
1 5 7 4101.64 24.52
1 5 7 4028.13 15.82
-1 -5 -8 0.31 3.02
-1 -5 -8 -1.48 2.9
1 5 8 0.94 2.73
1 5 8 1.93 3.02
1 5 8 0.6 1.93
-1 -5 -9 2.36 3.53
-1 -5 -9 1.11 2.96
1 5 9 -2.5 3.1
1 5 9 3.78 3.64
1 5 9 1.65 2.5
-1 -5 -10 35.19 7.34
-1 -5 -10 43.72 5.12
1 5 10 35.96 4.95
1 5 10 50.38 7.48
1 5 10 35.5 4.04
-1 -5 -11 43.27 5.46
1 5 11 56.47 6.03
1 5 11 59.37 5.41
-1 -6 7 11.38 4.18
-1 -6 7 5.83 3.76
1 6 -7 11.09 5.72
1 6 -7 8.14 4.18
-1 -6 6 86.94 6.69
-1 -6 6 73.34 6.12
1 6 -6 79.03 7.79
1 6 -6 85.03 6.66
-1 -6 5 438.12 9.67
-1 -6 5 473.71 9.87
1 6 -5 446.97 10.07
1 6 -5 503.49 10.1
-1 -6 4 254.46 7.34
-1 -6 4 256.6 7.34
1 6 -4 259.24 7.77
1 6 -4 273.21 7.54
-1 -6 3 12.29 2.84
-1 -6 3 17.67 2.93
1 6 -3 15.87 3.13
-1 -6 2 284.65 6.86
-1 -6 2 292.24 6.88
1 6 -2 276.14 6.94
1 6 -2 300.92 6.94
-1 -6 1 1.17 2.22
-1 -6 1 2.93 2.11
1 6 -1 -2.3 2.02
1 6 -1 0.31 2.22
-1 -6 0 16.3 2.53
-1 -6 0 14.94 2.47
1 6 0 12.63 2.45
1 6 0 12.89 2.5
-1 -6 -1 0.54 1.96
-1 -6 -1 1.31 1.96
1 6 1 2.79 2.11
1 6 1 3.47 2.08
-1 -6 -2 21.96 2.67
-1 -6 -2 25.01 2.82
1 6 2 24.07 2.73
1 6 2 20.17 2.67
-1 -6 -3 1197.87 12
-1 -6 -3 1104.25 11.58
1 6 3 1162.14 11.86
1 6 3 1143.59 11.75
-1 -6 -4 3783.39 21.51
-1 -6 -4 3775.77 21.51
1 6 4 3639.28 21.14
1 6 4 3584.91 21.28
-1 -6 -5 2697.46 19
-1 -6 -5 2736.95 19.23
1 6 5 2687.42 19
1 6 5 2649.44 18.8
-1 -6 -6 112.91 5.75
-1 -6 -6 116.07 5.72
1 6 6 119.57 5.86
1 6 6 118.43 5.97
-1 -6 -7 3.41 2.99
-1 -6 -7 1.17 2.67
1 6 7 0.09 2.7
1 6 7 1.79 2.99
-1 -6 -8 7.94 3.56
-1 -6 -8 6.69 3.07
1 6 8 9.79 3.3
1 6 8 9.44 3.61
1 6 8 6.77 2.02
-1 -6 -9 -3.84 3.81
-1 -6 -9 1.19 3.41
1 6 9 -2.33 3.3
1 6 9 -3.19 3.84
1 6 9 2.56 2.62
-1 -6 -10 124.49 8.19
1 6 10 112.62 8.28
1 6 10 106.91 6.23
-1 -7 6 8.11 4.04
-1 -7 6 8.76 3.87
1 7 -6 8.62 5.69
1 7 -6 10.53 4.41
-1 -7 5 12.57 3.7
-1 -7 5 12.8 3.44
1 7 -5 19.12 4.95
1 7 -5 8.11 3.81
-1 -7 4 35.08 4.12
-1 -7 4 31.92 4.04
-1 -7 4 32.2 3.76
1 7 -4 24.64 4.49
1 7 -4 31.95 4.07
-1 -7 3 104.12 5.92
-1 -7 3 90.12 5.66
1 7 -3 99.62 6.69
1 7 -3 97.77 6
-1 -7 2 217.37 6.88
-1 -7 2 215.78 6.69
1 7 -2 205.48 8.39
1 7 -2 220.55 6.83
-1 -7 1 -3.27 2.36
-1 -7 1 1.17 2.3
1 7 -1 0.85 2.56
1 7 -1 4.32 2.7
-1 -7 0 37.64 4.32
-1 -7 0 39.63 4.3
1 7 0 40.34 4.3
1 7 0 36.1 4.47
-1 -7 -1 425.18 8.14
-1 -7 -1 420.14 8.11
1 7 1 467.85 8.51
1 7 1 429.64 8.31
-1 -7 -2 3205 20.45
-1 -7 -2 3141.73 20.23
1 7 2 3368.09 20.94
1 7 2 3388.54 20.88
-1 -7 -3 1479.87 14.45
-1 -7 -3 1359.31 13.85
1 7 3 1394.16 14
1 7 3 1185.61 17.07
-1 -7 -4 18.89 3.1
-1 -7 -4 20.34 3.04
1 7 4 17.18 3.19
-1 -7 -5 2.79 2.62
-1 -7 -5 0.17 2.3
1 7 5 3.36 2.56
1 7 5 0.51 2.76
-1 -7 -6 14.59 3.24
-1 -7 -6 18.52 3.36
1 7 6 17.92 3.36
1 7 6 18.23 3.73
-1 -7 -7 5.38 3.39
-1 -7 -7 5.97 3.21
1 7 7 2.79 3.02
1 7 7 8.53 3.64
-1 -7 -8 618.59 16.58
-1 -7 -8 614.5 12.09
1 7 8 623.43 12.2
1 7 8 592.99 12.43
-1 -7 -9 1.59 3.93
1 7 9 2.65 3.87
1 7 9 -3.13 4.61
-1 -7 -10 283.17 10.78
1 7 10 271.82 10.81
-1 -8 5 23.58 4.58
-1 -8 5 23.47 4.24
1 8 -5 12.69 6.34
1 8 -5 17.52 4.78
-1 -8 4 179.87 7.97
-1 -8 4 177.83 6.97
1 8 -4 163.26 9.99
1 8 -4 187.41 8.39
-1 -8 3 154.56 7.06
-1 -8 3 156.69 7.45
1 8 -3 161.53 8.45
1 8 -3 158.51 7.65
-1 -8 2 32.23 4.12
-1 -8 2 42.67 5.32
-1 -8 2 33.8 3.95
1 8 -2 38.75 4.69
1 8 -2 37.29 4.15
-1 -8 1 211.76 7.48
-1 -8 1 216.43 7.31
-1 -8 1 222.03 5.38
1 8 -1 219.99 7.85
-1 -8 0 2421.52 19.43
-1 -8 0 2439.98 19.4
-1 -8 0 2449.26 13.54
1 8 0 2573.97 19.97
1 8 0 2405.33 19.29
-1 -8 -1 1664.78 16.19
-1 -8 -1 1661.74 16.07
-1 -8 -1 1697.16 9.33
1 8 1 1684.07 16.24
1 8 1 1632.92 16.07
-1 -8 -2 248.03 7.45
-1 -8 -2 238.87 7.25
1 8 2 236.74 7.31
1 8 2 225.76 7.51
-1 -8 -3 3.02 2.87
-1 -8 -3 6.09 2.84
1 8 3 5.35 2.87
1 8 3 8.28 3.47
-1 -8 -4 73.05 5.83
-1 -8 -4 71.49 5.46
1 8 4 67.99 5.52
1 8 4 83.35 6.29
-1 -8 -5 228.43 7.85
-1 -8 -5 240.44 7.71
1 8 5 253.24 7.99
1 8 5 246.04 8.48
-1 -8 -6 314.46 9.16
-1 -8 -6 316.42 10.92
1 8 6 356.76 9.44
1 8 6 336.54 9.93
-1 -8 -7 12.37 3.78
1 8 7 18.49 4.15
1 8 7 9.39 4.72
-1 -8 -8 341.63 10.47
1 8 8 335.94 10.58
1 8 8 367.17 11.98
-1 -8 -9 -7.79 4.12
1 8 9 -2.56 4.35
-1 -9 4 113.73 8.31
-1 -9 4 116.32 6.91
1 9 -4 123.15 9.27
-1 -9 3 1.85 3.1
1 9 -3 -0.09 5.89
1 9 -3 -0.85 4.3
-1 -9 2 2034.97 20.03
-1 -9 2 2045.24 16.3
1 9 -2 2065.78 20.94
1 9 -2 2014.83 19.97
-1 -9 1 496.21 10.7
-1 -9 1 515.04 7.85
1 9 -1 503.49 11.81
1 9 -1 511.66 11.12
-1 -9 0 399.66 9.67
-1 -9 0 385.01 5.92
1 9 0 387.68 9.67
1 9 0 355.25 10.38
-1 -9 -1 28.36 3.84
-1 -9 -1 32.06 2.19
1 9 1 28.56 4.12
1 9 1 27.99 4.81
-1 -9 -2 30.07 6.29
-1 -9 -2 34.76 4.07
1 9 2 31.8 4.27
1 9 2 24.92 4.67
-1 -9 -3 247.27 8.22
1 9 3 262.17 8.45
1 9 3 252.22 9.27
-1 -9 -4 26.11 3.98
1 9 4 28.96 4.3
1 9 4 29.59 5.09
-1 -9 -5 49.87 6.09
1 9 5 43.07 4.89
1 9 5 50.58 5.69
-1 -9 -6 309.03 9.64
1 9 6 300.63 9.79
1 9 6 293.38 11.21
-1 -9 -7 44.61 5.23
1 9 7 41.05 5.41
1 9 7 38.86 6.66
-1 -9 -8 938.09 16.13
1 9 8 898.29 17.13
-1 -10 1 3.44 3.84
-1 -10 1 3.78 2.53
1 10 -1 1.02 7.45
1 10 -1 -7.65 4.12
-1 -10 0 15.08 5.06
-1 -10 0 22.47 3.44
1 10 0 20.4 6.34
-1 -10 -1 122.24 12.69
1 10 1 125 8.25
1 10 1 109.72 10.41
-1 -10 -2 120.31 7.74
1 10 2 107.62 8.08
1 10 2 113.02 9.99
-1 -10 -3 20.94 4.47
1 10 3 21.45 4.64
1 10 3 26.77 6.17
-1 -10 -4 82.47 7.6
1 10 4 82.61 7.97
1 10 4 76.58 7.54
-1 -10 -5 154.39 8.56
1 10 5 147.79 8.99
1 10 5 134.02 11.69
-1 -10 -6 493.94 12.4
1 10 6 595.04 19.32
1 10 6 487.42 15.67
-2 9 5 22.36 4.75
2 -9 -5 12.77 3.93
-2 9 4 132.71 7.71
2 -9 -4 140.56 6.88
-2 9 3 22.08 4.12
-2 9 3 20.57 5.55
2 -9 -3 21.48 3.5
-2 9 2 125.4 6.77
-2 9 2 123.18 7.77
2 -9 -2 124.49 6
-2 9 1 -1.28 3.24
-2 9 1 5.09 3.98
2 -9 -1 2.05 2.62
-2 9 0 356.02 8.36
-2 9 0 335.63 8.76
2 -9 0 326.98 8.7
2 -9 0 322.06 7.42
-2 9 -1 166.36 8.34
-2 9 -1 164.91 6.91
2 -9 1 173.42 7.77
2 -9 1 165.65 5.97
-2 9 -2 480.85 9.22
2 -9 2 462.13 8.73
2 -9 2 457.67 7.17
-2 9 -3 144.4 7.2
2 -9 3 131.09 5.58
-2 9 -4 -2.47 3.73
2 -9 4 5.97 3.1
-2 8 7 6.06 4.67
2 -8 -7 -0.48 4.15
-2 8 6 154.84 8.28
-2 8 6 148.95 10.24
2 -8 -6 163.26 7.79
-2 8 5 -1.11 3.53
2 -8 -5 -2.62 3.07
-2 8 4 7.6 3.24
-2 8 4 7.08 3.93
2 -8 -4 11.27 5.23
2 -8 -4 6.74 2.84
-2 8 3 1.96 2.93
-2 8 3 -0.68 3.24
2 -8 -3 -0.85 2.56
2 -8 -3 1.08 2.36
-2 8 2 332.24 7.57
-2 8 2 304.9 7.71
2 -8 -2 311.33 7.23
2 -8 -2 302.97 7.08
-2 8 1 629.12 9.3
-2 8 1 591.06 9.19
2 -8 -1 591.71 8.99
2 -8 -1 583.18 8.79
-2 8 0 59.06 4.64
-2 8 0 53.82 5.06
2 -8 0 54.62 4.35
2 -8 0 48.5 3.98
-2 8 -1 206.53 6.34
2 -8 1 188.98 5.86
2 -8 1 201.75 5.63
-2 8 -2 71.66 5.38
-2 8 -2 75.9 5.01
2 -8 2 73.31 4.64
2 -8 2 69.95 4.24
2 -8 2 73.68 3.87
-2 8 -3 1.14 3.16
-2 8 -3 -0.65 2.82
2 -8 3 3.16 2.62
2 -8 3 2.9 2.28
2 -8 3 8.14 2.36
-2 8 -4 9.22 3.78
-2 8 -4 6.97 3.19
2 -8 4 5.32 2.96
2 -8 4 9.81 2.62
2 -8 4 13.91 3.53
-2 8 -5 9.02 3.56
2 -8 5 13.31 4.01
2 -8 5 13.2 3.44
-2 8 -6 0.4 3.84
2 -8 6 0.46 3.56
-2 7 8 74.9 7.99
-2 7 8 57.38 7.85
2 -7 -8 77.01 7.48
-2 7 7 17.04 4.41
-2 7 7 11.07 5.35
2 -7 -7 13.85 3.9
-2 7 6 14.22 3.76
-2 7 6 8.85 4.38
2 -7 -6 18.78 3.64
-2 7 5 44.83 5.49
-2 7 5 49.73 4.72
2 -7 -5 37.12 3.98
2 -7 -5 43.81 4.81
-2 7 4 408.99 8.45
-2 7 4 408.96 8.7
2 -7 -4 391.84 8.22
2 -7 -4 397.27 8.16
-2 7 3 456.36 8.16
-2 7 3 458.26 8.36
2 -7 -3 436.98 8.02
2 -7 -3 452.97 8.02
2 -7 -3 459.86 6.32
-2 7 2 -4.3 3.33
-2 7 2 2.19 2.36
2 -7 -2 1.19 2.05
2 -7 -2 1.14 1.96
2 -7 -2 0.74 2.05
-2 7 1 5.52 2.28
-2 7 1 2.84 2.16
2 -7 -1 4.95 2.11
2 -7 -1 2.87 1.88
2 -7 -1 3.16 2.28
-2 7 0 11.09 2.28
-2 7 0 13.43 2.39
2 -7 0 11.46 2.19
2 -7 0 8.96 1.99
2 -7 0 11.55 2.7
-2 7 -1 3.95 2.11
-2 7 -1 3.16 2.08
2 -7 1 4.15 2.02
2 -7 1 3.27 1.79
2 -7 1 4.3 1.51
2 -7 1 2.73 2.65
-2 7 -2 32.52 3.78
-2 7 -2 29.96 3.67
2 -7 2 30.55 3.44
2 -7 2 25.8 3.02
2 -7 2 28.79 3.02
-2 7 -3 268.4 6.14
-2 7 -3 291.73 6.57
2 -7 3 274.52 6.09
2 -7 3 285.39 5.95
2 -7 3 285.53 6.32
-2 7 -4 43.33 4.84
-2 7 -4 55.47 4.61
2 -7 4 44.72 4.27
2 -7 4 44.69 3.78
2 -7 4 50.86 4.35
-2 7 -5 6.14 3.39
-2 7 -5 5.89 2.84
2 -7 5 4.27 2.62
2 -7 5 4.72 2.36
2 -7 5 10.1 2.99
-2 7 -6 0.74 4.01
-2 7 -6 -1.31 3.04
2 -7 6 -0.6 3.39
2 -7 6 1.17 2.59
2 -7 6 -2.47 3.02
-2 7 -7 377.33 9.39
2 -7 7 351.75 10.04
-2 6 8 123.06 7.97
-2 6 8 112.88 10.04
-2 6 8 121.33 5.6
2 -6 -8 116.41 7.54
-2 6 7 52.32 6.12
-2 6 7 38.72 5.26
-2 6 7 48.39 3.84
2 -6 -7 44.38 4.52
-2 6 6 210.57 7.34
-2 6 6 220.98 8.19
-2 6 6 217.91 3.95
2 -6 -6 207.16 7.34
2 -6 -6 217.23 7.17
-2 6 5 477.58 8.93
-2 6 5 473.34 9.19
2 -6 -5 459.6 8.76
2 -6 -5 490.61 8.99
2 -6 -5 464.86 5.09
-2 6 4 65.46 4.78
-2 6 4 80.36 4.98
2 -6 -4 70.92 4.41
2 -6 -4 72.48 4.47
2 -6 -4 72.57 2.96
-2 6 3 181.58 5.46
-2 6 3 182.43 5.55
2 -6 -3 177.29 5.26
2 -6 -3 179.87 5.26
2 -6 -3 179.9 4.07
-2 6 2 14.91 2.39
-2 6 2 15.36 2.3
2 -6 -2 16.47 2.28
2 -6 -2 13.68 2.13
2 -6 -2 19.23 2.33
-2 6 1 152.22 4.55
-2 6 1 144.68 4.35
2 -6 -1 143.18 4.35
2 -6 -1 138.51 4.21
2 -6 -1 156.26 4.61
-2 6 0 307.95 5.43
-2 6 0 292.27 5.23
2 -6 0 313.78 5.49
2 -6 0 279.78 5.12
2 -6 0 296.28 6.12
-2 6 -1 29.7 3.13
-2 6 -1 34.59 3.04
2 -6 1 30.64 2.96
2 -6 1 31.66 3.47
2 -6 1 31.63 2.47
2 -6 1 30.13 3.24
-2 6 -2 66.74 3.47
-2 6 -2 71.86 3.5
2 -6 2 70.81 3.41
2 -6 2 51.97 4.75
2 -6 2 69.55 3.41
2 -6 2 63.21 4.49
-2 6 -3 99.48 3.95
-2 6 -3 113.51 4.12
2 -6 3 109.44 4.04
2 -6 3 92.45 3.5
2 -6 3 104.77 4.24
2 -6 3 102.07 5.23
-2 6 -4 22.59 2.65
-2 6 -4 28.08 2.7
2 -6 4 27.62 3.41
2 -6 4 25.4 3.07
2 -6 4 26.06 2.93
-2 6 -5 521.59 8.02
2 -6 5 552.45 8.14
2 -6 5 539.31 7.91
2 -6 5 538.12 9.3
-2 6 -6 24.49 3.61
-2 6 -6 28.93 3.3
2 -6 6 29.05 3.13
2 -6 6 37.07 4.04
2 -6 6 27.31 3.64
-2 6 -7 4.24 3.84
-2 6 -7 7.88 3.21
2 -6 7 2.42 2.9
2 -6 7 1.28 2.5
2 -6 7 4.3 3.41
-2 6 -8 43.27 4.75
2 -6 8 44.66 5.46
2 -6 8 55.67 6.51
-2 5 9 75.16 7.99
-2 5 9 78.4 7.88
-2 5 9 78.83 6.91
2 -5 -9 69.33 7.42
-2 5 8 6.23 3.84
-2 5 8 -4.07 4.38
-2 5 8 5.32 3.16
2 -5 -8 1.31 3.27
-2 5 7 239.44 8.05
-2 5 7 224.88 8.34
-2 5 7 242.8 5.75
2 -5 -7 224.76 7.97
2 -5 -7 241.63 7.74
2 -5 -7 228.95 4.12
-2 5 6 6.34 2.82
-2 5 6 3.98 3.07
2 -5 -6 3.21 2.67
2 -5 -6 6.91 2.59
2 -5 -6 6.34 1.68
-2 5 5 348.14 8.7
-2 5 5 369.31 7.77
2 -5 -5 373.09 7.68
2 -5 -5 383.05 7.77
2 -5 -5 377.78 4.89
-2 5 4 495.39 8.08
-2 5 4 512.11 8.14
2 -5 -4 505.74 8.08
2 -5 -4 488.56 7.91
2 -5 -4 501.33 5.58
-2 5 3 124.54 4.58
-2 5 3 118.51 4.41
-2 5 3 119.11 2.47
2 -5 -3 120.45 4.35
2 -5 -3 126.11 4.38
2 -5 -3 97.26 4.72
-2 5 2 154.04 4.35
-2 5 2 153.59 4.32
-2 5 2 150.72 2.53
2 -5 -2 159.42 4.35
2 -5 -2 145.05 4.15
2 -5 -2 155.24 3.9
-2 5 1 4.78 1.68
-2 5 1 4.07 1.51
-2 5 1 4.3 1.14
2 -5 -1 3.78 1.82
2 -5 -1 2.45 1.39
2 -5 -1 4.61 1.85
-2 5 0 380.43 5.18
-2 5 0 349.91 4.86
-2 5 0 349 4.35
2 -5 0 354.43 5.01
2 -5 0 332.41 4.81
2 -5 0 358.78 5.97
-2 5 -1 27.79 2.5
-2 5 -1 27.74 2.39
2 -5 1 27.68 2.36
2 -5 1 24.72 2.25
2 -5 1 27.82 2.28
2 -5 1 28.11 3.19
-2 5 -2 94.08 3.1
-2 5 -2 107.13 3.24
2 -5 2 101.81 3.24
2 -5 2 95.07 3.02
2 -5 2 95.53 3.5
2 -5 2 93.73 4.38
-2 5 -3 596.97 6.37
-2 5 -3 653.1 6.71
2 -5 3 591.65 7.06
2 -5 3 593.56 6.46
2 -5 3 605.14 7.85
2 -5 3 608.3 9.13
-2 5 -4 429.67 6.09
-2 5 -4 489.3 6.46
2 -5 4 450.18 6.37
2 -5 4 421.2 6.03
2 -5 4 447.94 7.6
2 -5 4 456.5 8.65
-2 5 -5 0.28 2.02
-2 5 -5 1.68 1.93
2 -5 5 -2.05 1.71
2 -5 5 2.56 1.68
2 -5 5 -0.26 2.13
-2 5 -6 57.35 4.52
-2 5 -6 46.28 5.46
2 -5 6 61.08 4.07
2 -5 6 59.43 3.98
2 -5 6 51.77 4.89
-2 5 -7 11.78 3.27
-2 5 -7 10.58 2.79
2 -5 7 10.38 2.76
2 -5 7 9.39 2.5
2 -5 7 8.68 3.27
-2 5 -8 32.37 4.67
-2 5 -8 30.3 3.95
2 -5 8 23.21 4.15
2 -5 8 32.4 3.67
2 -5 8 29.56 4.44
-2 5 -9 7.2 3.93
2 -5 9 6.23 3.39
2 -5 9 -0.91 4.04
-2 4 9 89.3 7.68
-2 4 9 102.04 9.84
-2 4 9 110.18 7.06
2 -4 -9 108.53 7.6
2 -4 -9 105.43 4.35
-2 4 8 6.86 3.56
-2 4 8 5.97 4.21
2 -4 -8 6.86 3.36
2 -4 -8 13.4 2.33
-2 4 7 67.71 5.55
-2 4 7 64.26 6.12
2 -4 -7 66.17 5.52
2 -4 -7 60.57 5.21
2 -4 -7 61.85 3.24
-2 4 6 148.24 5.92
-2 4 6 142.27 7.51
2 -4 -6 144.12 5.77
2 -4 -6 153.45 5.86
2 -4 -6 152.19 3.78
-2 4 5 18.18 2.82
-2 4 5 19.69 2.87
2 -4 -5 20.37 2.82
2 -4 -5 21.31 2.73
2 -4 -5 20.6 2.13
-2 4 4 107.05 4.44
-2 4 4 104.72 4.44
2 -4 -4 97.23 4.21
2 -4 -4 98.6 4.24
2 -4 -4 100.73 3.1
-2 4 3 263.43 5.35
-2 4 3 262.94 5.26
2 -4 -3 263.6 5.23
2 -4 -3 256.03 5.21
2 -4 -3 266.81 4.3
-2 4 2 80.99 3.24
-2 4 2 79.85 3.13
-2 4 2 75.61 2.22
2 -4 -2 79.23 3.21
2 -4 -2 76.81 3.07
2 -4 -2 77.61 2.79
-2 4 1 336.25 4.61
-2 4 1 317.67 4.44
-2 4 1 312.81 3.67
2 -4 -1 314.06 4.52
2 -4 -1 326.86 5.04
-2 4 0 1090.97 7.03
-2 4 0 1028.64 6.77
-2 4 0 1022.35 6.83
2 -4 0 1045.96 7.03
2 -4 0 934.73 6.6
2 -4 0 1063.43 8.82
-2 4 -1 1707.31 8.11
-2 4 -1 1665.58 7.97
-2 4 -1 1646.21 9.59
2 -4 1 1705.24 8.36
2 -4 1 1614.12 9.47
2 -4 1 1669.73 11.66
-2 4 -2 330.48 3.87
-2 4 -2 364.39 4.1
-2 4 -2 328.91 5.12
2 -4 2 344.39 4.15
2 -4 2 331.67 5.06
2 -4 2 347.52 6.14
-2 4 -3 51.58 2.45
-2 4 -3 58.09 2.53
2 -4 3 56.18 2.5
2 -4 3 47.91 2.3
2 -4 3 52.66 3.19
2 -4 3 52.43 3.64
-2 4 -4 485.35 5.77
-2 4 -4 529.24 6
2 -4 4 506.48 6
2 -4 4 461.56 5.75
2 -4 4 484.24 7.42
2 -4 4 494.62 8.28
-2 4 -5 8.76 2.02
-2 4 -5 7.2 1.85
2 -4 5 9.53 1.93
2 -4 5 7.82 1.85
2 -4 5 10.27 2.5
2 -4 5 10.1 2.9
-2 4 -6 57.78 4.04
-2 4 -6 69.58 3.93
2 -4 6 62.73 3.76
2 -4 6 59.14 3.7
2 -4 6 58.69 4.52
-2 4 -7 540.22 8.68
-2 4 -7 580.02 8.88
2 -4 7 600.05 8.76
2 -4 7 548.1 10.04
-2 4 -8 268.55 7.94
-2 4 -8 289.77 7.51
2 -4 8 288.43 7.17
2 -4 8 252.07 7.2
2 -4 8 263.34 8.31
-2 4 -9 1.71 4.3
-2 4 -9 5.95 3.44
2 -4 9 3.67 3.04
2 -4 9 4.01 3.7
-2 4 -10 113.05 7.74
2 -4 10 114.05 7.2
2 -4 10 115.58 8.28
-2 3 10 3.41 4.58
-2 3 10 -0.65 4.58
2 -3 -10 2.99 4.32
-2 3 9 85.29 7.45
-2 3 9 95.13 9.1
-2 3 9 82.41 6.66
2 -3 -9 99.14 7.25
-2 3 8 3.64 3.33
-2 3 8 -3.84 3.81
2 -3 -8 2.11 3.33
2 -3 -8 6.69 3.24
-2 3 7 418.32 9.05
-2 3 7 396.7 9.22
2 -3 -7 393.66 8.9
2 -3 -7 378.69 8.65
-2 3 6 0.6 2.3
-2 3 6 -1.08 2.56
2 -3 -6 0.63 2.25
2 -3 -6 1.65 2.19
-2 3 5 195.81 5.83
-2 3 5 191.88 5.75
2 -3 -5 180.33 5.49
2 -3 -5 190.2 5.55
2 -3 -5 188.18 4.12
-2 3 4 23.78 2.5
-2 3 4 25.55 2.56
2 -3 -4 28.73 3.13
2 -3 -4 26.77 3.04
2 -3 -4 25.49 2.39
-2 3 3 101.36 3.67
-2 3 3 104.55 3.56
2 -3 -3 95.04 3.5
2 -3 -3 96.84 3.47
2 -3 -3 94.39 2.87
-2 3 2 1128.18 8.34
-2 3 2 1119.07 8.25
2 -3 -2 1112.84 8.34
2 -3 -2 1079.39 8.19
2 -3 -2 1124.39 7.85
-2 3 1 1098.02 7.11
-2 3 1 1068.61 6.97
2 -3 -1 1045.45 7
2 -3 -1 1005.88 6.83
2 -3 -1 1072.48 7.79
-2 3 0 6.71 1
-2 3 0 5.69 0.91
-2 3 0 6.26 1.08
2 -3 0 6.03 0.94
2 -3 0 6.51 1.54
-2 3 -1 1468.52 5.8
-2 3 -1 1407.5 5.63
-2 3 -1 1419.99 8.51
2 -3 1 1480.1 6.14
2 -3 1 1429.01 6.03
2 -3 1 1385.09 8.42
2 -3 1 1485.59 10.07
-2 3 -2 302.26 2.93
-2 3 -2 340.26 3.1
-2 3 -2 310.42 4.69
2 -3 2 314.43 3.16
2 -3 2 294.69 3.07
2 -3 2 306.24 4.64
2 -3 2 323.59 5.38
-2 3 -3 189.8 2.96
-2 3 -3 208.01 3.07
-2 3 -3 192.93 4.35
2 -3 3 192.33 3.07
2 -3 3 200.75 4.35
2 -3 3 197.06 4.78
-2 3 -4 29.53 2.25
-2 3 -4 31.61 2.28
-2 3 -4 33.65 3.13
2 -3 4 29.53 2.16
2 -3 4 30.41 2.87
2 -3 4 30.69 3.1
-2 3 -5 864.32 7.82
-2 3 -5 928.67 8.11
2 -3 5 861.62 7.91
2 -3 5 807 9.27
2 -3 5 849.1 9.9
2 -3 5 879.54 10.47
-2 3 -6 605.14 7.65
-2 3 -6 632.79 7.77
2 -3 6 557.77 7.34
2 -3 6 593.62 7.65
2 -3 6 579.48 9.13
2 -3 6 574.93 9.27
-2 3 -7 76.72 4.58
-2 3 -7 79.4 4.41
2 -3 7 71.32 4.12
2 -3 7 71.55 4.15
2 -3 7 66.85 6.23
-2 3 -8 230.91 6.94
-2 3 -8 244.17 6.69
2 -3 8 252.61 6.66
2 -3 8 230.26 6.54
2 -3 8 226.47 7.42
-2 3 -9 12.29 4.04
-2 3 -9 18.43 3.41
2 -3 9 13.4 3.16
2 -3 9 9.62 3.33
2 -3 9 13.09 3.67
-2 3 -10 109.41 9.02
-2 3 -10 116.75 7.34
2 -3 10 112 6.74
2 -3 10 114.99 7.82
-2 3 -11 263.2 10.1
2 -3 11 283.34 9.67
-2 2 10 88.61 8.39
-2 2 10 85.6 7.94
2 -2 -10 68.5 7.97
-2 2 9 107.82 7.51
-2 2 9 101.22 8.76
2 -2 -9 110.6 7.34
-2 2 8 168.61 7.45
-2 2 8 169.29 7.97
2 -2 -8 144.77 7.4
2 -2 -8 154.67 7.06
-2 2 7 392.8 8.62
-2 2 7 402.79 9.19
2 -2 -7 371.81 8.7
2 -2 -7 402.73 8.65
-2 2 6 28.25 3.16
-2 2 6 28.39 3.39
2 -2 -6 24.75 3.13
2 -2 -6 33.94 4.1
-2 2 5 39.2 3.76
-2 2 5 41.08 3.98
2 -2 -5 41.96 3.87
2 -2 -5 33.71 3.58
-2 2 4 215.12 5.12
-2 2 4 212.87 5.12
2 -2 -4 181.5 5.77
2 -2 -4 211.2 5.06
-2 2 3 1255.65 9.73
-2 2 3 1286.74 9.81
2 -2 -3 1253.06 9.73
2 -2 -3 1268.11 9.79
-2 2 2 450.01 5.26
-2 2 2 456.36 5.26
2 -2 -2 438.61 5.21
2 -2 -2 440.17 5.18
2 -2 -2 437.98 4.98
-2 2 1 1624.9 7.97
-2 2 1 1646.86 7.99
2 -2 -1 1565.5 7.88
2 -2 -1 1574.58 7.91
2 -2 -1 1649.48 9.1
-2 2 0 1451.37 5.69
-2 2 0 1375.59 5.52
-2 2 0 1299.37 7.42
2 -2 0 1348.16 5.66
2 -2 0 1442.78 8.68
-2 2 -1 384.47 4.44
2 -2 1 408 5.01
-2 2 -2 80.96 2.65
2 -2 2 85 1.37
2 -2 2 84.6 1.37
2 -2 2 88.5 2.7
2 -2 2 83.92 2.9
-2 2 -3 2010.51 7.37
-2 2 -3 2252.34 7.82
-2 2 -3 2087.15 11.95
2 -2 3 2144.15 7.94
2 -2 3 2026.55 11.81
2 -2 3 2210.86 12.77
-2 2 -4 4879.39 14.57
-2 2 -4 5121.68 14.99
-2 2 -4 4912.02 20.03
2 -2 4 4988.75 15.05
2 -2 4 4923.09 14.96
2 -2 4 4736.84 19.74
2 -2 4 4957.03 20.48
-2 2 -5 44.95 2.7
-2 2 -5 44.35 2.65
2 -2 5 46.11 2.62
2 -2 5 44.86 2.65
2 -2 5 33.54 3.24
2 -2 5 41.51 3.36
-2 2 -6 212.33 4.86
-2 2 -6 201.18 4.72
2 -2 6 209.8 4.81
2 -2 6 207.3 4.84
2 -2 6 194.07 5.63
2 -2 6 205.31 5.83
-2 2 -7 38.66 3.93
-2 2 -7 35.7 3.61
2 -2 7 35.3 3.56
2 -2 7 34.11 3.58
2 -2 7 30.15 3.21
-2 2 -8 4.44 2.65
-2 2 -8 10.58 3.02
2 -2 8 6.06 2.33
2 -2 8 6.29 2.39
2 -2 8 3.84 2.59
-2 2 -9 178.51 7.25
-2 2 -9 185.99 6.71
2 -2 9 195.98 6.66
2 -2 9 172.19 6.66
2 -2 9 185.22 7.37
-2 2 -10 40.37 5.26
-2 2 -10 33.43 4.21
2 -2 10 33.77 4.12
2 -2 10 38.12 4.92
-2 2 -11 92.68 8.02
-2 2 -11 74.5 7.54
2 -2 11 88.59 7.06
2 -2 11 92.31 8.22
-2 1 10 -1.42 4.38
-2 1 10 3.78 4.52
2 -1 -10 4.01 4.55
-2 1 9 275.32 9.53
-2 1 9 232.53 10.04
2 -1 -9 262.2 9.3
-2 1 8 31.01 4.07
-2 1 8 30.1 4.44
2 -1 -8 17.75 3.87
2 -1 -8 19.94 3.67
-2 1 7 35.5 3.87
-2 1 7 33.54 3.84
2 -1 -7 32.09 3.76
2 -1 -7 45.23 4.89
-2 1 6 1068.32 12.4
-2 1 6 1015.04 12.03
2 -1 -6 1028.72 12.18
2 -1 -6 1052.96 12.26
-2 1 5 270.88 6.26
-2 1 5 269.8 6.29
2 -1 -5 250.2 6.12
2 -1 -5 274.89 6.32
-2 1 4 79.48 3.64
-2 1 4 76.24 3.76
2 -1 -4 75.96 3.7
2 -1 -4 79.77 3.64
-2 1 3 233.64 4.64
-2 1 3 246.61 4.72
2 -1 -3 234.55 4.64
2 -1 -3 252.02 4.72
-2 1 2 21.65 2.11
-2 1 2 21.68 2.05
2 -1 -2 22.22 2.08
2 -1 -2 23.13 1.93
-2 1 1 1001.07 6.32
-2 1 1 1008.55 6.32
2 -1 -1 985.74 6.29
2 -1 -1 863.19 6.46
2 -1 -1 1005.82 7.06
2 -1 0 3076.7 8.28
2 -1 0 3334.94 12.37
-2 1 -2 2523.39 11.35
2 -1 2 2526.18 11.44
2 -1 2 2731.91 12.74
-2 1 -3 1136.82 5.46
-2 1 -3 1181.97 5.55
-2 1 -3 1090.34 8.34
2 -1 3 1195.48 5.72
2 -1 3 1079.1 8.31
2 -1 3 1046.05 9.99
-2 1 -4 1101.09 6.94
-2 1 -4 1159.53 7.11
-2 1 -4 1104.17 9.19
2 -1 4 1095.49 7
2 -1 4 1166.21 7.23
2 -1 4 1084.96 9.16
2 -1 4 1145.27 9.13
-2 1 -5 93 3.07
-2 1 -5 103.04 3.13
-2 1 -5 89.89 3.64
2 -1 5 95.27 3.07
2 -1 5 92.2 3.02
2 -1 5 89.81 3.7
2 -1 5 94.5 3.64
-2 1 -6 5.58 1.79
-2 1 -6 5.43 1.62
2 -1 6 5.46 1.71
2 -1 6 3.27 1.85
2 -1 6 6.49 2.25
-2 1 -7 82.19 4.27
-2 1 -7 77.04 4.01
2 -1 7 72.85 4.01
2 -1 7 83.52 4.18
2 -1 7 75.96 4.55
-2 1 -8 9.3 2.65
-2 1 -8 8.53 2.42
2 -1 8 8.39 2.39
2 -1 8 6.12 2.36
2 -1 8 4.98 2.7
-2 1 -9 128.87 6.4
-2 1 -9 140.45 6.03
2 -1 9 141.93 5.95
2 -1 9 122.84 5.75
2 -1 9 132.48 6.32
-2 1 -10 176.18 8.05
-2 1 -10 177.71 7.34
2 -1 10 178.76 6.91
2 -1 10 157.94 7.71
2 -1 10 169.06 7.71
-2 1 -11 8.99 5.18
-2 1 -11 6.83 3.95
2 -1 11 10.84 3.73
2 -1 11 7.74 4.35
-2 0 10 21.65 5.23
-2 0 10 21.53 5.29
2 0 -10 19.77 5.04
-2 0 9 6.09 3.9
-2 0 9 8.96 4.86
2 0 -9 3.13 3.76
-2 0 8 685.93 12.06
-2 0 8 632.56 12.12
2 0 -8 619.7 11.89
2 0 -8 683.74 12.18
-2 0 7 64.49 5.43
-2 0 7 63.47 5.72
2 0 -7 59.88 5.38
2 0 -7 68.08 5.26
-2 0 6 334.23 7.79
-2 0 6 328.91 7.77
2 0 -6 316.51 7.62
2 0 -6 333.92 7.62
-2 0 5 46.82 4.1
-2 0 5 49.53 4.18
2 0 -5 44.29 3.98
2 0 -5 50.44 3.93
-2 0 4 1.99 1.68
-2 0 4 2.36 1.76
2 0 -4 0.85 1.59
2 0 -4 1.65 1.65
-2 0 3 86.28 3.41
-2 0 3 84.75 3.39
2 0 -3 82.7 3.24
2 0 -3 86.77 3.27
-2 0 2 925.86 7.6
-2 0 2 958.69 7.71
2 0 -2 902.16 7.48
2 0 -2 974.62 7.79
-2 0 0 225.48 2.87
-2 0 0 224.91 2.9
2 0 0 216.88 2.84
2 0 0 205.88 2.73
2 0 1 2988.57 7.82
2 0 1 3216.06 11.69
-2 0 -2 491.4 3.36
-2 0 -2 481.22 3.33
2 0 2 511.66 3.47
2 0 2 465.35 4.86
2 0 2 519.51 5.01
-2 0 -3 576.97 4.44
-2 0 -3 586.56 4.47
-2 0 -3 547.08 5.69
2 0 3 607.13 4.55
2 0 3 597.51 4.52
2 0 3 542.1 5.72
2 0 3 588.7 5.58
-2 0 -4 5.52 1.14
-2 0 -4 4.12 1.02
-2 0 -4 3.41 1.31
2 0 4 2.9 1.02
2 0 4 4.92 1.05
2 0 4 5.46 1.34
2 0 4 5.23 1.42
-2 0 -5 1770.52 10.58
-2 0 -5 1750.24 10.55
-2 0 -5 1638.38 11.69
2 0 5 1752.6 10.61
2 0 5 1764.72 10.64
2 0 5 1664.93 11.81
2 0 5 1754.28 11.04
-2 0 -6 39.86 2.99
-2 0 -6 36.67 2.87
-2 0 -6 34.11 3.21
2 0 6 53.99 3.07
2 0 6 35.08 2.79
2 0 6 36.53 3.1
2 0 6 34.22 3.07
-2 0 -7 294.29 6.23
-2 0 -7 301.49 6.09
2 0 7 303.11 6.14
2 0 7 288.4 6.03
2 0 7 287.89 6.51
2 0 7 293.78 6
-2 0 -8 468.48 8.28
-2 0 -8 445.15 7.94
2 0 8 469.5 8.14
2 0 8 466.11 8.16
2 0 8 442.39 8.48
-2 0 -9 383.87 11.07
-2 0 -9 414.45 8.45
2 0 9 395.82 8.36
2 0 9 395.48 8.39
2 0 9 395.19 8.79
-2 0 -10 -0.28 3.64
-2 0 -10 6.66 3.04
2 0 10 11.58 3.21
2 0 10 1.14 3.19
2 0 10 7.28 3.47
-2 0 -11 41.79 5.69
-2 0 -11 35.93 4.61
2 0 11 43.89 5.26
-2 0 -12 7.14 6.77
-2 0 -12 5.04 4.38
2 0 12 10.07 4.27
2 0 12 -1.19 4.98
-2 -1 10 59.94 6.63
-2 -1 10 56.16 6.37
2 1 -10 58.49 6.51
-2 -1 9 -5.46 3.78
2 1 -9 -3.47 3.64
-2 -1 8 144.06 7.4
-2 -1 8 130.86 7.82
2 1 -8 127.64 7.68
2 1 -8 146.7 7.31
-2 -1 7 1.93 2.76
-2 -1 7 6.8 3.24
2 1 -7 1.42 3.02
2 1 -7 2.67 2.73
-2 -1 6 70.81 5.09
-2 -1 6 69.67 5.23
2 1 -6 70.35 4.98
2 1 -6 66.14 4.75
-2 -1 5 67.28 4.55
-2 -1 5 74.73 4.61
2 1 -5 76.58 4.44
2 1 -5 72.29 4.27
-2 -1 4 729.8 9.02
-2 -1 4 700.49 8.73
2 1 -4 703.68 8.76
2 1 -4 720.32 8.9
-2 -1 3 5363.29 21.14
-2 -1 3 5267.7 20.85
2 1 -3 5447.66 21.25
2 1 -3 5477.31 21.36
-2 -1 2 372.64 5.38
-2 -1 2 358.64 5.26
2 1 -2 346.75 5.18
2 1 -2 360.15 5.29
-2 -1 1 111.83 2.99
2 1 -1 113.73 2.9
2 1 0 4299.57 13.43
-2 -1 -1 1256.96 6.74
-2 -1 -1 1243.05 6.74
2 1 1 1063.77 7.82
2 1 1 1197.05 6.6
-2 -1 -2 475.53 4.32
-2 -1 -2 480.22 4.35
-2 -1 -2 451.29 4.69
2 1 2 466.94 4.3
2 1 2 498.83 4.61
-2 -1 -3 1052.93 6.8
-2 -1 -3 1068.98 6.86
-2 -1 -3 986.02 7.23
2 1 3 1040.76 6.8
2 1 3 1023.26 6.71
2 1 3 995.21 7.31
2 1 3 1106.07 6.83
-2 -1 -4 1422.67 8.88
-2 -1 -4 1459.62 8.99
-2 -1 -4 1391.86 9.33
2 1 4 1430.77 8.93
2 1 4 1404.86 8.85
2 1 4 1384.94 9.3
2 1 4 1517.57 8.48
-2 -1 -5 209.32 4.3
-2 -1 -5 199.16 4.15
-2 -1 -5 183.86 4.21
2 1 5 202.58 4.21
2 1 5 193.64 4.1
2 1 5 192.28 4.24
2 1 5 202.18 3.78
-2 -1 -6 1248.28 10.5
-2 -1 -6 1280.46 10.58
-2 -1 -6 1215.77 10.61
2 1 6 1291.69 10.75
2 1 6 1285.32 10.64
2 1 6 1232.04 10.72
2 1 6 1286.4 9.36
-2 -1 -7 865.52 9.81
-2 -1 -7 885.92 9.84
2 1 7 876.61 9.87
2 1 7 894.19 9.93
2 1 7 861.48 9.99
2 1 7 898.8 8.73
-2 -1 -8 395.54 7.88
-2 -1 -8 415.02 7.77
2 1 8 408.71 7.85
2 1 8 392.8 7.68
2 1 8 402.7 7.85
-2 -1 -9 69.04 5.66
-2 -1 -9 71.35 4.89
2 1 9 66.06 4.95
2 1 9 68.81 5.15
2 1 9 55.05 6.66
-2 -1 -10 4.89 3.73
-2 -1 -10 11.21 3.1
2 1 10 12.89 3.27
2 1 10 7.74 3.36
2 1 10 5.66 3.3
-2 -1 -11 -3.84 4.67
-2 -1 -11 1.82 3.5
2 1 11 2.19 3.3
2 1 11 -2.47 3.78
-2 -1 -12 63.61 7.79
-2 -1 -12 46.17 5.72
2 1 12 55.7 5.77
2 1 12 53.74 6.17
-2 -2 9 -2.28 4.12
2 2 -9 2.87 4.07
-2 -2 8 5.46 3.64
-2 -2 8 -2.84 3.98
2 2 -8 6.91 4.47
2 2 -8 3.19 3.53
-2 -2 7 160.87 7.03
-2 -2 7 160.62 7.37
2 2 -7 154.95 7.45
2 2 -7 158.37 6.74
-2 -2 6 1711.52 16.33
-2 -2 6 1654.77 16.04
2 2 -6 1619.95 16.02
2 2 -6 1740.31 16.47
-2 -2 5 866.26 11.04
-2 -2 5 906.85 11.32
2 2 -5 905.52 11.27
2 2 -5 932.8 11.41
-2 -2 4 91.86 4.52
-2 -2 4 83.04 6.46
2 2 -4 88.3 4.38
-2 -2 3 116.15 4.18
-2 -2 3 130.69 4.27
2 2 -3 106.39 4.12
2 2 -3 116.15 4.1
-2 -2 2 13.14 1.76
2 2 -2 14.17 1.85
2 2 -2 13.85 1.79
-2 -2 1 113.39 3.27
-2 -2 1 113.59 3.33
2 2 -1 113.53 3.33
-2 -2 0 40.68 2.3
2 2 0 43.3 2.3
2 2 0 43.64 2.36
-2 -2 -1 23.38 2.08
-2 -2 -1 26.31 2.05
2 2 1 24.95 1.99
2 2 1 21.85 1.99
-2 -2 -2 964.35 7.11
-2 -2 -2 921.16 6.97
2 2 2 957.06 7.11
2 2 2 896.78 6.86
-2 -2 -3 46.77 2.42
-2 -2 -3 51.52 2.42
-2 -2 -3 42.13 1.96
2 2 3 44.52 2.3
2 2 3 44.61 2.33
2 2 3 45.83 1.85
-2 -2 -4 2584.38 13
-2 -2 -4 2591.44 13.06
-2 -2 -4 2450.51 11.78
2 2 4 2587.62 13.06
2 2 4 2512.21 12.83
2 2 4 2450.65 11.81
2 2 4 2696.21 10.01
-2 -2 -5 1395.07 10.53
-2 -2 -5 1380.88 10.47
-2 -2 -5 1338.03 9.64
2 2 5 1393.19 10.58
2 2 5 1400.42 10.55
2 2 5 1350.61 9.73
2 2 5 1431.4 7.91
-2 -2 -6 345.16 6.26
-2 -2 -6 342.34 6.12
-2 -2 -6 319.98 5.55
2 2 6 364.64 6.34
2 2 6 283.77 8.76
2 2 6 333.46 5.69
2 2 6 353.12 4.69
-2 -2 -7 65.94 4.18
-2 -2 -7 67.16 4.01
2 2 7 62.58 4.15
2 2 7 62.56 3.98
2 2 7 61.28 3.76
-2 -2 -8 229.4 8.53
-2 -2 -8 260.38 6.66
2 2 8 269.14 6.88
2 2 8 262.14 6.74
2 2 8 256.97 6.37
-2 -2 -9 -0.85 2.76
-2 -2 -9 3.47 2.47
2 2 9 2.79 2.5
2 2 9 1.71 2.5
2 2 9 0.88 2.53
-2 -2 -10 18.21 3.98
-2 -2 -10 16.9 3.44
2 2 10 17.35 3.41
2 2 10 16.98 3.7
2 2 10 16.56 3.56
-2 -2 -11 84.15 8.53
-2 -2 -11 91.26 6.94
2 2 11 87.9 6.88
2 2 11 89.95 7.03
-2 -2 -12 387.37 13.8
-2 -2 -12 382.19 11.44
2 2 12 388.45 11.32
2 2 12 391.44 11.46
-2 -3 9 -1.11 4.32
2 3 -9 -2.56 4.27
-2 -3 8 618.02 12.69
2 3 -8 568.16 13.14
2 3 -8 648.41 12.89
-2 -3 7 117.37 6.88
-2 -3 7 96.58 7.14
2 3 -7 111.23 7.45
2 3 -7 108.78 6.69
-2 -3 6 117.15 6.14
-2 -3 6 124.03 6.43
2 3 -6 115.1 6.49
2 3 -6 121.1 6.09
-2 -3 5 9.3 2.76
-2 -3 5 6.51 2.73
2 3 -5 6.06 2.84
2 3 -5 8.59 2.7
-2 -3 4 41.39 4.24
2 3 -4 37.81 4.21
2 3 -4 40.48 3.95
-2 -3 3 4.07 1.93
-2 -3 3 6.12 2.02
2 3 -3 4.49 2.11
2 3 -3 7.06 2.02
-2 -3 2 227.81 5.21
-2 -3 2 230.82 5.26
2 3 -2 222.12 5.18
2 3 -2 231.99 5.18
-2 -3 1 278.16 5.21
-2 -3 1 262.09 5.09
2 3 -1 261.29 5.09
-2 -3 0 185.45 4.15
-2 -3 0 173.05 3.98
2 3 0 188.29 4.21
2 3 0 173.39 4.07
-2 -3 -1 1645.24 10.55
-2 -3 -1 1684.24 10.7
2 3 1 1746.54 10.9
2 3 1 1707.68 10.72
-2 -3 -3 663.88 7.08
-2 -3 -3 677.03 7.17
-2 -3 -3 634.3 5.55
2 3 3 650.54 7.03
2 3 3 618.2 6.83
2 3 3 684.45 5.04
-2 -3 -4 891.69 8.59
-2 -3 -4 885.89 8.56
-2 -3 -4 844.58 6.74
2 3 4 882.33 8.51
2 3 4 863.39 8.42
2 3 4 931.06 5.49
-2 -3 -5 145.45 4.35
-2 -3 -5 151.71 4.3
-2 -3 -5 144.46 3.47
2 3 5 151.11 4.3
2 3 5 144.83 4.24
2 3 5 148.3 3.53
2 3 5 156.18 2.67
-2 -3 -6 -2.28 1.79
-2 -3 -6 2.05 1.79
-2 -3 -6 -0.26 1.39
2 3 6 0.51 1.82
2 3 6 -1.51 1.71
2 3 6 -0.54 1.34
2 3 6 -0.51 1.31
-2 -3 -7 17.92 2.84
-2 -3 -7 13.43 2.36
2 3 7 12.77 2.53
2 3 7 10.9 2.42
2 3 7 14.76 2.22
-2 -3 -8 203.77 6.66
-2 -3 -8 194.5 6.29
2 3 8 200.87 6.49
2 3 8 189.06 6.32
2 3 8 184.03 5.43
-2 -3 -9 0.91 3.02
-2 -3 -9 3.44 2.65
2 3 9 0.88 2.65
2 3 9 2.33 2.7
2 3 9 5.04 2.56
-2 -3 -10 1657.39 17.98
-2 -3 -10 1684.19 17.87
2 3 10 1741.56 19.06
2 3 10 1543.37 17.27
2 3 10 1599.81 16.27
-2 -3 -11 37.98 5.52
-2 -3 -11 33.63 4.61
2 3 11 48.99 5.18
2 3 11 44.61 4.84
-2 -3 -12 1925.59 21.88
2 3 12 2061.46 22.53
2 3 12 1979.02 20.45
-2 -4 8 8.76 4.3
2 4 -8 8.88 5.46
2 4 -8 16.78 4.41
-2 -4 7 12.94 6.29
-2 -4 7 12.29 3.87
2 4 -7 12.57 4.61
2 4 -7 8.88 3.81
-2 -4 6 98.63 6.54
2 4 -6 108.95 7.08
2 4 -6 101.53 6.4
-2 -4 5 277.25 7.57
-2 -4 5 278.79 7.77
2 4 -5 277.22 7.94
2 4 -5 293.38 7.91
-2 -4 4 11.21 2.79
-2 -4 4 14.39 2.87
2 4 -4 14.05 2.99
2 4 -4 11.24 2.76
-2 -4 3 15.45 2.73
-2 -4 3 13.6 2.59
2 4 -3 13.46 3.84
2 4 -3 18.18 2.73
-2 -4 2 119.91 5.77
-2 -4 2 133.96 4.69
2 4 -2 128.24 4.84
2 4 -2 140.39 4.75
-2 -4 1 60.93 3.67
-2 -4 1 59.77 3.56
2 4 -1 54.79 3.53
2 4 -1 66.85 3.64
-2 -4 0 6601.5 23.95
-2 -4 0 6426.12 23.7
2 4 0 6436.48 23.7
2 4 0 6552.68 23.84
-2 -4 -1 -0.43 1.56
-2 -4 -1 -0.57 1.48
2 4 1 -0.6 1.51
2 4 1 0.11 1.48
-2 -4 -2 1836.75 12.43
-2 -4 -2 1738.78 12.12
2 4 2 1794.25 12.32
2 4 2 1822.78 12.37
-2 -4 -3 265.39 5.32
-2 -4 -3 257.62 5.26
-2 -4 -3 246.78 3.61
2 4 3 254.72 5.21
2 4 3 266.38 5.35
-2 -4 -4 190.91 4.89
-2 -4 -4 185.48 4.75
-2 -4 -4 181.18 3.3
2 4 4 194.04 4.95
2 4 4 186.59 4.86
2 4 4 196.37 2.79
-2 -4 -5 96.32 4.18
-2 -4 -5 88.19 4.04
-2 -4 -5 91.09 2.84
2 4 5 88.73 4.12
2 4 5 89.44 4.15
2 4 5 89.27 1.93
-2 -4 -6 481.05 10.1
-2 -4 -6 509.38 8.16
-2 -4 -6 493.65 6.09
2 4 6 529.69 8.42
2 4 6 519.45 8.28
2 4 6 519.65 6.26
-2 -4 -7 88.9 5.06
-2 -4 -7 92.37 5.01
2 4 7 87.76 5.01
2 4 7 89.64 5.01
2 4 7 89.7 3.87
-2 -4 -8 2546.23 19.63
-2 -4 -8 2606.86 22.99
2 4 8 2637.41 19.97
2 4 8 2453.44 19.17
2 4 8 2496.68 15.7
-2 -4 -9 1012.96 13.88
-2 -4 -9 1015.95 13.65
2 4 9 998.57 15.28
2 4 9 988.38 13.57
2 4 9 1035.32 11.41
-2 -4 -10 3269.54 25.29
-2 -4 -10 3478.01 25.86
2 4 10 3561.47 26.23
2 4 10 3243.29 25.18
2 4 10 3442.82 21.73
-2 -4 -11 90.15 9.13
-2 -4 -11 80.19 7.23
2 4 11 89.18 7.48
2 4 11 91.86 7.06
-2 -4 -12 10.41 4.78
2 4 12 13.4 5.15
2 4 12 17.3 5.32
-2 -5 8 -4.1 4.27
2 5 -8 -1.31 4.49
-2 -5 7 107.73 7.91
2 5 -7 114.22 9.42
2 5 -7 118.88 8.02
-2 -5 6 76.07 6.86
-2 -5 6 78.63 6.74
2 5 -6 77.04 7.57
2 5 -6 75.47 6.6
-2 -5 5 48.08 5.32
-2 -5 5 43.64 5.12
2 5 -5 46.14 4.81
2 5 -5 49.41 5.49
-2 -5 4 11.49 2.99
-2 -5 4 7.17 2.76
2 5 -4 13 3.27
2 5 -4 12.92 3.04
-2 -5 3 88.64 5.29
-2 -5 3 90.21 5.26
2 5 -3 93.45 5.49
2 5 -3 96.3 5.23
-2 -5 2 1277.27 12.89
-2 -5 2 1267.88 12.83
2 5 -2 1128.77 15.82
2 5 -2 1338.15 13.14
-2 -5 1 5.49 2.22
-2 -5 1 3.33 2.13
2 5 -1 3.53 2.19
-2 -5 0 417.3 7.68
-2 -5 0 422.08 7.17
2 5 0 421.65 7.28
2 5 0 408.39 7.11
-2 -5 -1 379.43 6.94
-2 -5 -1 360.18 6.66
2 5 1 389.76 6.88
2 5 1 360.15 6.66
-2 -5 -2 1718.66 13.31
-2 -5 -2 1769.41 13.54
2 5 2 1734.96 13.4
2 5 2 1762.07 13.46
-2 -5 -3 536.58 7.97
-2 -5 -3 536.38 7.97
-2 -5 -3 502.7 4.92
2 5 3 532.2 7.94
2 5 3 521.67 7.85
-2 -5 -4 302.71 10.44
-2 -5 -4 357.93 6.91
-2 -5 -4 355.17 4.21
2 5 4 373.8 7.11
2 5 4 351.78 7.68
2 5 4 381.82 3.87
-2 -5 -5 248.72 6.26
-2 -5 -5 237.28 6.17
-2 -5 -5 233.19 3.78
2 5 5 240.92 6.29
2 5 5 235.69 6.09
-2 -5 -6 1096.6 12.4
-2 -5 -6 1081.18 12.29
-2 -5 -6 1048.86 8.02
2 5 6 1042.66 12.12
2 5 6 1065.39 12.23
-2 -5 -7 1420.36 14.74
-2 -5 -7 1360.34 14.34
2 5 7 1411.03 14.74
2 5 7 1369.18 14.45
-2 -5 -8 4976.29 28.31
-2 -5 -8 5044.96 28.5
2 5 8 4941.64 30.84
2 5 8 4775.99 27.71
2 5 8 4798.09 20.31
-2 -5 -9 6.49 3.76
-2 -5 -9 1.79 2.9
2 5 9 3.64 3.04
2 5 9 3.5 3.41
2 5 9 5.46 2.67
-2 -5 -10 48.65 5.66
-2 -5 -10 55.53 6.43
2 5 10 42.24 4.78
2 5 10 50.49 5.41
-2 -5 -11 1.39 4.1
2 5 11 2.59 4.12
2 5 11 2.3 3.95
-2 -6 7 13.68 4.78
2 6 -7 9.84 6.57
2 6 -7 2.45 4.75
-2 -6 6 40.48 5.06
2 6 -6 42.27 6
2 6 -6 38.4 5.09
-2 -6 5 10.98 3.98
-2 -6 5 10.98 3.64
2 6 -5 12.03 4.3
2 6 -5 12.77 3.76
-2 -6 4 1109.57 14.25
-2 -6 4 1182.68 14.71
2 6 -4 1166.32 14.82
2 6 -4 1241.63 14.96
-2 -6 3 9.76 3.04
-2 -6 3 6.14 2.82
2 6 -3 1.85 2.96
2 6 -3 9.56 2.87
-2 -6 2 362.99 8.16
-2 -6 2 353.21 8.02
2 6 -2 349.51 8.22
2 6 -2 361.06 8.45
-2 -6 1 2.53 2.59
-2 -6 1 4.24 2.39
2 6 -1 2.73 2.56
-2 -6 0 228.29 6.49
-2 -6 0 223.97 6.29
2 6 0 225.99 6.37
2 6 0 201.64 7.4
-2 -6 -1 687.32 9.73
-2 -6 -1 671.9 9.56
2 6 1 706.72 9.7
2 6 1 573.9 14.11
-2 -6 -2 9.16 2.47
-2 -6 -2 9.67 2.45
2 6 2 13.71 2.65
-2 -6 -3 208.35 6.12
-2 -6 -3 204.05 6.09
-2 -6 -3 192.53 3.3
2 6 3 219.47 6.23
2 6 3 188.1 5.83
-2 -6 -4 1148.15 12.55
-2 -6 -4 1140.35 12.49
-2 -6 -4 1119.78 6.74
2 6 4 1181.69 12.72
2 6 4 1146.27 12.49
-2 -6 -5 2380.1 18.18
-2 -6 -5 2286.93 17.81
-2 -6 -5 2254.82 9.56
2 6 5 2389.29 18.26
2 6 5 2308.87 17.89
-2 -6 -6 7001.16 31.86
-2 -6 -6 7007.02 32
2 6 6 7191.85 32.46
2 6 6 7269.08 32.49
-2 -6 -7 32.66 3.87
2 6 7 28.65 3.9
2 6 7 32.6 3.84
-2 -6 -8 26.29 4.15
-2 -6 -8 21.17 3.7
2 6 8 21.45 3.73
2 6 8 31.29 4.3
-2 -6 -9 81.27 7.17
-2 -6 -9 91.77 6.77
2 6 9 95.53 6.63
2 6 9 91.8 7.4
-2 -6 -10 6.54 3.93
2 6 10 -1.42 3.81
2 6 10 1.71 3.41
-2 -6 -11 28.62 5.29
2 6 11 24.41 5.41
2 6 11 28.19 4.92
-2 -7 6 546.76 13.06
2 7 -6 536.41 15.65
2 7 -6 559.31 13.31
-2 -7 5 106.71 7.57
2 7 -5 88.81 9.25
2 7 -5 111.29 7.82
-2 -7 4 37.66 4.55
2 7 -4 26.31 4.86
2 7 -4 23.81 4.24
-2 -7 3 27.48 4.12
-2 -7 3 17.18 3.53
2 7 -3 26.26 4.47
2 7 -3 26.51 3.93
-2 -7 2 8.7 3.39
-2 -7 2 9.64 3.07
2 7 -2 11.86 3.64
2 7 -2 10.84 3.02
-2 -7 1 4.15 2.96
-2 -7 1 6.4 2.67
2 7 -1 2.19 2.99
2 7 -1 -0.46 2.53
-2 -7 0 89.24 5.52
-2 -7 0 103.75 5.49
2 7 0 95.78 5.63
2 7 0 96.92 5.8
-2 -7 -1 309.99 7.74
-2 -7 -1 301 7.57
2 7 1 291.16 8.28
2 7 1 290.73 7.62
-2 -7 -2 605.17 9.99
-2 -7 -2 596.06 9.84
2 7 2 657.97 10.33
2 7 2 607.41 10.07
-2 -7 -3 5601.68 28.19
-2 -7 -3 5359.79 27.59
-2 -7 -3 5148.14 14.79
2 7 3 5691.97 28.45
2 7 3 5539.66 27.96
-2 -7 -4 3819.18 23.81
-2 -7 -4 3814.91 23.81
-2 -7 -4 3685.73 10.55
2 7 4 3787.72 36.75
2 7 4 3824.67 23.75
-2 -7 -5 167.84 6.77
-2 -7 -5 167.41 6.54
2 7 5 170.32 6.71
2 7 5 177.31 6.91
-2 -7 -6 10.33 3.21
-2 -7 -6 5.92 3.16
2 7 6 4.38 2.84
2 7 6 6.37 3.24
-2 -7 -7 0.46 3.27
-2 -7 -7 -2.02 2.76
2 7 7 2.19 3.1
2 7 7 -1.42 3.3
-2 -7 -8 11.29 4.15
-2 -7 -8 18.97 3.9
2 7 8 12.37 3.73
2 7 8 11.38 4.24
-2 -7 -9 2.02 3.67
2 7 9 11.46 4.15
2 7 9 0.03 6.97
-2 -7 -10 10.75 4.64
2 7 10 25.26 5.18
-2 -8 5 5.92 4.67
-2 -8 5 4.52 4.18
2 8 -5 1.65 7.31
2 8 -5 19.32 6.46
-2 -8 4 15.08 4.21
2 8 -4 14.82 6.06
2 8 -4 11.75 4.41
-2 -8 3 20.03 4.04
2 8 -3 24.81 5.29
2 8 -3 29.1 4.58
-2 -8 2 147.7 12.15
2 8 -2 152.37 8.48
2 8 -2 157.88 7.57
-2 -8 1 45.66 4.78
-2 -8 1 49.33 5.55
2 8 -1 51.29 5.18
2 8 -1 51.89 4.75
-2 -8 0 18.92 3.78
-2 -8 0 19.32 3.53
2 8 0 15.56 3.53
2 8 0 14.2 3.87
-2 -8 -1 3788.51 25.03
-2 -8 -1 3797.73 25.01
2 8 1 3788.48 25.01
2 8 1 3742.17 24.83
-2 -8 -2 1204.61 14.62
-2 -8 -2 1208.74 14.59
2 8 2 1249.62 14.85
2 8 2 1222.14 14.85
-2 -8 -3 0.88 3.07
-2 -8 -3 0.17 2.84
-2 -8 -3 4.67 1.14
2 8 3 -1.19 2.96
2 8 3 1.99 3.33
-2 -8 -4 1.42 3.07
-2 -8 -4 -0.71 2.73
2 8 4 1.85 2.99
2 8 4 5.35 3.41
-2 -8 -5 0.14 3.39
-2 -8 -5 4.95 3.53
2 8 5 3.47 3.16
2 8 5 -0.14 3.39
-2 -8 -6 162.44 7.79
-2 -8 -6 170.09 7.51
2 8 6 178.59 7.54
2 8 6 159.16 8.05
-2 -8 -7 105.4 7.11
2 8 7 114.42 7.25
2 8 7 85.97 7.94
-2 -8 -8 20.54 4.49
2 8 8 18.89 4.64
2 8 8 20.71 5.38
-2 -8 -9 145.31 8.79
2 8 9 173.08 9.36
-2 -9 3 82.44 7.99
-2 -9 3 69.1 6.09
2 9 -3 72.85 8.08
2 9 -3 74.53 8.59
-2 -9 2 18.06 4.32
2 9 -2 16.02 5.97
2 9 -2 6.74 4.3
-2 -9 1 1733.54 19.12
2 9 -1 1732.32 20
2 9 -1 1873.79 19.91
-2 -9 0 1119.07 15.33
2 9 0 1113.07 15.36
2 9 0 1052.56 15.76
-2 -9 -1 72.37 6.57
2 9 1 66.23 6.51
2 9 1 60.28 5.89
-2 -9 -2 58.06 6.26
-2 -9 -2 61.36 2.67
2 9 2 74.68 6.63
2 9 2 61.59 7.48
-2 -9 -3 1.02 3.27
2 9 3 5.6 3.53
2 9 3 4.38 4.1
-2 -9 -4 3.3 3.41
2 9 4 -2.76 3.5
2 9 4 2.3 4.21
-2 -9 -5 19.86 4.18
2 9 5 22.76 4.38
2 9 5 24.69 5.15
-2 -9 -6 40.65 4.95
2 9 6 39.66 5.04
2 9 6 45.03 6
-2 -9 -7 150.37 8.62
2 9 7 147.84 8.7
2 9 7 138.6 10.38
-2 -9 -8 12.35 4.84
2 9 8 7.11 4.69
-2 -10 1 236.31 9.9
-2 -10 0 -0.85 4.27
-2 -10 0 -1.71 2.3
2 10 0 -2.73 6.43
-2 -10 -1 11.69 4.3
-2 -10 -1 6.46 2.45
2 10 1 9.81 4.49
2 10 1 0.17 6.03
-2 -10 -2 6.88 3.98
2 10 2 8.79 4.21
2 10 2 2.82 5.75
-2 -10 -3 47.56 5.46
2 10 3 38.55 5.23
2 10 3 34.28 6.4
-2 -10 -4 59.17 7.37
2 10 4 56.16 5.8
2 10 4 56.92 7.2
-2 -10 -5 73.17 7.71
2 10 5 54.19 5.95
2 10 5 65.49 7.71
-2 -10 -6 3.36 4.61
2 10 6 9.62 4.84
-3 9 3 51.12 4.92
-3 9 2 31.63 4.38
-3 9 1 9.16 3.56
-3 9 0 74.33 5.86
3 -9 0 64.26 6.26
-3 9 -1 1.74 3.21
3 -9 1 4.18 2.7
-3 9 -2 65.06 5.77
3 -9 2 58.8 4.92
-3 9 -3 5.18 3.53
-3 8 5 1.19 3.98
3 -8 -5 11.61 3.56
-3 8 4 18.92 3.95
3 -8 -4 24.64 3.5
3 -8 -4 21.99 2.87
-3 8 3 43.67 4.24
-3 8 3 41.31 4.58
3 -8 -3 45.4 5.15
3 -8 -3 48.5 4.61
3 -8 -3 34.42 3.9
-3 8 2 12.03 3.13
-3 8 2 8.79 3.47
3 -8 -2 14.79 2.99
3 -8 -2 11.04 2.59
3 -8 -2 13.2 2.93
-3 8 1 5.46 2.87
-3 8 1 8.53 3.19
3 -8 -1 11.83 2.73
3 -8 -1 6.54 2.13
3 -8 -1 9.59 2.9
-3 8 0 51.12 4.52
-3 8 0 50.3 4.75
3 -8 0 44.83 4.07
3 -8 0 47.62 4.67
-3 8 -1 90.52 4.92
-3 8 -1 88.96 4.69
3 -8 1 86.68 4.38
3 -8 1 89.52 3.98
3 -8 1 91.52 5.6
-3 8 -2 230.48 5.75
-3 8 -2 236.57 5.75
3 -8 2 219.42 5.46
3 -8 2 194.3 4.98
3 -8 2 220.33 7.6
-3 8 -3 15.3 2.93
-3 8 -3 13.6 2.82
3 -8 3 16.5 2.59
3 -8 3 5.06 2.05
3 -8 3 10.98 2.62
-3 8 -4 29.96 3.39
3 -8 4 24.35 2.9
3 -8 4 26.97 3.76
-3 8 -5 52.17 5.66
3 -8 5 55.05 4.86
3 -8 5 52.23 5.6
3 -7 -7 -3.07 3.87
-3 7 6 35.19 4.84
-3 7 6 32.6 6.29
3 -7 -6 28.7 4.12
-3 7 5 12.15 3.7
-3 7 5 8.34 4.47
3 -7 -5 12.69 3.24
3 -7 -5 18.01 2.47
-3 7 4 1.05 2.99
-3 7 4 4.98 3.56
3 -7 -4 0.57 2.7
3 -7 -4 6.77 2.62
3 -7 -4 3.98 2.16
-3 7 3 13.31 3.04
-3 7 3 9.76 3.19
3 -7 -3 15.28 2.84
3 -7 -3 11.24 2.47
3 -7 -3 15.39 2.59
-3 7 2 143.4 5.32
-3 7 2 138.8 5.52
3 -7 -2 136.89 5.09
3 -7 -2 130.69 4.69
3 -7 -2 137.94 4.89
-3 7 1 2.73 2.22
-3 7 1 2.59 2.25
3 -7 -1 1.22 1.99
3 -7 -1 0.43 1.71
3 -7 -1 2.02 2.33
-3 7 0 353.01 5.97
-3 7 0 340.09 5.83
3 -7 0 338.61 5.95
3 -7 0 324.05 5.58
3 -7 0 345.33 7.42
-3 7 -1 51.95 3.47
3 -7 1 52.17 3.36
3 -7 1 9.76 1.65
3 -7 1 56.67 4.72
-3 7 -2 -0.11 1.85
-3 7 -2 -1.68 1.85
3 -7 2 -1.65 1.68
3 -7 2 1.11 2.9
-3 7 -3 250.03 4.98
-3 7 -3 269.97 5.15
3 -7 3 265.62 5.26
3 -7 3 250.85 6.14
3 -7 3 245.84 7.71
-3 7 -4 -1.34 2.19
-3 7 -4 1.85 2.25
3 -7 4 1.74 2.02
3 -7 4 -0.31 2.36
3 -7 4 1.31 3.27
-3 7 -5 949.07 9.47
-3 7 -5 1104.88 10.01
3 -7 5 998.63 10.07
3 -7 5 961.59 9.62
3 -7 5 1017.83 13
-3 7 -6 403.27 7.62
3 -7 6 349.02 7.2
3 -7 6 372.46 9.27
-3 7 -7 14.74 3.9
3 -7 7 17.5 4.27
-3 6 7 59.43 5.6
-3 6 7 60.14 6.71
-3 6 7 72.03 5.32
3 -6 -7 57.32 6.57
-3 6 6 152.96 7.48
-3 6 6 144.4 8.42
3 -6 -6 146.48 6.86
3 -6 -6 147.22 4.32
-3 6 5 4.95 3.1
-3 6 5 2.02 3.5
3 -6 -5 -0.06 2.76
3 -6 -5 2.7 2.67
3 -6 -5 4.64 2.05
-3 6 4 15.33 2.99
-3 6 4 10.38 3.1
-3 6 4 12 1.93
3 -6 -4 13.8 2.82
3 -6 -4 14.82 2.62
3 -6 -4 13.88 2.36
-3 6 3 40.4 4.12
-3 6 3 46.34 4.44
-3 6 3 42.02 2.59
3 -6 -3 45 3.9
3 -6 -3 46.48 3.81
3 -6 -3 47.93 3.41
-3 6 2 39.63 3.76
-3 6 2 34.88 3.67
-3 6 2 31.66 2.42
3 -6 -2 33.94 3.39
3 -6 -2 34.56 3.13
3 -6 -2 38.72 3.33
-3 6 1 -0.37 1.74
-3 6 1 1.48 1.74
-3 6 1 2.9 1.54
3 -6 -1 2.67 1.74
3 -6 -1 6.66 2.33
-3 6 0 0.65 1.65
-3 6 0 0.37 1.56
-3 6 0 0.14 1.68
3 -6 0 1.45 1.56
3 -6 0 -0.28 1.28
3 -6 0 2.62 2.3
-3 6 -1 725.44 6.46
-3 6 -1 671.96 6.14
-3 6 -1 664.39 7.57
3 -6 1 697.96 6.74
3 -6 1 677.82 9.67
-3 6 -2 664.59 6
-3 6 -2 721.29 6.17
3 -6 2 682.32 6.51
3 -6 2 619.73 6.23
3 -6 2 655.43 9.99
-3 6 -3 1784.66 10.64
-3 6 -3 1998.93 10.01
3 -6 3 1897.94 10.7
3 -6 3 1818.26 10.47
3 -6 3 1819.62 14.08
3 -6 3 1774.45 16.61
-3 6 -4 241.01 4.44
-3 6 -4 272.04 4.75
3 -6 4 265.3 4.92
3 -6 4 249.68 6.46
3 -6 4 239.81 7.48
-3 6 -5 2.02 2.11
-3 6 -5 -0.94 1.99
3 -6 5 1.71 1.85
3 -6 5 -1.28 1.51
3 -6 5 3.93 4.35
3 -6 5 3.44 3.24
-3 6 -6 62.61 4.81
-3 6 -6 66.17 4.52
3 -6 6 65.03 4.18
3 -6 6 56.24 3.5
3 -6 6 63.32 5.46
-3 6 -7 2.9 3.39
-3 6 -7 3.53 2.93
3 -6 7 6.83 2.76
3 -6 7 1.91 2.16
3 -6 7 2.13 3.21
-3 6 -8 20.11 3.93
3 -6 8 13.17 4.18
-3 5 8 15.25 4.72
-3 5 8 15.73 6.46
3 -5 -8 14.05 4.24
-3 5 7 -3.53 3.53
-3 5 7 5.09 4.75
3 -5 -7 2.79 3.33
3 -5 -7 -0.65 2.16
-3 5 6 0.71 3.07
-3 5 6 2.45 3.7
3 -5 -6 0.77 2.96
3 -5 -6 1.17 2.7
3 -5 -6 4.41 2.02
-3 5 5 26.63 3.44
-3 5 5 23.53 3.58
3 -5 -5 19.66 3.1
3 -5 -5 26.74 3.19
3 -5 -5 26.43 2.99
-3 5 4 229.43 6.66
-3 5 4 240.04 6.43
3 -5 -4 231.65 6.2
3 -5 -4 236.14 6.12
3 -5 -4 238.68 5.09
-3 5 3 37.64 3.73
-3 5 3 36.44 3.81
-3 5 3 34.96 2.76
3 -5 -3 30.61 3.58
3 -5 -3 38.43 3.36
3 -5 -3 39.14 3.07
-3 5 2 53.6 3.5
-3 5 2 54.16 3.5
-3 5 2 52 2.79
3 -5 -2 50.55 3.36
3 -5 -2 53.25 3.19
3 -5 -2 51.75 3.39
-3 5 1 508.22 6.12
-3 5 1 486.97 5.92
-3 5 1 463.53 5.58
3 -5 -1 484.55 6.09
3 -5 -1 436.44 5.69
3 -5 -1 494.25 7.31
-3 5 0 1471.08 8.59
-3 5 0 1397.15 8.28
-3 5 0 1374.39 9.56
3 -5 0 1376.75 8.73
3 -5 0 1388.59 12.06
-3 5 -1 2570.9 9.79
-3 5 -1 2484.39 9.59
-3 5 -1 2476.79 13.57
3 -5 1 2633.54 10.81
3 -5 1 2425.56 10.35
3 -5 1 2488.54 16.64
-3 5 -2 359.75 4.07
-3 5 -2 423.3 3.98
-3 5 -2 393.12 6.43
3 -5 2 393 4.3
3 -5 2 372.41 4.18
3 -5 2 379.32 6.17
3 -5 2 395.68 7.57
-3 5 -3 20.68 2.25
-3 5 -3 26.74 2.08
3 -5 3 23.64 2.13
3 -5 3 20.11 2.08
3 -5 3 23.36 2.62
3 -5 3 18.43 2.96
-3 5 -4 14 1.56
-3 5 -4 18.66 1.76
3 -5 4 16.84 1.76
3 -5 4 19.54 2.25
3 -5 4 13.8 2.45
3 -5 4 15.87 2.93
-3 5 -5 182.43 4.15
-3 5 -5 224.74 4.41
3 -5 5 206.22 4.44
3 -5 5 206.02 6.23
3 -5 5 202.83 6.77
-3 5 -6 70.44 4.04
-3 5 -6 78.57 3.95
3 -5 6 70.66 3.81
3 -5 6 70.64 3.41
3 -5 6 70.58 5.09
3 -5 6 74.5 5.6
-3 5 -7 3.1 2.79
-3 5 -7 4.78 2.47
3 -5 7 3.76 2.33
3 -5 7 6.29 2.08
3 -5 7 4.32 3.02
-3 5 -8 147.61 7
-3 5 -8 159.56 6.29
3 -5 8 138.77 5.77
3 -5 8 139.05 5.41
3 -5 8 151.97 7.48
-3 5 -9 21.28 4.01
3 -5 9 26.46 4.78
-3 4 8 25.32 4.61
-3 4 8 26.43 6
3 -4 -8 27.79 4.38
3 -4 -8 32.06 3.9
-3 4 7 24.01 4.15
-3 4 7 23.95 4.78
3 -4 -7 21.73 3.73
3 -4 -7 28.48 3.5
-3 4 6 467.65 9.42
-3 4 6 484.49 9.99
3 -4 -6 460.08 9.36
3 -4 -6 473.91 9.39
3 -4 -6 476.55 7.11
-3 4 5 148.16 5.89
-3 4 5 142.49 6.06
3 -4 -5 135.07 5.46
3 -4 -5 150.35 5.55
3 -4 -5 144.77 4.35
-3 4 4 2.05 2.22
-3 4 4 3.41 2.28
3 -4 -4 1 1.96
3 -4 -4 0.48 1.91
3 -4 -4 3.93 1.85
-3 4 3 650.8 8.11
-3 4 3 676.74 8.22
3 -4 -3 667.41 8.28
3 -4 -3 618.39 7.85
3 -4 -3 649.57 7.62
-3 4 2 2003.96 12.09
-3 4 2 1994.66 11.98
3 -4 -2 1932.02 12.06
3 -4 -2 1975.97 12.15
3 -4 -2 1988.15 12.89
-3 4 1 5964.98 17.92
-3 4 1 5713.08 17.41
-3 4 1 5601.71 18.46
3 -4 -1 5752.17 18.06
3 -4 -1 5688.3 17.95
3 -4 -1 5747.62 22.05
-3 4 0 10.75 1.34
-3 4 0 9.73 1.22
-3 4 0 8.48 1.62
3 -4 0 10.5 1.31
3 -4 0 11.41 2.13
-3 4 -1 28.68 2.67
3 -4 1 31.12 1.71
3 -4 1 27.2 1.62
3 -4 1 30.04 3.19
-3 4 -2 281.94 5.35
3 -4 2 280.41 5.23
3 -4 2 275.89 6.12
-3 4 -3 0.68 1.88
3 -4 3 1.99 0.97
3 -4 3 2.56 0.94
3 -4 3 0 1.74
3 -4 3 2.53 2.3
-3 4 -4 221.72 4.69
-3 4 -4 248.06 3.33
-3 4 -4 236.12 5.95
3 -4 4 239.53 3.64
3 -4 4 226.36 3.5
3 -4 4 236.34 5.75
3 -4 4 214.78 6.23
-3 4 -5 29.3 2.56
-3 4 -5 35.79 2.59
-3 4 -5 35.9 4.24
3 -4 5 31.43 2.56
3 -4 5 31.61 3.78
3 -4 5 32.29 3.78
-3 4 -6 254.49 5.01
-3 4 -6 303.34 5.23
3 -4 6 283.08 5.26
3 -4 6 276.85 4.98
3 -4 6 272.76 7.08
3 -4 6 269.06 7.57
-3 4 -7 233.07 5.75
-3 4 -7 258.16 5.75
3 -4 7 236.8 5.55
3 -4 7 250.4 5.43
3 -4 7 246.21 7.45
3 -4 7 232.33 7.57
-3 4 -8 264.99 7.08
-3 4 -8 276 6.74
3 -4 8 295.88 6.57
3 -4 8 243.34 8.14
-3 4 -9 621.64 10.81
-3 4 -9 703.94 10.64
3 -4 9 633.67 9.87
3 -4 9 633.36 12.66
-3 4 -10 6.37 3.9
3 -4 10 9.64 4.69
-3 3 9 30.27 5.35
-3 3 9 23.58 7.08
3 -3 -9 46.88 5.38
-3 3 8 129.27 7.68
-3 3 8 100.48 9.02
3 -3 -8 127.13 7.34
-3 3 7 53.6 5.83
-3 3 7 53.03 5.21
3 -3 -7 42.24 4.44
3 -3 -7 52.74 5.52
-3 3 6 82.16 5.49
-3 3 6 79.65 5.97
3 -3 -6 68.22 5.26
3 -3 -6 84.57 5.32
3 -3 -6 85.83 4.12
-3 3 5 226.73 6.63
3 -3 -5 222.12 6.34
3 -3 -5 242.66 6.51
3 -3 -5 228.32 5.26
-3 3 4 3685.45 19.77
-3 3 4 3638.88 19.57
3 -3 -4 3535.36 19.49
3 -3 -4 3614.07 19.63
3 -3 -4 3491.49 17.32
-3 3 3 4363.24 19.37
-3 3 3 4344.24 19.2
3 -3 -3 4292.92 19.34
3 -3 -3 4228.43 19.17
3 -3 -3 4316.76 18.69
-3 3 2 446.4 5.95
-3 3 2 447.48 5.86
3 -3 -2 418.81 5.77
3 -3 -2 409.85 5.6
3 -3 -2 421.62 6.12
-3 3 1 348.14 4.49
-3 3 1 359.18 4.49
3 -3 -1 346.61 4.55
3 -3 -1 334.66 4.38
3 -3 -1 348.37 5.6
-3 3 0 391.41 3.67
-3 3 0 373.32 3.56
-3 3 0 358.1 5.09
3 -3 0 362.28 3.76
3 -3 0 340.35 3.76
3 -3 0 369.05 5.83
-3 3 -1 19.57 2.28
3 -3 1 25.55 2.62
-3 3 -2 2.05 1.51
3 -3 2 0.17 1.74
-3 3 -3 24.69 2.87
3 -3 3 22.08 2.7
3 -3 3 25.18 2.79
-3 3 -4 1481.41 6.26
-3 3 -4 1372.83 13.06
3 -3 4 1412.45 6.91
3 -3 4 1395.13 6.83
3 -3 4 1384.01 11.92
3 -3 4 1427.45 12.89
-3 3 -5 501.59 5.09
-3 3 -5 542.18 5.26
-3 3 -5 506.77 8.25
3 -3 5 513 8.19
3 -3 5 495.3 8.45
-3 3 -6 2344.06 12.29
-3 3 -6 2546.8 12.86
-3 3 -6 2437.99 18.06
3 -3 6 2345.25 12.72
3 -3 6 2513.18 13.23
3 -3 6 2376.86 17.84
3 -3 6 2290.69 17.98
-3 3 -7 454.68 6.83
-3 3 -7 492.37 6.97
3 -3 7 466.48 6.8
3 -3 7 475.5 7.03
3 -3 7 436.7 9.3
3 -3 7 444.55 9.05
-3 3 -8 14.14 2.96
-3 3 -8 11.75 2.59
3 -3 8 12.94 2.33
3 -3 8 10.04 2.47
3 -3 8 9.9 3.27
3 -3 8 11.78 3.53
-3 3 -9 5.6 3.47
-3 3 -9 4.15 2.82
3 -3 9 -1.39 2.28
3 -3 9 -3.53 2.67
3 -3 9 6.09 3.44
-3 3 -10 14.94 4.89
-3 3 -10 10.41 3.64
3 -3 10 12.86 3.21
3 -3 10 12.12 4.3
-3 3 -11 14.79 4.61
3 -3 11 20.91 6.97
-3 2 9 -3.84 4.27
-3 2 9 -5.06 6.06
3 -2 -9 4.64 4.01
-3 2 8 -0.06 3.64
-3 2 8 7.97 4.61
3 -2 -8 5.35 3.53
-3 2 7 165.62 7.11
-3 2 7 166.11 7.91
3 -2 -7 155.01 7.08
3 -2 -7 175.21 7.11
-3 2 6 3011.52 21.28
-3 2 6 3185.03 21.85
3 -2 -6 2887.61 20.88
3 -2 -6 3091.29 21.53
-3 2 5 1575.12 14.37
-3 2 5 1601.17 14.51
3 -2 -5 1545.76 14.25
3 -2 -5 1612.53 14.54
-3 2 4 45.6 3.95
-3 2 4 42.5 3.98
3 -2 -4 46.09 3.9
3 -2 -4 49.24 3.73
-3 2 3 144.26 4.41
-3 2 3 143.32 4.41
3 -2 -3 145.79 4.41
3 -2 -3 152.28 4.38
3 -2 -3 143.72 4.15
-3 2 2 915.07 7.99
-3 2 2 886.63 7.85
3 -2 -2 913.23 8.05
3 -2 -2 902.79 7.99
3 -2 -2 901.48 8.53
-3 2 1 24.12 2.11
-3 2 1 22.33 2.02
3 -2 -1 22.82 1.99
3 -2 -1 22.42 1.85
3 -2 -1 23.87 2.42
-3 2 0 1165.02 5.92
-3 2 0 1165.47 5.86
3 -2 0 1137.51 6.09
3 -2 0 1141.23 9.3
-3 2 -1 32.26 2.33
3 -2 1 32.66 2.59
-3 2 -2 2150.56 12.43
3 -2 2 2227.56 13.46
-3 2 -3 14.88 1.88
3 -2 3 11.41 1.74
3 -2 3 14.82 2.22
-3 2 -4 3644.82 9.42
-3 2 -4 3926.23 9.84
-3 2 -4 3792.67 18.66
3 -2 4 3767.35 10.55
3 -2 4 3850.59 10.7
3 -2 4 3660.93 18.41
3 -2 4 3781.6 19.2
-3 2 -5 158.25 3.21
-3 2 -5 167.81 3.24
-3 2 -5 160.33 5.06
3 -2 5 -1.34 0.65
3 -2 5 167.33 3.36
3 -2 5 153.39 4.92
3 -2 5 147.7 4.98
-3 2 -6 353.32 5.26
-3 2 -6 387.03 5.41
-3 2 -6 370.22 7.45
3 -2 6 361.31 5.75
3 -2 6 359.61 7.25
3 -2 6 368.94 7.4
-3 2 -7 3.58 2.05
-3 2 -7 0.88 1.79
3 -2 7 1.56 1.65
3 -2 7 0.8 1.74
3 -2 7 0.8 2.36
3 -2 7 3.13 2.65
-3 2 -8 3.19 2.36
-3 2 -8 3.61 2.16
3 -2 8 3.3 1.93
3 -2 8 1.31 2.02
3 -2 8 2.79 2.56
3 -2 8 6.77 3.13
-3 2 -9 -1.08 2.9
-3 2 -9 -0.6 2.5
3 -2 9 1.88 2.22
3 -2 9 -1.48 2.39
3 -2 9 0.34 3.07
-3 2 -10 66.31 7.23
-3 2 -10 70.98 5.86
3 -2 10 73.08 5.35
3 -2 10 60.08 6.77
-3 2 -11 114.25 7.6
3 -2 11 120.08 6.91
3 -2 11 108.39 8.31
-3 1 9 107.33 8.53
3 -1 -9 134.84 8.65
-3 1 8 2668.79 23.53
-3 1 8 2584.87 23.55
3 -1 -8 2746.16 23.81
-3 1 7 731.08 12.2
-3 1 7 703.54 12.32
3 -1 -7 643.74 11.66
3 -1 -7 715.09 12.94
-3 1 6 17.64 3.27
-3 1 6 18.09 3.44
3 -1 -6 18.32 3.19
3 -1 -6 16.76 3.07
-3 1 5 71.83 4.81
-3 1 5 76.52 5.01
3 -1 -5 74.65 4.72
3 -1 -5 78.4 4.72
-3 1 4 110.35 4.61
-3 1 4 106.28 4.75
3 -1 -4 107.62 4.52
3 -1 -4 122.07 4.67
-3 1 3 7.91 1.91
-3 1 3 9.93 1.96
3 -1 -3 10.1 1.91
3 -1 -3 10.64 1.93
-3 1 2 1060.21 8.79
-3 1 2 1050.8 8.68
3 -1 -2 1023.29 8.62
3 -1 -2 1076 8.82
-3 1 1 646.76 6
-3 1 1 619.85 5.83
3 -1 -1 610.69 5.89
3 -1 -1 606.5 5.8
3 -1 -1 628.61 7
3 -1 0 3721.41 11.55
3 -1 0 6081.59 20.57
-3 1 -1 2.76 0.65
-3 1 -1 2.25 0.65
3 -1 1 3.19 0.74
3 -1 1 1.99 0.65
3 -1 1 3.27 1.42
-3 1 -2 5610.13 19.54
3 -1 2 5824.45 20.43
-3 1 -3 2354.13 13.37
3 -1 3 2475.37 6.74
3 -1 3 2455.12 6.71
3 -1 3 2359.73 13.43
3 -1 3 2505.13 13.91
-3 1 -4 347.4 3.5
-3 1 -4 346.55 3.5
-3 1 -4 316.94 5.66
3 -1 4 342.14 3.58
3 -1 4 324.05 5.69
3 -1 4 333.83 5.75
-3 1 -5 57.01 2.45
-3 1 -5 60.02 2.42
-3 1 -5 51.29 3.39
3 -1 5 57.24 2.36
3 -1 5 59.14 2.47
3 -1 5 54.82 3.39
3 -1 5 56.41 3.5
-3 1 -6 6.17 1.68
-3 1 -6 5.72 1.54
-3 1 -6 9.05 2.39
3 -1 6 4.21 1.48
3 -1 6 6.2 1.62
3 -1 6 5.46 1.99
3 -1 6 5.46 2.39
-3 1 -7 345.58 6.09
-3 1 -7 349.68 6.03
-3 1 -7 326.89 7.28
3 -1 7 346.18 6
3 -1 7 349.51 6.09
3 -1 7 337.45 7.31
3 -1 7 324.59 7.03
-3 1 -8 3.36 2.28
-3 1 -8 0.97 1.99
3 -1 8 4.18 1.96
3 -1 8 2.47 2.05
3 -1 8 2.5 2.96
3 -1 8 5.29 2.82
-3 1 -9 357.22 7.97
-3 1 -9 349.45 7.6
3 -1 9 363.16 7.57
3 -1 9 337.13 7.48
3 -1 9 333.12 8.53
-3 1 -10 97.15 7.06
-3 1 -10 90.12 5.97
3 -1 10 85.54 5.52
3 -1 10 73.28 5.69
3 -1 10 84.94 6.63
-3 1 -11 128.64 9.36
-3 1 -11 136.41 7.51
3 -1 11 142.98 7.06
3 -1 11 123.01 8.16
-3 0 9 245.33 10.33
3 0 -9 264.53 10.41
-3 0 8 143.43 8.05
-3 0 8 136.58 9.19
3 0 -8 147.19 8.02
-3 0 7 2.47 3.21
-3 0 7 3.73 3.7
3 0 -7 2.9 3.3
3 0 -7 4.95 3.1
-3 0 6 41.99 4.95
-3 0 6 55.07 5.52
3 0 -6 40.4 4.07
3 0 -6 54.39 4.75
-3 0 5 7.77 2.65
-3 0 5 6.26 2.7
3 0 -5 6.74 2.53
3 0 -5 5.21 2.42
-3 0 4 185.99 5.55
-3 0 4 188.66 5.66
3 0 -4 177.23 5.46
3 0 -4 195.41 5.63
-3 0 3 4.84 1.85
-3 0 3 4.15 1.82
3 0 -3 3.98 1.76
3 0 -3 3.98 1.79
-3 0 2 4324.72 18.06
-3 0 2 4383.78 18.09
3 0 -2 4277.93 17.98
3 0 -2 4385.26 18.21
-3 0 1 1318.12 8.99
-3 0 1 1336.19 8.99
3 0 -1 1331.72 9.05
3 0 -1 1335.84 9.05
3 0 0 8323.04 23.92
-3 0 -1 696.28 4.92
-3 0 -1 670.91 4.86
3 0 1 646.24 4.84
3 0 1 629.49 4.75
3 0 1 671.62 6.8
-3 0 -2 25.38 1.39
-3 0 -2 27.22 1.48
-3 0 -2 22.82 2.16
3 0 2 25.66 1.45
3 0 2 25.2 2.13
-3 0 -3 280.92 3.16
-3 0 -3 282.37 3.19
-3 0 -3 243.94 4.52
3 0 3 273.18 3.19
3 0 3 269.46 4.67
-3 0 -4 30.04 1.88
-3 0 -4 31.21 1.91
-3 0 -4 28.85 2.65
3 0 4 31.06 1.79
3 0 4 30.3 1.85
3 0 4 28.25 2.56
3 0 4 27.54 2.53
-3 0 -5 498.72 5.52
-3 0 -5 525.11 5.63
-3 0 -5 491.21 7.11
3 0 5 490.78 5.52
3 0 5 528.56 5.69
3 0 5 476.92 7
3 0 5 520.48 6.83
-3 0 -6 1208.28 9.44
-3 0 -6 1179.27 9.33
-3 0 -6 1129.48 11.18
3 0 6 1169.85 9.39
3 0 6 1162.34 9.44
3 0 6 1109.66 11.12
3 0 6 1170.88 10.61
-3 0 -7 27.31 3.33
-3 0 -7 28.65 3.16
-3 0 -7 29.16 3.04
3 0 7 31.58 3.21
3 0 7 26.85 3.16
3 0 7 23.21 2.73
3 0 7 32.46 3.67
-3 0 -8 123.89 5.15
-3 0 -8 129.07 4.84
3 0 8 133.19 4.98
3 0 8 124.8 4.89
3 0 8 128.5 5.58
3 0 8 127.16 5.18
-3 0 -9 487.31 8.9
-3 0 -9 525.03 8.96
3 0 9 513.42 8.82
3 0 9 497.01 8.76
3 0 9 484.01 9.53
-3 0 -10 550.21 10.75
-3 0 -10 563.32 10.07
3 0 10 587.7 10.27
3 0 10 530.89 10.07
3 0 10 530.41 10.9
-3 0 -11 70.89 8.56
-3 0 -11 56.27 6.37
3 0 11 62.44 5.8
3 0 11 61.39 7.06
-3 0 -12 5.8 4.35
3 0 12 10.38 5.15
3 0 12 4.52 4.75
-3 -1 9 5.83 4.81
3 1 -9 7.08 4.86
-3 -1 8 167.07 8.56
-3 -1 8 146.62 9.53
3 1 -8 171.08 8.42
-3 -1 7 133.96 7.2
-3 -1 7 135.47 7.74
3 1 -7 104 7.11
3 1 -7 131.94 7.17
-3 -1 6 1.05 2.76
-3 -1 6 6.12 3.19
3 1 -6 3.67 3.1
3 1 -6 0.77 2.67
-3 -1 5 129.78 5.8
-3 -1 5 133.93 6.06
3 1 -5 117.03 5.52
3 1 -5 136.75 5.8
-3 -1 4 419.2 7.82
-3 -1 4 414.99 7.88
3 1 -4 434.96 7.97
3 1 -4 407.57 7.65
-3 -1 3 587.16 8.08
-3 -1 3 582.27 8.16
3 1 -3 557.57 7.99
3 1 -3 563.95 7.99
-3 -1 2 3867.77 18.06
-3 -1 2 3935.36 18.12
3 1 -2 3991.34 19.54
3 1 -2 4174.69 18.8
-3 -1 1 91.12 3.24
-3 -1 1 87.42 3.27
3 1 -1 82.36 3.21
3 1 -1 92.48 3.21
-3 -1 0 953.25 7.51
-3 -1 0 933.37 7.48
3 1 0 887.34 7.31
3 1 0 929.84 7.48
-3 -1 -1 10.27 1.31
-3 -1 -1 10.1 1.31
3 1 1 10.84 1.31
3 1 1 10.58 1.31
-3 -1 -2 1.74 1.02
-3 -1 -2 0.97 1.05
3 1 2 1 1.08
3 1 2 1.39 1
3 1 2 4.15 1.82
-3 -1 -3 0.57 1
-3 -1 -3 1.48 1.05
-3 -1 -3 0 1.19
3 1 3 0.63 1
3 1 3 2.11 1.02
3 1 3 0.85 1.62
-3 -1 -4 387.6 4.86
-3 -1 -4 371.84 4.78
-3 -1 -4 351.93 5.52
3 1 4 373.94 4.75
3 1 4 370.5 4.72
3 1 4 367.12 5.66
3 1 4 384.84 5.32
-3 -1 -5 55.81 2.82
-3 -1 -5 55.7 2.76
-3 -1 -5 50.38 3.1
3 1 5 56.18 2.76
3 1 5 59.09 2.76
3 1 5 49.98 3.16
3 1 5 59.51 2.93
-3 -1 -6 533.91 6.91
-3 -1 -6 533.19 6.88
-3 -1 -6 479.54 8.05
3 1 6 521.53 6.83
3 1 6 507.56 7.48
3 1 6 529.13 6.86
-3 -1 -7 1780.85 13.23
-3 -1 -7 1749.22 13.11
-3 -1 -7 1686.66 14.08
3 1 7 1807.85 13.4
3 1 7 1754.37 13.2
3 1 7 1659.75 13.94
3 1 7 1741.39 12.6
-3 -1 -8 2272.79 16.24
-3 -1 -8 2287.25 16.24
-3 -1 -8 2189.96 17.07
3 1 8 2352.96 16.61
3 1 8 2292.59 16.36
3 1 8 2189.42 17.13
3 1 8 2196.61 15.05
-3 -1 -9 24.04 3.39
-3 -1 -9 21.25 3.02
3 1 9 22.5 3.02
3 1 9 21.22 3.1
3 1 9 24.81 3.47
-3 -1 -10 2.65 3.44
-3 -1 -10 3.95 2.84
3 1 10 3.95 2.76
3 1 10 4.35 3.1
3 1 10 1.54 3.13
-3 -1 -11 15.02 4.98
-3 -1 -11 15.5 3.93
3 1 11 13.06 3.56
3 1 11 23.21 4.35
-3 -1 -12 63.86 7.65
-3 -1 -12 63.69 7.71
3 1 12 59.03 7
3 1 12 61.3 6.32
-3 -2 8 2.93 4.21
3 2 -8 3.64 4.04
-3 -2 7 26.77 4.15
-3 -2 7 25.4 4.86
3 2 -7 20.65 4.55
3 2 -7 14.82 3.95
-3 -2 6 124.91 6.57
-3 -2 6 110.49 6.88
3 2 -6 107.99 6.63
3 2 -6 121.02 6.46
-3 -2 5 258.7 7.45
-3 -2 5 270.65 7.77
3 2 -5 260.27 7.54
3 2 -5 270.34 7.31
-3 -2 4 2278.74 17.32
-3 -2 4 2268.98 17.24
3 2 -4 2140.91 16.84
3 2 -4 2253.08 17.27
-3 -2 3 55.07 4.07
3 2 -3 58.52 4.21
3 2 -3 59.68 3.93
-3 -2 2 57.66 3.5
-3 -2 2 51.18 3.53
3 2 -2 56.27 3.81
3 2 -2 69.7 3.61
-3 -2 1 400.57 6.17
-3 -2 1 436.1 6.37
3 2 -1 392.78 6.12
3 2 -1 402.59 6.14
-3 -2 0 659.36 7.11
-3 -2 0 670.25 7.17
3 2 0 671.82 7.17
3 2 0 675.15 7.2
-3 -2 -1 37.15 2.47
-3 -2 -1 33.08 2.39
3 2 1 34.73 2.39
3 2 1 34.19 2.39
-3 -2 -2 163 3.64
-3 -2 -2 156.92 3.56
3 2 2 154.58 3.56
3 2 2 147.07 3.47
-3 -2 -3 1842.24 10.7
-3 -2 -3 1818.86 10.7
-3 -2 -3 1777.86 11.07
3 2 3 1842.55 10.75
3 2 3 1864.29 10.81
3 2 3 1912.73 10.98
-3 -2 -4 69.01 3.04
-3 -2 -4 70.12 2.99
-3 -2 -4 65.8 2.87
3 2 4 73.51 2.99
3 2 4 68.25 2.9
3 2 4 74.22 2.76
-3 -2 -5 4526.99 18.63
-3 -2 -5 4570.74 18.8
-3 -2 -5 4424.35 18.97
3 2 5 4557.57 18.8
3 2 5 4461.56 18.58
3 2 5 4382.27 18.95
-3 -2 -6 3962.7 18.83
-3 -2 -6 3892.69 18.72
-3 -2 -6 3667.44 18.46
3 2 6 3829.11 18.63
3 2 6 3931.01 18.83
3 2 6 3649.69 18.49
3 2 6 3844.95 16.04
-3 -2 -7 336.45 6.8
-3 -2 -7 333.89 6.57
-3 -2 -7 310.16 6.43
3 2 7 328 6.66
3 2 7 324.96 6.51
3 2 7 320.55 6.54
3 2 7 329.54 5.6
-3 -2 -8 304.19 7.06
-3 -2 -8 305.36 6.97
-3 -2 -8 282.68 6.77
3 2 8 304.59 7
3 2 8 283.48 6.74
3 2 8 277.31 6.71
3 2 8 295.03 5.8
-3 -2 -9 1.93 2.42
3 2 9 0.85 2.33
3 2 9 0.77 2.42
3 2 9 0.77 2.42
-3 -2 -10 85.71 6.86
-3 -2 -10 92.43 6.06
3 2 10 90.78 5.95
3 2 10 81.13 6.09
3 2 10 79.11 5.86
-3 -2 -11 -4.98 4.24
-3 -2 -11 2.87 3.39
3 2 11 -1.85 3.24
3 2 11 -1.79 3.5
-3 -2 -12 -2.82 6.06
-3 -2 -12 1.93 4.04
3 2 12 4.04 4.01
3 2 12 3.13 4.52
-3 -3 8 67.11 7.94
3 3 -8 66.08 6.37
-3 -3 7 590.2 12.46
3 3 -7 549.92 12.77
3 3 -7 586.96 12.35
-3 -3 6 543.69 10.98
3 3 -6 517.12 11.29
3 3 -6 563.86 11.07
-3 -3 5 4.67 3.02
3 3 -5 2.82 3.07
3 3 -5 0.68 4.49
-3 -3 4 105.28 5.46
-3 -3 4 109.98 5.41
3 3 -4 99.23 5.69
3 3 -4 102.78 5.46
-3 -3 3 52.54 4.52
-3 -3 3 49.84 4.27
3 3 -3 49.7 4.55
3 3 -3 51.69 4.35
-3 -3 2 147.16 5.15
-3 -3 2 139.14 4.98
3 3 -2 141.1 5.12
3 3 -2 140.56 4.84
-3 -3 1 197.28 5.21
-3 -3 1 179.31 4.84
3 3 -1 194.55 5.15
3 3 -1 196.26 5.12
-3 -3 0 472.4 6.74
-3 -3 0 443.75 6.54
3 3 0 491.15 6.88
3 3 0 449.44 6.63
-3 -3 -1 85.57 3.41
-3 -3 -1 83.12 3.44
3 3 1 83.86 3.39
3 3 1 86.74 3.5
-3 -3 -2 221.81 4.72
-3 -3 -2 223.06 4.67
3 3 2 232.64 4.78
3 3 2 212.79 4.61
-3 -3 -3 6659.76 22.64
-3 -3 -3 6644.77 22.73
3 3 3 6810.5 23.01
3 3 3 6659.28 22.7
3 3 3 6756.71 20.51
-3 -3 -4 2359.96 14
-3 -3 -4 2366.5 14.05
-3 -3 -4 2298 12.8
3 3 4 2379.5 14.14
3 3 4 2380.24 14.17
3 3 4 2496.25 11.81
-3 -3 -5 30.61 3.21
-3 -3 -5 37.81 3.16
-3 -3 -5 31.15 2.7
3 3 5 32.46 3.07
3 3 5 27.03 3.61
3 3 5 34.91 2.39
-3 -3 -6 504.43 7.71
-3 -3 -6 509.33 7.71
-3 -3 -6 489.9 6.94
3 3 6 528.64 7.88
3 3 6 511.57 7.71
3 3 6 496.24 7.03
3 3 6 515.56 5.75
-3 -3 -7 642.55 9.16
-3 -3 -7 680.87 9.36
-3 -3 -7 499.65 11.58
3 3 7 622.35 9.05
3 3 7 626.62 9.07
3 3 7 628.18 8.42
-3 -3 -8 44.21 4.67
-3 -3 -8 51.46 4.41
-3 -3 -8 48.93 3.95
3 3 8 49.87 4.67
3 3 8 51.32 4.47
3 3 8 54.05 4.18
3 3 8 53.74 3.47
-3 -3 -9 26.14 3.81
-3 -3 -9 21.08 3.24
3 3 9 25.72 3.36
3 3 9 22.53 3.39
3 3 9 25.94 3.36
-3 -3 -10 2.11 3.64
-3 -3 -10 3.07 2.9
3 3 10 3.78 3.02
3 3 10 8.68 3.39
3 3 10 0.94 2.99
-3 -3 -11 41.45 5.63
-3 -3 -11 40.62 4.75
3 3 11 36.19 4.55
3 3 11 42.7 4.86
-3 -3 -12 -0.6 6.14
-3 -3 -12 8.59 4.3
3 3 12 3.78 4.27
3 3 12 3.16 4.55
-3 -4 8 95.47 9.05
-3 -4 7 0.31 3.98
3 4 -7 -0.48 4.18
-3 -4 6 59.68 7.17
-3 -4 6 54.02 6.63
3 4 -6 51.69 5.55
3 4 -6 52.2 6.43
-3 -4 5 72.4 6.37
-3 -4 5 76.27 6.17
3 4 -5 78.17 6.29
3 4 -5 81.93 6.12
-3 -4 4 38.77 4.04
-3 -4 4 36.95 3.87
3 4 -4 43.89 5.35
3 4 -4 43.81 4.3
-3 -4 3 -2.19 2.39
-3 -4 3 2.53 2.56
3 4 -3 0.2 2.53
3 4 -3 3.41 2.47
-3 -4 2 38.23 4.3
-3 -4 2 42.27 4.1
3 4 -2 40.11 4.41
3 4 -2 42.84 4.27
-3 -4 1 8.93 2.65
-3 -4 1 5.32 2.13
3 4 -1 6.88 2.25
3 4 -1 6.03 2.16
-3 -4 0 2.28 1.96
-3 -4 0 4.47 1.91
3 4 0 0.68 1.88
3 4 0 0.23 2.11
-3 -4 -1 6999.54 25.92
-3 -4 -1 6871.52 25.8
3 4 1 7285.21 26.57
3 4 1 7014.59 25.97
-3 -4 -2 1058.76 10.3
-3 -4 -2 964.26 9.79
3 4 2 1023.8 10.16
3 4 2 978.91 9.9
-3 -4 -3 76.95 3.9
-3 -4 -3 84.35 3.81
3 4 3 80.76 3.76
3 4 3 67.71 3.73
-3 -4 -4 76.89 3.84
-3 -4 -4 74.85 3.9
-3 -4 -4 72.97 3.04
3 4 4 83.66 4.1
3 4 4 79.94 2.9
-3 -4 -5 198.59 5.43
-3 -4 -5 195.32 5.41
-3 -4 -5 196.97 4.38
3 4 5 204.28 5.55
3 4 5 205.28 5.49
3 4 5 207.44 3.78
-3 -4 -6 23.04 2.84
-3 -4 -6 24.15 2.76
-3 -4 -6 22.62 2.82
3 4 6 22.3 2.7
3 4 6 18.69 2.67
3 4 6 25.46 2.47
-3 -4 -7 15.56 3.04
-3 -4 -7 14.02 2.73
-3 -4 -7 14.11 2.3
3 4 7 14.68 2.82
3 4 7 14.71 2.76
3 4 7 16.93 2.02
-3 -4 -8 230.08 7.2
-3 -4 -8 212.33 6.86
-3 -4 -8 209.94 5.55
3 4 8 216.34 6.8
3 4 8 208.92 6.77
3 4 8 223.23 5.86
3 4 8 204.2 4.18
-3 -4 -9 435.02 9.81
-3 -4 -9 407.77 9.19
3 4 9 423.98 9.33
3 4 9 399.75 9.16
3 4 9 408.2 8.05
-3 -4 -10 35.73 4.92
-3 -4 -10 30.13 4.18
3 4 10 28.99 4.01
3 4 10 26.57 4.21
3 4 10 29.93 6.34
-3 -4 -11 973.53 16.19
-3 -4 -11 990.86 15.42
3 4 11 1000.9 15.3
3 4 11 1031.03 14.02
-3 -4 -12 -3.47 6.86
-3 -4 -12 -2.3 4.32
3 4 12 -1.31 4.15
3 4 12 3.84 4.84
-3 -5 7 17.44 5.04
3 5 -7 11.35 5.01
-3 -5 6 2.36 4.01
3 5 -6 8.11 5.06
3 5 -6 4.24 3.98
-3 -5 5 -0.82 3.53
-3 -5 5 4.32 3.47
3 5 -5 1.76 3.93
3 5 -5 4.21 3.33
-3 -5 4 39.17 4.38
-3 -5 4 35.33 4.1
3 5 -4 40.14 4.44
3 5 -4 44.52 5.43
-3 -5 3 105.51 6.06
-3 -5 3 107.76 5.89
3 5 -3 95.27 5.86
-3 -5 2 497.01 9.25
-3 -5 2 515.27 9.36
3 5 -2 487.48 9.22
3 5 -2 539.34 9.53
-3 -5 1 3839.92 22.39
-3 -5 1 3561.87 21.59
3 5 -1 3623.92 21.73
3 5 -1 3747.72 22.13
-3 -5 0 182.69 6
-3 -5 0 185.76 5.86
3 5 0 191.71 5.92
3 5 0 182.38 5.92
-3 -5 -1 41.39 3.93
-3 -5 -1 37.12 3.95
3 5 1 42.98 4.01
3 5 1 40.08 4.12
-3 -5 -2 0.94 2.56
-3 -5 -2 0.23 1.99
3 5 2 1.65 2.02
3 5 2 -0.14 1.99
-3 -5 -3 54.05 4.24
-3 -5 -3 51.66 4.04
3 5 3 55.22 4.12
3 5 3 56.27 4.15
-3 -5 -4 165.62 5.49
-3 -5 -4 163.74 3.9
3 5 4 170 5.58
3 5 4 159.96 5.43
3 5 4 176.29 3.93
-3 -5 -5 6.17 2.5
-3 -5 -5 6.88 2.36
-3 -5 -5 7.48 1.68
3 5 5 4.84 2.33
3 5 5 9.47 2.47
3 5 5 7.28 1.71
-3 -5 -6 47.79 4.72
-3 -5 -6 47.54 4.18
-3 -5 -6 45.74 3.1
3 5 6 44.98 4.55
3 5 6 45.69 4.38
3 5 6 44.66 2.59
-3 -5 -7 967.02 12.4
-3 -5 -7 915.96 12.35
-3 -5 -7 904.86 9.13
3 5 7 941.02 12.2
3 5 7 893.63 11.98
3 5 7 901.82 5.55
-3 -5 -8 722.54 11.58
-3 -5 -8 727.69 11.49
-3 -5 -8 628.38 10.47
3 5 8 749.05 11.52
3 5 8 702.8 11.38
-3 -5 -9 814.26 13.11
-3 -5 -9 789.54 12.6
3 5 9 832.38 13.03
3 5 9 768.85 12.63
3 5 9 814.85 10.35
-3 -5 -10 5.58 4.32
-3 -5 -10 0.91 3.41
3 5 10 7.28 3.5
3 5 10 4.86 3.33
-3 -5 -11 10.38 5.66
-3 -5 -11 4.52 4.12
3 5 11 9.22 4.3
3 5 11 12.6 4.38
-3 -6 6 10.75 4.72
3 6 -6 7.28 4.72
-3 -6 5 22.05 4.58
3 6 -5 18.83 5.21
3 6 -5 15.48 4.44
-3 -6 4 570.77 11.89
-3 -6 4 632.99 12.09
3 6 -4 595.21 12.29
3 6 -4 622.32 12.06
-3 -6 3 488.13 10.53
-3 -6 3 477.52 10.27
3 6 -3 485.6 10.58
3 6 -3 521.84 10.61
-3 -6 2 138.37 6.66
-3 -6 2 143.66 6.43
3 6 -2 144.23 6.74
3 6 -2 145.65 6.49
-3 -6 1 -3.36 2.53
-3 -6 1 1.19 2.45
3 6 -1 0.26 2.76
3 6 -1 1.22 2.45
-3 -6 0 9.27 3.04
-3 -6 0 8.31 2.7
3 6 0 7.79 2.73
3 6 0 12.52 2.93
-3 -6 -1 437.15 8.53
-3 -6 -1 428.71 8.45
3 6 1 436.02 8.42
3 6 1 430.3 8.56
-3 -6 -2 3.64 2.56
-3 -6 -2 -0.37 2.33
3 6 2 0.4 2.42
3 6 2 -0.34 2.39
-3 -6 -3 15.08 2.87
-3 -6 -3 15.28 2.79
3 6 3 17.1 2.9
3 6 3 17.98 2.99
-3 -6 -4 25.8 3.24
-3 -6 -4 29.16 3.3
-3 -6 -4 25.6 2.53
3 6 4 26.6 3.24
3 6 4 23.61 3.21
-3 -6 -5 61.93 5.23
-3 -6 -5 49.19 4.67
-3 -6 -5 48.76 2.82
3 6 5 52.94 4.89
3 6 5 42.33 4.52
3 6 5 46.06 2.93
-3 -6 -6 431.98 9.1
-3 -6 -6 424.47 8.93
-3 -6 -6 419.8 5.89
3 6 6 442.9 8.96
3 6 6 407.68 8.7
3 6 6 436.27 4.32
-3 -6 -7 461.96 9.79
-3 -6 -7 422.13 9.19
-3 -6 -7 433.51 6.26
3 6 7 446.34 9.99
3 6 7 437.13 9.59
-3 -6 -8 1.82 3.39
-3 -6 -8 3.61 3.04
3 6 8 -5.18 2.73
3 6 8 -0.63 3.21
-3 -6 -9 213.44 9.02
-3 -6 -9 222.32 8.36
3 6 9 235.03 8.53
3 6 9 196.43 8.68
-3 -6 -10 193.87 10.13
-3 -6 -10 205.68 8.85
3 6 10 218.82 8.82
-3 -6 -11 140.13 8.85
-3 -7 5 259.84 10.5
3 7 -5 267.38 10.7
-3 -7 4 109.49 7.71
3 7 -4 95.64 9.22
3 7 -4 99.14 7.85
-3 -7 3 33.43 4.58
3 7 -3 28.5 5.01
3 7 -3 28.48 4.44
-3 -7 2 37.61 4.64
-3 -7 2 40.82 4.47
3 7 -2 29.07 4.49
3 7 -2 43.7 4.58
-3 -7 1 20.17 3.95
3 7 -1 14.39 3.7
3 7 -1 15.56 3.44
-3 -7 0 45.32 4.35
-3 -7 0 42.84 5.09
3 7 0 38.09 4.01
3 7 0 34.93 4.07
-3 -7 -1 166.67 6.86
-3 -7 -1 156.86 6.4
3 7 1 170.54 6.66
3 7 1 166.45 6.91
-3 -7 -2 12.69 3.16
-3 -7 -2 11.38 2.9
3 7 2 8.22 3.13
-3 -7 -3 4.44 2.84
-3 -7 -3 0.97 2.53
3 7 3 6.46 4.78
3 7 3 8.53 3.1
-3 -7 -4 52.91 5.49
-3 -7 -4 59.88 4.95
-3 -7 -4 73.14 3.07
3 7 4 98.23 6.03
-3 -7 -5 1040.78 13.71
-3 -7 -5 951.94 7.88
3 7 5 1005.37 13.46
3 7 5 997.03 13.46
3 7 5 1016.78 7.77
-3 -7 -6 2.76 3.16
-3 -7 -6 1.02 2.84
-3 -7 -6 0.6 1.39
3 7 6 3.16 3.04
3 7 6 4.15 3.24
-3 -7 -7 209.94 8.19
-3 -7 -7 234.84 8.08
-3 -7 -7 217.08 4.38
3 7 7 237 8.22
3 7 7 223.03 8.39
-3 -7 -8 15.73 4.35
-3 -7 -8 13.94 3.64
3 7 8 21.59 4.21
3 7 8 17.81 4.47
-3 -7 -9 9.81 4.81
-3 -7 -9 3.53 3.76
3 7 9 8.08 4.15
-3 -7 -10 1.02 4.41
3 7 10 2.87 4.44
-3 -8 4 22.76 5.15
3 8 -4 15.13 5.29
-3 -8 3 31.66 5.06
3 8 -3 29.3 6.88
3 8 -3 29.98 5.18
-3 -8 2 64.8 6.86
3 8 -2 52.51 6.09
3 8 -2 56.87 5.6
-3 -8 1 42.16 4.81
3 8 -1 39.68 5.23
3 8 -1 37.89 4.75
-3 -8 0 58.86 6.71
-3 -8 0 57.35 5.72
3 8 0 50.01 5.26
-3 -8 -1 -2.65 3.39
-3 -8 -1 -2.65 2.82
3 8 1 1.17 3.19
3 8 1 2.65 3.64
-3 -8 -2 398.55 9.64
-3 -8 -2 379.95 9.47
3 8 2 410.58 9.76
3 8 2 396.5 10.01
-3 -8 -3 461.79 10.41
-3 -8 -3 440 9.96
3 8 3 451.49 10.13
3 8 3 461.59 10.55
-3 -8 -4 2.5 3.61
-3 -8 -4 7.2 3.19
-3 -8 -4 3.56 1.59
3 8 4 -2.7 2.99
3 8 4 4.89 3.7
-3 -8 -5 105.8 7.28
-3 -8 -5 104.66 6.71
-3 -8 -5 102.47 3.07
3 8 5 100.08 6.46
3 8 5 103.01 7.31
3 8 5 105.14 4.35
-3 -8 -6 175.44 8.48
-3 -8 -6 198.02 8.14
-3 -8 -6 179.31 3.39
3 8 6 186.47 7.85
3 8 6 187.81 8.31
-3 -8 -7 34.05 5.23
-3 -8 -7 38.15 4.78
3 8 7 33.97 4.67
3 8 7 29.53 5.04
-3 -8 -8 117.8 7.88
3 8 8 106.65 7.85
-3 -8 -9 64.46 7.82
3 8 9 63.41 6.37
-3 -9 2 1.48 4.44
3 9 -2 3.24 4.64
-3 -9 1 41.22 5.06
3 9 -1 41.16 6.63
3 9 -1 50.69 5.6
-3 -9 0 199.22 8.7
3 9 0 175.95 10.21
-3 -9 -1 45.97 4.98
3 9 1 45.4 5.18
3 9 1 47.14 5.95
-3 -9 -2 78.03 6.49
3 9 2 80.59 7.17
3 9 2 92.08 8.53
-3 -9 -3 32.69 4.47
3 9 3 42.98 4.95
3 9 3 37.86 5.55
-3 -9 -4 192.9 8.45
-3 -9 -4 165.85 3.5
3 9 4 162.44 8.22
3 9 4 172.93 9.42
-3 -9 -5 383.87 10.64
3 9 5 437.24 11.29
3 9 5 391.92 11.75
-3 -9 -6 1.96 3.9
3 9 6 7.28 4.12
3 9 6 -3.04 5.41
-3 -9 -7 121.84 8.62
3 9 7 122.5 8.68
-3 -9 -8 36.75 5.77
3 9 8 30.52 5.41
-3 -10 -1 -2.59 4.1
3 10 1 5.63 4.58
-3 -10 -2 67.76 7.68
3 10 2 66.37 8.11
-3 -10 -3 186.9 9.25
3 10 3 175.66 9.47
-3 -10 -4 12.46 4.64
3 10 4 20.23 5.23
-3 -10 -5 23.1 5.29
3 10 5 21.11 5.35
-3 -10 -6 66.88 8.28
3 10 6 63.64 6.69
-4 8 3 4.12 3.61
4 -8 -3 -0.71 2.73
-4 8 2 397.21 8.08
4 -8 -2 401.05 8.42
4 -8 -2 402.28 8.36
-4 8 1 85.68 5.15
4 -8 -1 70.86 4.55
4 -8 -1 84.38 5.23
-4 8 0 33.68 3.76
4 -8 0 32.57 2.87
4 -8 0 34.02 4.07
4 -8 1 2.9 2.08
4 -8 1 6.06 3.3
4 -8 2 2.47 1.91
4 -8 2 2.02 3.19
4 -8 4 48.93 6.06
-4 7 5 7.42 4.12
4 -7 -5 5.92 2.82
-4 7 4 178.99 7.25
4 -7 -4 175.58 6.46
4 -7 -4 191.48 5.72
-4 7 3 162.92 6.4
-4 7 3 156.49 7.11
-4 7 3 154.47 4.47
4 -7 -3 159.16 6.12
4 -7 -3 160.67 5.66
4 -7 -3 171.11 5.66
-4 7 2 51.89 4.61
-4 7 2 47.22 5.18
-4 7 2 38.97 3.67
4 -7 -2 41.14 4.27
4 -7 -2 40.25 3.41
4 -7 -2 51.43 4.32
-4 7 1 60.45 4.69
-4 7 1 58.63 4.3
-4 7 1 53.68 3.9
4 -7 -1 56.21 3.98
4 -7 -1 57.46 4.61
-4 7 0 219.9 4.49
-4 7 0 210.97 4.61
-4 7 0 205.48 5.49
4 -7 0 207.84 4.67
4 -7 0 201.86 4.41
4 -7 0 210.11 6.69
-4 7 -1 41.73 4.64
4 -7 1 48.28 2.96
4 -7 1 44.72 2.73
4 -7 1 39.37 4.55
4 -7 2 -1.68 1.39
4 -7 2 3.3 2.93
4 -7 3 71.38 5.49
4 -7 4 603.29 11.78
4 -7 5 13.48 3.39
4 -7 5 15.42 4.04
4 -7 6 1401.93 9.93
4 -7 6 1379.34 16.47
4 -7 6 1379.77 18.69
-4 6 6 461.31 10.98
4 -6 -6 481.85 10.58
4 -6 -6 476.75 7.79
-4 6 5 164.37 7.45
-4 6 5 159.53 8.88
4 -6 -5 161.72 6.83
4 -6 -5 161.47 5.32
-4 6 4 166.19 6.6
-4 6 4 164.03 7.42
-4 6 4 155.01 5.23
4 -6 -4 140.93 6.12
4 -6 -4 159.31 5.97
4 -6 -4 161.1 5.32
-4 6 3 4.81 2.67
-4 6 3 11.07 3.16
-4 6 3 9.05 2.42
4 -6 -3 12.8 2.76
4 -6 -3 12.69 2.45
4 -6 -3 9.1 2.65
-4 6 2 186.84 5.72
-4 6 2 195.61 5.6
-4 6 2 184.74 4.92
4 -6 -2 189.32 5.29
4 -6 -2 182.12 4.78
4 -6 -2 186.9 5.75
-4 6 1 -1.85 1.82
-4 6 1 -0.54 1.93
-4 6 1 0.09 2.08
4 -6 -1 -1.56 1.79
4 -6 -1 1.48 1.51
4 -6 -1 2.5 2.47
-4 6 0 17.18 1.88
-4 6 0 17.75 1.88
-4 6 0 18.09 2.59
4 -6 0 17.47 1.93
4 -6 0 17.41 1.76
4 -6 0 18.89 3.13
-4 6 -1 45.12 4.04
4 -6 1 44.09 2.36
4 -6 1 49.9 4.55
-4 6 -2 1440.59 12.74
4 -6 2 1375.5 14.91
-4 6 -3 47.08 4.84
4 -6 3 40.91 4.86
4 -6 4 4095.75 23.55
4 -6 4 3845.58 26.46
4 -6 5 142.75 6.06
4 -6 5 140.13 6.86
4 -6 6 47.82 3.24
4 -6 6 45.43 2.93
4 -6 6 48.5 5.38
4 -6 6 35.22 6.06
4 -6 7 1.85 2.28
4 -6 7 8.9 3.73
4 -6 7 5.01 4.01
-4 6 -8 -2.87 3.1
4 -6 8 4.41 2.82
4 -6 8 -2.93 3.78
-4 5 7 1.25 4.47
4 -5 -7 1.22 3.78
4 -5 -7 5.26 2.7
-4 5 6 66.08 6.8
-4 5 6 69.21 6.43
4 -5 -6 72.26 6.09
4 -5 -6 72.26 4.38
-4 5 5 39.66 4.18
-4 5 5 29.22 4.55
4 -5 -5 29.61 3.9
4 -5 -5 38.03 3.9
4 -5 -5 32.66 3.76
-4 5 4 80.91 5.32
-4 5 4 86.88 5.95
4 -5 -4 89.5 5.12
4 -5 -4 86.94 4.81
4 -5 -4 87.85 4.44
-4 5 3 153.3 5.6
-4 5 3 156.8 5.6
-4 5 3 146.39 4.86
4 -5 -3 143.46 5.09
4 -5 -3 151.31 4.95
4 -5 -3 149.58 5.06
-4 5 2 10.75 2.16
-4 5 2 13.29 2.39
-4 5 2 12.12 2.33
4 -5 -2 12.57 2.19
4 -5 -2 11.81 2.42
4 -5 -2 12.74 2.56
-4 5 1 196.43 4.27
-4 5 1 186.42 4.18
-4 5 1 178.71 4.81
4 -5 -1 193.02 4.35
4 -5 -1 192.05 5.66
-4 5 0 2622.9 9.81
-4 5 0 2587.57 9.64
-4 5 0 2505.24 14.82
4 -5 0 2325.28 12.23
4 -5 0 2335.35 10.55
4 -5 0 2484.08 17.64
-4 5 -1 1641.51 12.57
4 -5 1 1633.49 14.82
-4 5 -2 5122.45 23.44
4 -5 2 5063.74 26.6
-4 5 -3 0.65 2.47
4 -5 3 5.09 2.79
-4 5 -4 56.84 4.84
4 -5 4 56.1 4.18
4 -5 4 49.61 4.58
-4 5 -5 49.47 5.15
4 -5 5 51.72 5.69
4 -5 5 54.99 4.84
4 -5 6 11.69 1.79
4 -5 6 10.16 1.56
4 -5 6 12.37 3.13
4 -5 6 9.27 3.44
-4 5 -7 2.19 2.22
-4 5 -7 2.22 2.02
4 -5 7 2.22 1.88
4 -5 7 1.17 1.65
4 -5 7 2.3 3.24
4 -5 7 2.5 3.19
-4 5 -8 43.78 4.89
-4 5 -8 44.24 4.61
4 -5 8 39.68 4.15
4 -5 8 51.6 6.29
4 -5 8 38.46 5.01
-4 5 -9 29.87 3.95
4 -5 9 29.39 4.95
-4 4 7 -3.73 3.81
-4 4 7 0.2 5.75
4 -4 -7 8.9 3.67
4 -4 -7 8.34 2.82
-4 4 6 235.55 8.08
-4 4 6 248.69 9.39
4 -4 -6 245.36 7.91
4 -4 -6 239.42 6.32
-4 4 5 26.4 3.67
-4 4 5 29.87 4.15
4 -4 -5 21.71 3.36
4 -4 -5 28.05 3.36
4 -4 -5 30.61 3.76
-4 4 4 230.62 6.51
-4 4 4 218.93 6.63
4 -4 -4 204.05 6.12
4 -4 -4 220.44 6.14
4 -4 -4 210.48 5.69
-4 4 3 69.13 4.27
-4 4 3 74.08 4.44
4 -4 -3 65 3.98
4 -4 -3 63.81 3.67
4 -4 -3 61.7 3.95
-4 4 2 1616.76 11.35
-4 4 2 1605.41 11.24
4 -4 -2 1634.4 11.69
4 -4 -2 1605.21 11.49
4 -4 -2 1555.43 13.23
-4 4 1 3154.36 13.31
-4 4 1 3048.39 13
-4 4 1 2916.05 15.96
4 -4 -1 3084.95 13.8
4 -4 -1 1851.43 10.67
4 -4 -1 2949.51 18.12
-4 4 0 3976.61 11.38
-4 4 0 3583.97 12.72
-4 4 0 3856.36 18.35
4 -4 0 3769.77 12.55
4 -4 0 3714.04 12.4
4 -4 0 3802.77 20.82
-4 4 -1 69.87 3.9
4 -4 1 64.43 4.15
-4 4 -2 277.51 6.54
4 -4 2 271.82 6.66
-4 4 -3 33.77 3.93
4 -4 3 35.9 4.15
-4 4 -4 502.02 8.56
4 -4 4 491.21 8.22
4 -4 4 475.9 8.99
-4 4 -5 191.05 6.43
4 -4 5 191.03 6.06
4 -4 5 183.57 6.43
-4 4 -6 134.9 6.29
4 -4 6 141.01 3.33
4 -4 6 150.83 3.21
4 -4 6 134.24 5.8
4 -4 6 138.26 6.17
-4 4 -7 177.46 4.21
4 -4 7 171.45 4.35
4 -4 7 141.36 4.24
4 -4 7 160.87 6.71
4 -4 7 157.49 6.91
-4 4 -8 8.85 2.7
-4 4 -8 6.37 2.79
4 -4 8 4.52 2.25
4 -4 8 5.38 1.88
4 -4 8 6.26 3.16
4 -4 8 7.6 3.67
-4 4 -9 322.2 7.28
4 -4 9 308.63 6.71
4 -4 9 309.4 9.73
4 -4 9 302.57 9.56
-4 4 -10 5.58 3.76
4 -4 10 5.35 4.15
-4 3 8 113.65 8.88
-4 3 8 120.76 12.4
4 -3 -8 118.68 8.53
4 -3 -8 124.97 5.86
-4 3 7 20.6 4.41
-4 3 7 27.22 5.66
4 -3 -7 14.94 4.12
4 -3 -7 22.93 3.39
-4 3 6 5.52 3.33
-4 3 6 4.61 4.07
4 -3 -6 1.65 2.82
4 -3 -6 3.53 2.47
-4 3 5 156.63 6.43
-4 3 5 165.96 6.97
4 -3 -5 158.08 6.34
4 -3 -5 157.71 5.97
4 -3 -5 163.74 5.43
-4 3 4 951.83 11.15
-4 3 4 953.88 11.18
4 -3 -4 881.17 10.75
4 -3 -4 963.64 11.12
4 -3 -4 934.73 10.7
-4 3 3 3139.28 17.55
-4 3 3 2981.45 17.01
4 -3 -3 2864.45 16.98
4 -3 -3 3000.88 17.32
4 -3 -3 2959.92 18.09
-4 3 2 5627.79 20.74
-4 3 2 5474.12 20.31
4 -3 -2 5250.52 20.43
4 -3 -2 5442.46 20.74
4 -3 -2 5302.04 23.75
-4 3 1 -1.56 1.45
-4 3 1 0.17 1.45
4 -3 -1 -1.54 1.62
4 -3 -1 0.51 1.17
4 -3 -1 -2.11 1.96
-4 3 0 88.87 2.42
-4 3 0 81.13 2.28
-4 3 0 79.88 3.73
4 -3 0 79.82 2.47
4 -3 0 84.89 2.42
4 -3 0 81.33 4.04
-4 3 -1 14.85 2.16
4 -3 1 16.24 2.56
-4 3 -2 44.86 3.41
4 -3 2 42.96 3.58
-4 3 -3 265.42 6.09
4 -3 3 264.14 6.4
-4 3 -4 797.61 9.99
4 -3 4 812.61 9.99
4 -3 4 797.36 10.58
-4 3 -5 291.02 7.06
4 -3 5 278.1 6.71
4 -3 5 280.35 7.17
-4 3 -6 62.27 2.45
-4 3 -6 60 4.86
4 -3 6 58.55 2.42
4 -3 6 59.68 4.58
4 -3 6 54.42 4.61
-4 3 -7 290.85 4.86
-4 3 -7 313.72 4.98
-4 3 -7 295.23 7.99
4 -3 7 308.88 5.21
4 -3 7 306.12 7.97
4 -3 7 289 7.82
-4 3 -8 20.77 2.76
-4 3 -8 22.73 2.59
4 -3 8 21.14 2.56
4 -3 8 23.95 2.62
4 -3 8 26.14 3.95
4 -3 8 22.22 3.81
-4 3 -9 15.45 3.36
-4 3 -9 20.11 3.1
4 -3 9 15.45 2.42
4 -3 9 16.41 2.99
4 -3 9 15.7 3.64
4 -3 9 20.97 4.15
-4 3 -10 33.91 4.1
4 -3 10 32.8 3.78
4 -3 10 33.2 5.29
-4 2 8 -1.31 4.41
-4 2 8 -0.74 6.46
4 -2 -8 1.71 4.1
-4 2 7 434.42 10.64
-4 2 7 436.78 11.95
4 -2 -7 428.28 11.35
-4 2 6 79.23 6.32
-4 2 6 77.12 7.06
4 -2 -6 68.36 6.06
4 -2 -6 81.47 5.92
-4 2 5 3216.91 21.53
-4 2 5 3191.2 21.39
4 -2 -5 3034.68 20.99
4 -2 -5 3309.43 21.85
-4 2 4 3142.15 29.5
-4 2 4 3348.12 20.03
4 -2 -4 3309.23 20.11
4 -2 -4 3528.67 20.74
4 -2 -4 3343.22 20.03
-4 2 3 463.92 7.51
-4 2 3 450.58 7.42
4 -2 -3 441.36 7.31
4 -2 -3 474.28 7.45
4 -2 -3 426.91 7.45
-4 2 2 408.45 6.34
-4 2 2 383.62 6.06
4 -2 -2 399.23 6.2
4 -2 -2 375.22 6
4 -2 -2 385.18 6.91
-4 2 1 2.87 1.54
-4 2 1 1.42 1.42
4 -2 -1 -0.51 1.39
4 -2 -1 4.07 1.48
4 -2 -1 0.91 1.88
-4 2 0 123.24 2.82
4 -2 0 116.21 2.84
4 -2 0 111.23 4.21
-4 2 -1 111.51 3.98
4 -2 1 111.23 2.02
4 -2 1 118.57 2.02
4 -2 1 118.4 4.27
-4 2 -2 140.02 4.32
4 -2 2 146.16 4.61
-4 2 -3 832.75 9.59
4 -2 3 858.72 9.96
-4 2 -4 164.34 5.15
4 -2 4 160.19 4.98
4 -2 4 160.62 5.26
-4 2 -5 1840.28 15.05
4 -2 5 1846.93 7.51
4 -2 5 1898.03 7.68
4 -2 5 1821.87 14.96
4 -2 5 1832.85 15.36
-4 2 -6 85.12 2.73
-4 2 -6 96.21 2.87
-4 2 -6 95.36 5.23
4 -2 6 79.31 3.21
4 -2 6 90.12 2.93
4 -2 6 86.22 4.89
4 -2 6 84.63 4.92
-4 2 -7 49.81 3.16
-4 2 -7 50.41 3.1
-4 2 -7 42.79 4.81
4 -2 7 50.1 2.84
4 -2 7 47.05 3.07
4 -2 7 41.16 4.47
4 -2 7 46.43 4.52
-4 2 -8 26.68 2.73
-4 2 -8 25.55 2.62
-4 2 -8 27.2 3.95
4 -2 8 28.22 2.96
4 -2 8 26.31 2.62
4 -2 8 25.92 3.78
4 -2 8 17.95 3.41
-4 2 -9 1.62 2.9
-4 2 -9 -0.14 2.39
4 -2 9 3.44 2.11
4 -2 9 2.25 2.3
4 -2 9 6.6 3.47
4 -2 9 4.24 3.13
-4 2 -10 19.88 4.35
-4 2 -10 26.94 3.76
4 -2 10 26.09 3.24
4 -2 10 20.62 3.41
4 -2 10 24.83 4.27
4 -2 10 23.87 4.27
-4 2 -11 24.18 4.38
4 -2 11 26 5.12
-4 1 8 3.95 4.47
-4 1 8 -1.91 6.17
4 -1 -8 -1.11 4.15
-4 1 7 2072.41 20.65
-4 1 7 1987.1 20.8
4 -1 -7 2079.44 20.6
-4 1 6 942.93 13.43
-4 1 6 950.58 13.71
4 -1 -6 835.82 12.8
4 -1 -6 973.88 13.51
-4 1 5 89.84 5.63
-4 1 5 83.47 5.86
4 -1 -5 87.62 5.49
4 -1 -5 86.85 5.38
-4 1 4 172.85 6.06
-4 1 4 175.21 6.14
4 -1 -4 162.09 5.66
4 -1 -4 196.83 6.03
-4 1 3 132.05 5.01
-4 1 3 138.28 5.04
4 -1 -3 127.64 4.86
4 -1 -3 137.97 4.86
-4 1 2 139.65 4.47
-4 1 2 135.47 4.44
4 -1 -2 123.8 4.21
4 -1 -2 141.07 4.27
4 -1 -2 133.11 4.61
-4 1 1 10.27 1.74
-4 1 1 9.87 1.71
4 -1 -1 8.19 1.68
4 -1 -1 10.75 1.59
4 -1 -1 8.34 1.99
-4 1 0 -0.54 1.17
-4 1 0 0.77 1.19
4 -1 0 1.93 1.22
4 -1 0 -0.54 1.05
4 -1 0 0.2 1.56
-4 1 -1 63.1 1.99
-4 1 -1 65.66 2.08
4 -1 1 62.1 2.11
4 -1 1 62.36 3.41
-4 1 -2 48.16 3.21
4 -1 2 48.19 1.54
4 -1 2 48.96 1.51
4 -1 2 46.17 3.19
-4 1 -3 1323.44 11.35
4 -1 3 1360.54 11.78
-4 1 -4 896.95 10.78
4 -1 4 980.93 5.15
4 -1 4 997.37 5.21
4 -1 4 951.4 10.27
-4 1 -5 99.74 2.45
-4 1 -5 102.04 2.53
-4 1 -5 96.58 4.44
4 -1 5 94.9 2.53
4 -1 5 102.84 2.62
4 -1 5 89.55 4.27
4 -1 5 99.4 4.49
-4 1 -6 113.39 3.27
-4 1 -6 121.02 3.3
-4 1 -6 111.09 4.95
4 -1 6 102.01 3.02
4 -1 6 114.73 3.3
4 -1 6 111.23 4.84
4 -1 6 107.9 4.78
-4 1 -7 18.97 2.19
-4 1 -7 14.71 2.05
-4 1 -7 21.11 3.3
4 -1 7 15.76 2.33
4 -1 7 17.81 2.08
4 -1 7 14.59 2.7
4 -1 7 18.43 3.13
-4 1 -8 21.34 2.67
-4 1 -8 23.41 2.59
-4 1 -8 24.29 3.67
4 -1 8 27 3.1
4 -1 8 21.76 2.47
4 -1 8 16.87 2.87
4 -1 8 26.68 3.58
-4 1 -9 40.4 4.86
-4 1 -9 39.37 4.32
4 -1 9 39.09 3.84
4 -1 9 38.49 4.1
4 -1 9 45.6 4.98
4 -1 9 37.84 4.35
-4 1 -10 11.46 3.78
-4 1 -10 11.58 3.16
4 -1 10 14.54 2.87
4 -1 10 10.58 2.99
4 -1 10 13.51 4.04
4 -1 10 14.94 3.98
-4 1 -11 3.64 3.64
4 -1 11 8.59 3.13
4 -1 11 4.15 4.3
-4 0 8 326.49 11.09
-4 0 8 396.87 20.57
4 0 -8 373.35 11.21
-4 0 7 20.25 4.44
-4 0 7 20.51 5.35
4 0 -7 19.69 4.35
-4 0 6 60.02 6.09
-4 0 6 52.8 5.15
4 0 -6 49.47 6.17
4 0 -6 58.63 5.77
-4 0 5 -1.56 2.53
-4 0 5 -0.97 3.1
4 0 -5 -0.51 2.79
4 0 -5 -4.55 2.36
-4 0 4 26.34 3.7
-4 0 4 27.76 3.47
4 0 -4 26.85 3.27
4 0 -4 23.53 3.13
-4 0 3 6.29 2.25
-4 0 3 6.03 2.39
4 0 -3 6.6 2.25
4 0 -3 6.43 2.28
-4 0 2 256.83 5.69
-4 0 2 244.62 5.58
4 0 -2 234.78 5.49
4 0 -2 245.7 5.38
-4 0 1 398.64 5.95
-4 0 1 387.17 5.92
4 0 -1 390.33 7.48
4 0 -1 401.62 5.92
-4 0 0 163 3.73
-4 0 0 164.48 3.78
4 0 0 174.36 3.84
4 0 0 162.15 3.64
4 0 0 163.86 4.58
-4 0 -1 1036.06 7.11
-4 0 -1 1000.28 7.06
4 0 1 1011.2 7.2
4 0 1 1013.93 7.17
-4 0 -2 8.68 1.19
-4 0 -2 7.08 1.17
-4 0 -2 9.33 1.93
4 0 2 8.05 1.19
4 0 2 7.57 1.71
-4 0 -3 10.21 1.17
-4 0 -3 9.79 1.19
-4 0 -3 9.99 1.88
4 0 3 8.7 1.14
4 0 3 9.81 1.93
-4 0 -4 118.31 2.67
-4 0 -4 108.81 2.67
-4 0 -4 101.02 4.1
4 0 4 -0.46 0.74
4 0 4 115.38 2.73
4 0 4 113.05 4.07
-4 0 -5 18.63 2.19
-4 0 -5 19.97 2.25
-4 0 -5 18.97 2.53
4 0 5 18.63 2.02
4 0 5 17.69 1.65
4 0 5 17.41 2.45
4 0 5 17.92 2.47
-4 0 -6 86.08 3.33
-4 0 -6 85.34 3.33
-4 0 -6 85.29 4.52
4 0 6 72.6 3.53
4 0 6 83.38 4.3
4 0 6 84.49 4.3
-4 0 -7 91.17 3.95
-4 0 -7 99.79 3.95
-4 0 -7 90.78 5.04
4 0 7 95.84 3.76
4 0 7 97.06 3.84
4 0 7 89.1 5.01
4 0 7 88.93 4.69
-4 0 -8 6.71 2.3
-4 0 -8 7.45 2.19
-4 0 -8 7.54 2.99
4 0 8 6.51 1.99
4 0 8 5.66 2.05
4 0 8 8.34 2.73
4 0 8 8.25 2.82
-4 0 -9 6.63 2.82
-4 0 -9 0.57 2.33
-4 0 -9 1.45 3.1
4 0 9 4.84 2.25
4 0 9 -3.19 2.19
4 0 9 3.24 2.7
4 0 9 4.21 2.87
-4 0 -10 40.74 4.44
-4 0 -10 47.28 5.32
4 0 10 42.61 4.61
4 0 10 49.27 5.12
4 0 10 40.48 4.78
4 0 10 40.96 4.49
-4 0 -11 391.41 10.78
-4 0 -11 391.44 9.62
4 0 11 410.5 9.39
4 0 11 377.39 10.7
-4 0 -12 20.28 4.69
4 0 12 20.34 4.38
4 0 12 13.91 5.09
-4 -1 8 8.62 4.86
4 1 -8 3.67 4.67
-4 -1 7 44.81 5.41
-4 -1 7 39.86 6
4 1 -7 51.66 5.38
-4 -1 6 84.38 6.6
-4 -1 6 85.12 7.48
4 1 -6 89.24 6.97
4 1 -6 98.66 6.46
-4 -1 5 10.18 3.1
-4 -1 5 9.1 3.58
4 1 -5 2.33 2.99
4 1 -5 6.29 2.87
-4 -1 4 9.76 3.78
-4 -1 4 6.32 2.84
4 1 -4 2.96 2.53
4 1 -4 8.99 2.59
-4 -1 3 486.14 8.34
-4 -1 3 485.49 8.36
4 1 -3 447.79 8.14
4 1 -3 480.08 8.25
-4 -1 2 155.95 5.06
-4 -1 2 171.4 5.15
4 1 -2 156.23 5.04
4 1 -2 164.83 5.12
-4 -1 1 413.14 6.57
-4 -1 1 414.85 6.54
4 1 -1 396.93 6.43
4 1 -1 438.01 6.63
-4 -1 0 74.02 3.36
-4 -1 0 76.61 3.36
4 1 0 71.06 3.27
4 1 0 76.1 3.21
-4 -1 -1 637.03 6.57
-4 -1 -1 596.52 6.37
4 1 1 631.11 6.6
4 1 1 646.59 6.66
4 1 1 602.35 7.71
-4 -1 -2 2051.42 10.7
-4 -1 -2 1890.63 10.35
4 1 2 1929.18 10.53
4 1 2 1922.26 10.55
4 1 2 1938.08 13.17
-4 -1 -3 54.28 2.53
-4 -1 -3 53.37 2.59
-4 -1 -3 47.99 3.19
4 1 3 47.28 2.87
4 1 3 49.02 2.47
4 1 3 59.14 3.21
-4 -1 -4 57.21 2.65
-4 -1 -4 49.73 2.65
4 1 4 49.56 2.45
4 1 4 49.95 2.59
4 1 4 48.99 3.13
-4 -1 -5 2.84 1.45
-4 -1 -5 1.11 1.45
-4 -1 -5 2.76 1.82
4 1 5 3.21 1.39
4 1 5 2.39 1.39
4 1 5 3.36 1.96
-4 -1 -6 232.39 4.98
-4 -1 -6 251.45 5.09
-4 -1 -6 223.6 5.86
4 1 6 232.13 4.89
4 1 6 245.02 5.01
4 1 6 226.5 5.89
4 1 6 239.24 5.6
-4 -1 -7 19.43 2.5
-4 -1 -7 19 2.36
-4 -1 -7 18.41 2.84
4 1 7 18.8 2.3
4 1 7 19.8 2.3
4 1 7 17.24 2.73
4 1 7 20.14 2.9
-4 -1 -8 182.83 5.69
-4 -1 -8 199.93 5.69
-4 -1 -8 169.35 6.14
4 1 8 186.79 5.41
4 1 8 184.06 5.43
4 1 8 178.05 6.32
4 1 8 187.1 5.77
-4 -1 -9 78.2 5.32
-4 -1 -9 79.85 4.92
-4 -1 -9 72.17 5.35
4 1 9 71.89 4.52
4 1 9 70.32 4.67
4 1 9 73.54 5.43
4 1 9 79.8 4.86
-4 -1 -10 35.87 4.3
-4 -1 -10 45.2 5.26
4 1 10 41.7 4.84
4 1 10 47.68 5.12
4 1 10 46.03 5.72
4 1 10 39.29 4.86
-4 -1 -11 72.71 8.28
-4 -1 -11 75.36 6.4
4 1 11 87.9 6.26
4 1 11 80.48 7.11
-4 -1 -12 43.64 5.29
4 1 12 53.71 6.6
4 1 12 43.55 5.86
-4 -2 7 1.08 4.04
-4 -2 7 5.69 5.69
4 2 -7 2.73 3.87
-4 -2 6 51.46 5.04
-4 -2 6 65.91 7.54
4 2 -6 68.59 8.11
4 2 -6 66.71 6.17
-4 -2 5 12.4 3.33
4 2 -5 8.48 3.44
4 2 -5 12.18 3.53
-4 -2 4 6 2.96
-4 -2 4 7.97 2.82
4 2 -4 9.05 2.99
4 2 -4 8.68 2.67
-4 -2 3 64.18 6.23
-4 -2 3 73.05 4.84
4 2 -3 70.04 4.89
4 2 -3 81.22 4.92
-4 -2 2 98.86 4.89
-4 -2 2 95.47 4.67
4 2 -2 98.54 4.75
4 2 -2 106.39 4.75
-4 -2 1 2.87 2.05
-4 -2 1 -0.17 1.85
4 2 -1 -0.34 1.85
4 2 -1 0.88 1.82
-4 -2 0 1255.51 10.72
-4 -2 0 1167.6 10.35
4 2 0 1107.04 12.49
4 2 0 1228.77 10.64
-4 -2 -1 54.16 3.13
-4 -2 -1 54.88 3.1
4 2 1 52.57 3.13
-4 -2 -2 25.32 2.76
-4 -2 -2 25.52 2.59
4 2 2 23.92 2.53
4 2 2 26.85 2.59
4 2 2 24.38 2.73
-4 -2 -3 968.07 8.45
-4 -2 -3 924.15 8.28
-4 -2 -3 927.93 9.36
4 2 3 969.32 8.51
4 2 3 957.83 8.48
4 2 3 960.73 9.22
-4 -2 -4 68.99 3.27
-4 -2 -4 67.68 3.3
-4 -2 -4 64.58 3.47
4 2 4 66.99 3.16
4 2 4 67.85 3.1
4 2 4 68.99 3.33
-4 -2 -5 407.91 6.17
-4 -2 -5 413.29 6.23
4 2 5 409.62 6.2
4 2 5 373.72 6.54
4 2 5 411.35 6.32
-4 -2 -6 615.09 7.88
-4 -2 -6 589.32 7.71
-4 -2 -6 568.01 8.34
4 2 6 585.68 7.68
4 2 6 591.65 7.71
4 2 6 597.6 7.62
-4 -2 -7 137.17 4.92
-4 -2 -7 138.6 4.84
-4 -2 -7 130.72 5.15
4 2 7 147.22 4.95
4 2 7 144.8 4.95
4 2 7 136.72 5.26
4 2 7 137.09 4.67
-4 -2 -8 250.25 6.6
-4 -2 -8 246.02 6.32
-4 -2 -8 237.59 6.71
4 2 8 241.49 6.29
4 2 8 242.52 6.32
4 2 8 241.75 6.74
4 2 8 247.38 5.92
-4 -2 -9 7.14 3.1
-4 -2 -9 9.81 2.82
-4 -2 -9 6.2 2.82
4 2 9 9.96 2.59
4 2 9 7.68 2.62
4 2 9 9.19 3.04
4 2 9 8.65 2.73
-4 -2 -10 111.4 8.39
-4 -2 -10 115.36 6.32
4 2 10 130.49 6.12
4 2 10 104.46 6.23
4 2 10 113.65 6.6
4 2 10 115.1 5.63
-4 -2 -11 51.38 5.69
-4 -2 -11 49.7 4.89
4 2 11 53.85 5.97
4 2 11 58.69 6.66
-4 -2 -12 98.54 11.21
-4 -2 -12 107.05 8.14
4 2 12 117.66 8.31
4 2 12 118.97 8.68
-4 -3 7 19.34 5.06
4 3 -7 23.81 5.26
-4 -3 6 44.21 5.6
-4 -3 6 44.63 5.09
4 3 -6 55.33 5.49
-4 -3 5 211.37 8.25
-4 -3 5 210.54 8.02
4 3 -5 204.31 8.34
4 3 -5 228.72 8.14
-4 -3 4 35.56 4.27
-4 -3 4 33.8 3.84
4 3 -4 35.59 4.04
4 3 -4 41.93 4.18
-4 -3 3 1.45 2.7
-4 -3 3 2.59 3.13
4 3 -3 0.14 2.53
4 3 -3 -0.11 2.39
-4 -3 2 118.66 5.83
-4 -3 2 120.16 5.38
4 3 -2 120.79 5.49
4 3 -2 119.96 5.35
-4 -3 1 0.31 2.22
-4 -3 1 -0.88 2.02
4 3 -1 -0.46 2.13
4 3 -1 1.93 2.05
-4 -3 0 0.2 1.96
-4 -3 0 2.87 1.91
4 3 0 0.82 1.85
4 3 0 -1.02 1.79
-4 -3 -1 1406 11.75
-4 -3 -1 1370.75 11.66
4 3 1 1525.62 12.29
4 3 1 1443.43 11.95
-4 -3 -2 593.39 7.74
-4 -3 -2 582.64 7.65
4 3 2 601.95 7.77
4 3 2 513.28 8.22
-4 -3 -3 27.31 3.1
-4 -3 -3 23.64 2.39
4 3 3 25.97 2.47
4 3 3 22.08 2.47
4 3 3 26.57 2.87
-4 -3 -4 610.57 7.85
-4 -3 -4 608.15 7.82
-4 -3 -4 580.47 7.71
4 3 4 620.87 7.91
4 3 4 595.64 7.77
4 3 4 621.58 7.48
-4 -3 -5 156.97 4.86
-4 -3 -5 147.79 4.78
-4 -3 -5 132.37 4.69
4 3 5 157.46 4.92
4 3 5 142.95 4.58
4 3 5 154.84 4.27
-4 -3 -6 36.64 3.76
-4 -3 -6 39.26 3.64
-4 -3 -6 37.66 3.47
4 3 6 38.43 3.67
4 3 6 39.03 3.53
4 3 6 40.28 3.21
-4 -3 -7 552.37 8.65
-4 -3 -7 552.77 8.59
-4 -3 -7 543.52 8.51
4 3 7 576.69 8.76
4 3 7 556.66 8.62
4 3 7 569.52 7.4
-4 -3 -8 104.29 5.49
-4 -3 -8 102.01 5.29
-4 -3 -8 96.89 4.92
4 3 8 94.56 4.95
4 3 8 93.59 4.98
4 3 8 106.54 5.15
4 3 8 103.38 4.41
-4 -3 -9 166.33 8.48
-4 -3 -9 177.71 6.57
-4 -3 -9 160.16 6.06
4 3 9 189.4 6.6
4 3 9 165.59 6.37
4 3 9 139.39 9.3
4 3 9 171.68 5.38
-4 -3 -10 31.83 4.61
-4 -3 -10 26.23 3.78
4 3 10 29.98 3.78
4 3 10 30.89 4.04
4 3 10 30.13 4.15
4 3 10 34.79 3.76
-4 -3 -11 371.33 11.21
-4 -3 -11 374.57 10.13
4 3 11 393.97 10.1
4 3 11 376.5 10.18
-4 -3 -12 14.59 6.49
-4 -3 -12 17.47 4.78
4 3 12 15.02 4.35
4 3 12 17.92 5.12
-4 -4 6 69.61 7.68
4 4 -6 56.44 5.77
-4 -4 5 48.5 5.58
-4 -4 5 44.55 5.09
4 4 -5 43.95 5.23
4 4 -5 53.62 6.63
-4 -4 4 357.36 9.73
-4 -4 4 373.2 9.47
4 4 -4 342.03 9.59
4 4 -4 361.94 9.33
-4 -4 3 49.16 5.6
-4 -4 3 44.83 5.21
4 4 -3 45.6 4.41
4 4 -3 48.96 5.12
-4 -4 2 21.82 3.36
-4 -4 2 13.26 2.96
4 4 -2 22.02 3.3
4 4 -2 22.82 3.24
-4 -4 1 624.77 9.81
-4 -4 1 589.89 9.39
4 4 -1 591.17 9.39
4 4 -1 645.99 9.87
-4 -4 0 67.53 4.75
-4 -4 0 60.14 4.41
4 4 0 62.76 4.52
4 4 0 69.04 4.47
-4 -4 -1 268.12 6.46
-4 -4 -1 245.39 6.14
4 4 1 260.61 6.32
4 4 1 255.89 6.14
-4 -4 -2 99.2 4.52
-4 -4 -2 94.76 4.47
4 4 2 97.21 4.49
4 4 2 93.42 4.49
-4 -4 -3 33.4 3.73
-4 -4 -3 33.71 3.58
4 4 3 25.4 2.73
4 4 3 29.7 3.5
-4 -4 -4 578.88 8.51
-4 -4 -4 546.22 8.22
-4 -4 -4 532.03 7.48
4 4 4 569.86 8.42
4 4 4 566.16 8.36
4 4 4 576.24 7.28
-4 -4 -5 880.88 10.44
-4 -4 -5 830.1 10.1
-4 -4 -5 823.42 9.22
4 4 5 878.26 10.41
4 4 5 854.2 10.21
4 4 5 892.72 8.62
-4 -4 -6 32.94 3.33
-4 -4 -6 25.97 2.9
-4 -4 -6 27.79 3.39
4 4 6 30.67 3.16
4 4 6 32.91 3.93
4 4 6 27.14 3.07
-4 -4 -7 449.27 8.51
-4 -4 -7 450.21 8.73
-4 -4 -7 429.62 7.51
4 4 7 447 8.42
4 4 7 453 8.48
4 4 7 452.91 6.37
-4 -4 -8 245.05 7.45
-4 -4 -8 224.42 6.86
-4 -4 -8 222.63 6.12
4 4 8 232.79 6.88
4 4 8 216.63 6.86
4 4 8 236.31 5.23
-4 -4 -9 241.55 8.36
-4 -4 -9 242.97 7.57
-4 -4 -9 236.37 6.74
4 4 9 225.87 7.4
4 4 9 242.72 7.77
4 4 9 226.53 5.52
-4 -4 -10 315.26 9.9
-4 -4 -10 320.18 8.99
4 4 10 327.75 9.05
4 4 10 330.19 8.59
-4 -4 -11 4.3 5.21
-4 -4 -11 2.56 3.67
4 4 11 8.31 3.9
4 4 11 3.98 4.07
-4 -4 -12 10.24 7.11
-4 -4 -12 13.77 4.67
4 4 12 21.85 4.92
4 4 12 18.15 5.26
-4 -5 6 197.06 9.93
4 5 -6 193.81 10.16
-4 -5 5 418.07 11.35
4 5 -5 408.17 11.32
-4 -5 4 67.08 7.45
-4 -5 4 72.83 6.49
4 5 -4 49.33 5.41
4 5 -4 65.77 6.69
-4 -5 3 531.6 11.12
-4 -5 3 562.58 11.09
4 5 -3 513.02 10.78
4 5 -3 564.2 11.07
-4 -5 2 4.18 3.13
-4 -5 2 4.32 2.99
4 5 -2 2.84 2.9
4 5 -2 1.28 3.02
-4 -5 1 1.76 2.7
-4 -5 1 1.37 2.47
4 5 -1 0.43 2.53
4 5 -1 -0.74 2.45
-4 -5 0 182.29 6.46
-4 -5 0 163.15 6.14
4 5 0 171.8 6.29
4 5 0 191.14 6.26
-4 -5 -1 80.45 5.32
-4 -5 -1 86.08 4.98
4 5 1 88.98 5.15
4 5 1 89.89 5.18
-4 -5 -2 1076.97 12.2
-4 -5 -2 1071.42 12.09
4 5 2 1105.9 12.2
4 5 2 1020.67 11.89
-4 -5 -3 6.06 3.9
-4 -5 -3 4.47 2.3
4 5 3 0.97 2.28
4 5 3 2.7 2.33
-4 -5 -4 135.35 8.96
-4 -5 -4 173.67 5.86
-4 -5 -4 165.91 4.75
4 5 4 184.71 6
4 5 4 169.01 5.95
4 5 4 182.01 4.81
-4 -5 -5 316.99 7.4
-4 -5 -5 277.71 7
-4 -5 -5 288.86 5.86
4 5 5 311.1 7.4
4 5 5 280.98 7.08
4 5 5 308.14 5.58
-4 -5 -6 482.16 9.1
-4 -5 -6 455.93 9.1
-4 -5 -6 395.14 8.25
4 5 6 464.89 8.88
4 5 6 446.23 8.53
4 5 6 465.32 6.29
-4 -5 -7 910.47 12.32
-4 -5 -7 863.58 11.83
-4 -5 -7 882.42 10.04
4 5 7 910.07 12.2
4 5 7 905.32 12.15
4 5 7 924.8 8.16
-4 -5 -8 163.77 7.14
-4 -5 -8 155.98 6.54
-4 -5 -8 155.55 5.35
4 5 8 160.3 6.77
4 5 8 149.44 6.69
-4 -5 -9 4.12 3.81
-4 -5 -9 7.57 3.16
-4 -5 -9 8.76 2.7
4 5 9 3.02 3.1
4 5 9 9.07 3.7
4 5 9 6.17 2.79
-4 -5 -10 -4.18 4.47
-4 -5 -10 -0.48 3.3
4 5 10 2.45 3.36
-4 -5 -11 -1.91 5.63
-4 -5 -11 3.73 4.1
4 5 11 -1.76 3.81
-4 -6 5 194.3 9.99
4 6 -5 197.4 10.04
-4 -6 4 15.87 4.55
4 6 -4 21.22 4.64
-4 -6 3 93.51 7.85
-4 -6 3 86.99 7.06
4 6 -3 90.55 7.4
4 6 -3 84.77 6.66
-4 -6 2 200.21 8.25
-4 -6 2 195.72 7.88
4 6 -2 189.55 8.11
4 6 -2 186.93 7.77
-4 -6 1 3.21 3.24
-4 -6 1 -1.19 2.73
4 6 -1 -2.19 3.1
4 6 -1 -0.23 2.73
-4 -6 0 380.86 9.16
-4 -6 0 347.72 8.68
4 6 0 343.19 8.53
4 6 0 381.06 9.02
-4 -6 -1 1.54 2.9
-4 -6 -1 1.54 2.5
4 6 1 0.09 2.53
4 6 1 1.17 2.73
-4 -6 -2 681.49 10.9
-4 -6 -2 678.42 10.64
4 6 2 743.88 11.15
4 6 2 674.75 10.72
-4 -6 -3 6.91 2.87
-4 -6 -3 7.03 2.82
4 6 3 3.9 2.67
4 6 3 8.05 2.82
-4 -6 -4 660.78 10.64
-4 -6 -4 604.85 10.53
-4 -6 -4 610.4 8.93
4 6 4 667.41 10.61
4 6 4 623.26 10.38
-4 -6 -5 670.54 10.9
-4 -6 -5 635.09 11.83
-4 -6 -5 663.97 8.31
4 6 5 700.95 10.9
4 6 5 660.9 10.75
4 6 5 708.06 7.97
-4 -6 -6 2.16 3.1
-4 -6 -6 2.5 2.67
-4 -6 -6 2.87 2.39
4 6 6 3.47 2.79
4 6 6 5.18 2.87
4 6 6 3.27 2.19
-4 -6 -7 72.17 6.32
-4 -6 -7 79.23 5.52
-4 -6 -7 74.5 4.12
4 6 7 76.21 5.8
4 6 7 71.94 5.83
4 6 7 71.57 3.84
-4 -6 -8 55.36 6.63
-4 -6 -8 53.91 5.75
-4 -6 -8 52.06 3.95
4 6 8 49.24 5.8
4 6 8 55.64 6.29
4 6 8 57.44 3.73
-4 -6 -9 39.12 5.38
-4 -6 -9 39.91 4.64
-4 -6 -9 33.94 3.3
4 6 9 45.32 4.75
-4 -6 -10 -0.85 5.12
-4 -6 -10 -3.33 3.7
4 6 10 -6 3.7
-4 -6 -11 77.41 8.05
4 6 11 48.82 5.63
-4 -7 4 3.24 4.78
4 7 -4 4.81 4.81
-4 -7 3 41.87 5.38
4 7 -3 38.69 5.32
-4 -7 2 204.08 11.81
-4 -7 2 212.02 8.82
4 7 -2 207.55 9.59
4 7 -2 220.38 8.93
-4 -7 1 4.49 3.95
-4 -7 1 5.49 3.47
4 7 -1 6.46 4.04
4 7 -1 0.88 3.36
-4 -7 0 84.8 7.14
-4 -7 0 73.99 6.17
4 7 0 77.46 6.54
4 7 0 86.91 6.43
-4 -7 -1 3.61 3.47
-4 -7 -1 0.71 2.79
4 7 1 -3.64 2.82
4 7 1 6.77 3.5
-4 -7 -2 428.62 9.73
-4 -7 -2 422.25 9.5
4 7 2 450.07 9.84
4 7 2 422.19 9.76
-4 -7 -3 293.49 8.59
-4 -7 -3 277.19 8.14
4 7 3 283.11 8.25
4 7 3 287.01 8.45
-4 -7 -4 242.46 7.97
-4 -7 -4 240.72 7.77
4 7 4 250.17 7.97
4 7 4 242.23 8.14
-4 -7 -5 1.51 3.41
-4 -7 -5 2.22 2.9
-4 -7 -5 2.33 1.93
4 7 5 1.91 3.04
4 7 5 -0.6 3.16
4 7 5 4.1 2.5
-4 -7 -6 198.25 8.28
-4 -7 -6 188.84 7.51
-4 -7 -6 179.25 4.92
4 7 6 183.52 7.57
4 7 6 180.7 7.6
4 7 6 198.34 5.09
-4 -7 -7 103.15 7.51
-4 -7 -7 99.74 6.69
4 7 7 90.86 6.66
4 7 7 92.88 7.17
4 7 7 92.94 4.41
-4 -7 -8 14.17 4.64
-4 -7 -8 13.63 3.87
-4 -7 -8 16.3 2.62
4 7 8 15.9 4.12
-4 -7 -9 76.3 8.93
-4 -7 -9 69.55 7.06
-4 -7 -9 61.19 4.44
4 7 9 66.03 7.23
-4 -7 -10 290.11 10.58
4 7 10 309.42 10.9
-4 -8 3 -4.04 4.84
4 8 -3 -3.5 4.69
-4 -8 2 80.82 8.19
4 8 -2 77.92 8.25
-4 -8 1 11.61 4.15
4 8 -1 14.2 8.85
4 8 -1 13.17 4.27
-4 -8 0 721.01 13.43
4 8 0 665.11 13.63
4 8 0 727.69 13.48
-4 -8 -1 192.59 9.13
-4 -8 -1 188.75 8.14
4 8 1 183.54 8.22
4 8 1 169.38 8.45
-4 -8 -2 118.68 7.57
-4 -8 -2 120.82 7.14
4 8 2 116.41 7.28
4 8 2 122.72 8.16
-4 -8 -3 280.75 9.59
-4 -8 -3 289.03 9.02
4 8 3 309.34 9.39
4 8 3 288.2 9.81
-4 -8 -4 3.84 3.95
-4 -8 -4 5.32 3.5
-4 -8 -4 8.19 2.42
4 8 4 6.6 3.56
4 8 4 5.72 4.1
-4 -8 -5 89.35 7.79
-4 -8 -5 86.4 6.69
-4 -8 -5 91.03 4.04
4 8 5 94.1 7.03
4 8 5 94.45 7.74
4 8 5 98.32 5.04
-4 -8 -6 7.77 4.44
-4 -8 -6 9.3 3.7
-4 -8 -6 3.04 2.02
4 8 6 5.69 3.84
4 8 6 5.66 4.35
4 8 6 5.43 3.13
-4 -8 -7 13.63 4.81
-4 -8 -7 9.02 4.01
-4 -8 -7 9.1 2.16
4 8 7 5.32 3.95
-4 -8 -8 59.63 5.8
-4 -8 -8 60.42 3.87
4 8 8 64.63 7.6
-4 -8 -9 15.53 4.78
4 8 9 20.94 5.18
-4 -9 1 46.91 5.97
4 9 -1 36.56 5.77
-4 -9 0 14.17 4.61
4 9 0 10.7 4.75
-4 -9 -1 47.82 5.46
4 9 1 66.62 7.62
-4 -9 -2 25.29 4.78
4 9 2 31.92 4.98
-4 -9 -3 0.88 3.73
4 9 3 4.49 4.1
-4 -9 -4 0.43 3.9
-4 -9 -4 0.4 2.84
4 9 4 -0.71 3.9
-4 -9 -5 4.98 4.18
-4 -9 -5 10.44 2.25
4 9 5 4.24 4.27
4 9 5 8.16 3.9
-4 -9 -6 32.4 5.15
4 9 6 41.33 5.69
-4 -9 -7 0.65 4.52
4 9 7 2.82 4.61
-4 -9 -8 825.81 16.1
-5 7 3 642.18 9.96
5 -7 -3 663.77 10.61
-5 7 2 275.97 6.66
5 -7 -2 241.49 6.23
5 -7 -2 294.86 7.77
-5 7 1 7.65 4.44
5 -7 -1 0.97 2.16
5 -7 -1 -0.34 2.9
-5 7 0 70.75 6.09
5 -7 0 60.62 5.32
-5 7 -1 14.79 3.95
5 -7 1 12.57 3.44
-5 7 -2 163.26 7.54
5 -7 2 164.51 7.17
-5 7 -3 2.47 4.3
5 -7 3 3.13 4.92
5 -7 4 39.34 4.78
5 -7 5 276.94 9.67
-5 6 4 258.48 8.16
5 -6 -4 258.99 7.14
-5 6 3 0.68 3.1
-5 6 3 2.56 3.56
5 -6 -3 -0.91 2.79
5 -6 -3 3.73 2.3
5 -6 -3 2.79 2.62
-5 6 2 169.63 5.49
-5 6 2 161.98 5.72
-5 6 2 164.23 6.29
5 -6 -2 148.67 5.09
5 -6 -2 155.12 4.72
5 -6 -2 164.34 6.17
-5 6 1 146.53 4.3
-5 6 1 146.82 6.06
5 -6 -1 136.46 4.21
5 -6 -1 127.3 3.9
5 -6 -1 140.28 6
-5 6 0 97.97 5.6
5 -6 0 99.54 5.52
-5 6 -1 4.18 3.13
5 -6 1 -0.48 2.76
-5 6 -2 18.46 3.67
5 -6 2 23.21 3.78
-5 6 -3 83.27 6.23
5 -6 3 81.76 5.77
-5 6 -4 216.23 7.99
5 -6 4 199.33 7.71
-5 6 -5 787.37 12.94
5 -6 5 686.53 15.5
5 -6 6 16.93 4.04
5 -6 6 21.82 4.67
5 -6 7 23.38 4.61
5 -6 7 25.06 4.75
-5 5 5 0.91 3.9
5 -5 -5 -3.07 3.24
5 -5 -5 -1.71 2.62
-5 5 4 18.18 3.7
-5 5 4 15.56 4.41
5 -5 -4 20.08 3.13
5 -5 -4 19.06 3.1
-5 5 3 126.68 5.66
-5 5 3 135.75 6.32
-5 5 3 122.01 6.14
5 -5 -3 117.94 5.29
5 -5 -3 123.01 4.95
5 -5 -3 131.48 5.6
-5 5 2 3.33 2.59
-5 5 2 -0.77 2.79
5 -5 -2 1.14 2.05
5 -5 -2 2.84 1.71
5 -5 -2 -0.8 2.45
-5 5 1 99.45 3.7
-5 5 1 83.52 4.21
-5 5 1 98.83 5.35
5 -5 -1 99.71 3.73
5 -5 -1 99.85 3.47
5 -5 -1 98.03 5.09
-5 5 0 61.19 4.69
5 -5 0 60.51 4.78
-5 5 -1 102.53 5.38
5 -5 1 106.37 5.49
-5 5 -2 101.7 5.49
5 -5 2 99.91 5.52
-5 5 -3 1552.22 14.91
5 -5 3 1499.62 16.44
-5 5 -4 53.45 5.75
5 -5 4 41.56 5.01
-5 5 -5 96.1 6.51
5 -5 5 79.54 5.75
-5 5 -6 7 4.07
5 -5 6 5.32 3.24
5 -5 6 4.18 2.93
5 -5 7 11.07 3.56
5 -5 7 4.32 3.3
5 -5 8 50.55 5.29
5 -5 8 59.43 6.54
-5 4 6 3.24 4.3
5 -4 -6 -1.65 3.56
5 -4 -6 -2.22 2.62
-5 4 5 9.81 3.81
-5 4 5 5.46 4.75
5 -4 -5 4.07 3.04
5 -4 -5 9.22 2.9
-5 4 4 95.19 6.06
-5 4 4 79 6.57
5 -4 -4 72.14 5.38
5 -4 -4 91.12 5.12
5 -4 -4 83.52 5.01
-5 4 3 123.52 5.43
-5 4 3 116.66 5.75
5 -4 -3 106.48 5.04
5 -4 -3 112.25 4.81
5 -4 -3 109.52 5.29
-5 4 2 0.63 2.19
-5 4 2 -0.4 2.25
5 -4 -2 2.45 2.02
5 -4 -2 -0.4 1.51
5 -4 -2 0.97 2.45
-5 4 1 204 4.32
-5 4 1 188.27 4.15
-5 4 1 188.92 5.95
5 -4 -1 185.45 4.32
5 -4 -1 180.98 5.97
-5 4 0 806.69 10.13
5 -4 0 794.66 6.34
5 -4 0 783.28 5.95
5 -4 0 800.4 11.04
-5 4 -1 1262.28 12.46
5 -4 1 1239.09 13.71
-5 4 -2 258.67 6.66
5 -4 2 255.91 7.08
-5 4 -3 66 4.78
5 -4 3 64.26 4.84
-5 4 -4 179.08 6.49
5 -4 4 172.31 6.57
-5 4 -5 2.22 3.16
5 -4 5 6.46 3.19
-5 4 -6 3.64 3.44
5 -4 6 2.13 2.76
5 -4 6 3.19 3.13
-5 4 -7 12.94 4.18
5 -4 7 3.7 3.02
5 -4 7 0.97 2.99
5 -4 8 3.98 1.76
5 -4 8 1.17 3.44
5 -4 8 4.92 3.24
5 -4 9 53.6 4.18
5 -4 9 47.99 5.35
5 -4 9 50.78 5.52
-5 3 6 71.12 7.4
-5 3 6 72.2 6.94
5 -3 -6 63.5 6.66
5 -3 -6 69.84 5.23
-5 3 5 2.82 3.47
-5 3 5 1.25 4.24
5 -3 -5 -0.82 2.9
5 -3 -5 4.3 2.84
-5 3 4 18.58 3.47
-5 3 4 18.66 3.84
5 -3 -4 18.41 3.19
5 -3 -4 21.93 3.16
5 -3 -4 17.69 3.13
-5 3 3 16.7 2.9
-5 3 3 14.31 3.02
5 -3 -3 13.77 2.59
5 -3 -3 17.01 2.59
5 -3 -3 12.63 2.82
-5 3 2 982.24 9.67
-5 3 2 942.87 9.44
5 -3 -2 912.46 9.5
5 -3 -2 961.7 9.62
5 -3 -2 927.05 11.61
-5 3 1 157.34 4.18
-5 3 1 144.71 4.01
5 -3 -1 147.64 4.1
5 -3 -1 144.77 3.84
5 -3 -1 146.22 5.52
-5 3 0 7.91 1.68
-5 3 0 8.45 1.45
-5 3 0 7.11 2.5
5 -3 0 6.97 1.34
5 -3 0 5.52 2.53
-5 3 -1 174.98 5.6
5 -3 1 174.07 5.77
-5 3 -2 360.46 7.28
5 -3 2 337.9 7.57
-5 3 -3 217.88 6.34
5 -3 3 211.14 6.43
-5 3 -4 126.79 5.6
5 -3 4 114.7 5.43
-5 3 -5 5.58 2.93
5 -3 5 3.7 2.73
-5 3 -6 2.16 3.1
5 -3 6 2.56 2.65
5 -3 6 1.93 2.96
-5 3 -7 53.03 6
5 -3 7 54.05 5.15
5 -3 7 51.52 5.32
-5 3 -8 132.22 8.65
5 -3 8 130.72 3.67
5 -3 8 135.98 7.06
5 -3 8 122.32 6.6
-5 3 -9 73.85 7.37
-5 3 -9 108.5 4.81
5 -3 9 100.96 4.49
5 -3 9 96.75 7.2
5 -3 9 84.06 6.6
-5 3 -10 2.47 3.3
5 -3 10 -1.05 3.19
5 -3 10 3.95 4.27
5 -3 10 -2.02 3.9
-5 2 7 67.53 6.88
5 -2 -7 72.29 7.6
5 -2 -7 83.75 5.72
-5 2 6 -1.59 3.84
-5 2 6 5.97 5.21
5 -2 -6 0.68 3.36
5 -2 -6 5.09 2.9
-5 2 5 5.41 3.44
-5 2 5 2.53 4.21
5 -2 -5 3.95 2.93
5 -2 -5 -3.53 2.47
-5 2 4 410.67 8.65
-5 2 4 394.91 8.88
5 -2 -4 365.44 8.19
5 -2 -4 403.87 8.39
5 -2 -4 388.59 8.42
-5 2 3 282.4 6.88
-5 2 3 259.1 6.83
5 -2 -3 249.4 6.34
5 -2 -3 267.55 6.43
5 -2 -3 244.79 6.83
-5 2 2 8.42 2.39
-5 2 2 10.41 2.33
5 -2 -2 3.64 2.11
5 -2 -2 7.71 1.99
5 -2 -2 3.7 2.28
-5 2 1 -0.2 1.79
5 -2 -1 1.34 1.68
5 -2 -1 -0.09 1.42
5 -2 -1 2.42 2.33
-5 2 0 232.62 4.01
-5 2 0 239.87 4.15
5 -2 0 203.71 4.92
5 -2 0 221.41 6.14
-5 2 -1 1 2.13
5 -2 1 2.87 1.17
5 -2 1 1.37 1.02
5 -2 1 0 2.33
-5 2 -2 278.45 6.51
5 -2 2 272.27 6.74
-5 2 -3 86.17 4.58
5 -2 3 83.58 4.61
-5 2 -4 89.58 4.86
5 -2 4 92.97 4.86
-5 2 -5 23.1 3.36
5 -2 5 18.15 3.13
-5 2 -6 -0.63 2.73
5 -2 6 3.53 2.62
5 -2 6 -1.76 2.36
-5 2 -7 5.6 3.21
5 -2 7 1.19 1.25
5 -2 7 2.16 1.34
5 -2 7 3.47 2.53
5 -2 7 -0.8 2.79
-5 2 -8 5.86 2.22
-5 2 -8 7.28 2.02
-5 2 -8 -1.22 3.47
5 -2 8 7.48 1.93
5 -2 8 7.25 3.1
5 -2 8 4.98 3.19
-5 2 -9 90.29 5.04
-5 2 -9 87.96 4.72
5 -2 9 95.04 3.98
5 -2 9 96.07 4.52
5 -2 9 97.26 6.88
5 -2 9 91.03 6.14
-5 2 -10 395.22 7.99
5 -2 10 371.13 11.35
5 -2 10 356.79 7.6
5 -2 10 357.22 10.72
5 -2 10 353.4 11.58
-5 1 7 57.18 6.12
-5 1 7 66.2 8.48
5 -1 -7 72.77 7.77
-5 1 6 241.69 8.99
-5 1 6 235.97 10.98
5 -1 -6 246.36 11.09
-5 1 5 254.29 8.19
-5 1 5 229.4 8.85
5 -1 -5 252.5 7.82
-5 1 4 105.26 6
-5 1 4 101.16 6.51
5 -1 -4 100.08 5.86
5 -1 -4 102.13 5.55
-5 1 3 69.58 4.89
-5 1 3 57.55 4.98
5 -1 -3 53.11 4.47
5 -1 -3 58.23 4.3
5 -1 -3 58.86 4.41
-5 1 2 275.57 6.29
-5 1 2 281.26 6.32
5 -1 -2 266.55 6.06
5 -1 -2 275.46 6.03
5 -1 -2 260.75 6.77
-5 1 1 1.68 1.88
-5 1 1 -0.97 1.88
5 -1 -1 -0.6 1.79
5 -1 -1 -0.06 1.56
5 -1 -1 1.11 2.22
-5 1 0 45.74 2.96
-5 1 0 46.2 3.07
5 -1 0 42.59 2.9
5 -1 0 41.96 2.62
5 -1 0 43.44 3.87
-5 1 -1 16.19 1.59
-5 1 -1 18.55 2.28
5 -1 1 26.88 2.3
5 -1 1 19.03 2.87
-5 1 -2 84.52 2.11
-5 1 -2 84.4 4.41
5 -1 2 86.62 2.39
5 -1 2 91.63 2.33
5 -1 2 91.8 4.52
-5 1 -3 0.68 1.99
5 -1 3 -0.06 2.19
-5 1 -4 243.77 6.37
5 -1 4 242.09 6.46
-5 1 -5 2.93 2.33
5 -1 5 5.06 1.08
5 -1 5 3.87 1.05
5 -1 5 4.55 2.59
-5 1 -6 221.81 3.39
-5 1 -6 226.78 3.47
-5 1 -6 220.64 6.69
5 -1 6 225.68 3.67
5 -1 6 229.49 4.01
5 -1 6 213.58 6.54
-5 1 -7 59.26 3.04
-5 1 -7 61.08 3.13
-5 1 -7 58.8 5.15
5 -1 7 57.66 3.02
5 -1 7 61.53 4.84
5 -1 7 62.47 4.89
-5 1 -8 261.04 5.38
-5 1 -8 269.48 5.38
-5 1 -8 244.71 7.97
5 -1 8 255.09 5.06
5 -1 8 266.38 5.43
5 -1 8 259.13 7.91
5 -1 8 259.44 7.65
-5 1 -9 377.9 7.17
-5 1 -9 377.56 7
-5 1 -9 326.01 9.39
5 -1 9 373.6 6.66
5 -1 9 367.34 6.97
5 -1 9 360.69 9.62
5 -1 9 365.67 9.1
-5 1 -10 64.78 6.29
-5 1 -10 60.93 5.46
5 -1 10 58.86 4.47
5 -1 10 57.29 4.98
5 -1 10 73.85 6.8
5 -1 10 58.4 5.86
-5 1 -11 734.12 11.41
5 -1 11 677.17 14.14
5 -1 11 645.73 14.71
-5 0 7 37.27 5.72
-5 0 7 40.65 7.94
5 0 -7 65.17 8.14
-5 0 6 8.88 3.98
-5 0 6 23.55 5.77
5 0 -6 9.76 3.81
-5 0 5 78.46 6.34
-5 0 5 78.63 7.54
5 0 -5 78.4 6
-5 0 4 29.9 3.78
-5 0 4 28.45 4.3
5 0 -4 35.64 4.01
5 0 -4 30.98 3.56
-5 0 3 30.92 3.41
5 0 -3 31.12 3.47
5 0 -3 34.51 4.1
-5 0 2 5.06 2.39
-5 0 2 1.51 2.25
5 0 -2 3.87 2.25
5 0 -2 5.18 2.16
-5 0 1 273.55 5.89
-5 0 1 284.56 6.03
5 0 -1 269.48 5.89
5 0 -1 276.62 5.75
5 0 -1 265.27 6.69
-5 0 0 828.31 8.28
-5 0 0 869.19 8.51
5 0 0 815 8.34
5 0 0 836.08 8.36
5 0 0 775.17 10.27
-5 0 -1 3.3 1.54
-5 0 -1 4.32 1.62
5 0 1 1.82 2.08
-5 0 -2 20.62 2.3
-5 0 -2 22.9 2.39
5 0 2 23.18 2.36
5 0 2 18.89 1.99
5 0 2 17.3 2.59
-5 0 -3 242.26 3.67
-5 0 -3 250.48 3.76
-5 0 -3 234.18 6.03
5 0 3 237.03 3.81
5 0 3 236.91 6.06
-5 0 -4 35.5 2.19
-5 0 -4 32.69 2.3
-5 0 -4 36.64 3.67
5 0 4 35.36 2.25
5 0 4 37.44 3.73
-5 0 -5 108.19 3.02
-5 0 -5 102.98 3.07
-5 0 -5 97.63 4.84
5 0 5 112.57 3.13
5 0 5 102.04 4.78
-5 0 -6 521.5 5.89
-5 0 -6 530.55 5.95
-5 0 -6 495.59 9.02
5 0 6 512.97 5.95
5 0 6 538.71 6.14
5 0 6 507.96 8.79
-5 0 -7 1439.34 10.27
-5 0 -7 1445.42 10.35
-5 0 -7 1330.24 14.48
5 0 7 1218.58 11.64
5 0 7 1390.24 10.5
5 0 7 1362.9 15.02
5 0 7 1361.9 14.08
-5 0 -8 1523.97 11.78
-5 0 -8 1599.61 12.06
-5 0 -8 1442.01 15.85
5 0 8 1493.36 11.83
5 0 8 1549.26 12.18
5 0 8 1453.02 15.93
5 0 8 1484.82 15.22
-5 0 -9 1246.43 12.06
-5 0 -9 1243.05 11.83
-5 0 -9 1101.66 14.88
5 0 9 1237.76 11.89
5 0 9 1190.11 11.86
5 0 9 1176.85 15.25
5 0 9 1192.75 14.34
-5 0 -10 76.01 6.4
-5 0 -10 84.72 5.72
5 0 10 81.64 4.92
5 0 10 69.27 5.29
5 0 10 71.63 6.71
5 0 10 74.45 5.92
-5 0 -11 1.91 3.61
5 0 11 0.09 2.87
5 0 11 1.62 4.32
5 0 11 0.77 3.53
-5 -1 6 66.17 7.6
5 1 -6 61.45 7
-5 -1 5 71.4 6.54
5 1 -5 62.7 6.46
-5 -1 4 39.57 4.52
-5 -1 4 36.61 4.01
5 1 -4 32.77 4.21
5 1 -4 42.96 4.24
-5 -1 3 2.45 2.96
-5 -1 3 9.93 2.84
5 1 -3 8.88 2.84
5 1 -3 4.84 2.53
-5 -1 2 388.28 7.85
-5 -1 2 362.96 7.74
5 1 -2 362.91 7.48
5 1 -2 389.39 7.57
-5 -1 1 77.12 4.49
-5 -1 1 81.76 4.47
5 1 -1 71.18 4.3
5 1 -1 83.86 4.27
-5 -1 0 0.51 1.88
-5 -1 0 1.96 1.85
5 1 0 0.48 1.85
5 1 0 -0.03 1.71
-5 -1 -1 22.79 2.3
-5 -1 -1 24.78 2.39
5 1 1 21.79 2.22
5 1 1 24.86 2.84
5 1 1 21.82 2.7
-5 -1 -2 202.69 4.47
-5 -1 -2 193.19 4.38
5 1 2 181.38 4.58
5 1 2 188.04 4.24
5 1 2 187.01 5.49
-5 -1 -3 -1.91 1.37
-5 -1 -3 -0.46 1.48
-5 -1 -3 0.97 2.16
5 1 3 -1.99 1.22
5 1 3 0.48 1.62
5 1 3 -0.23 1.99
-5 -1 -4 1145.76 8.68
-5 -1 -4 1053.33 8.39
-5 -1 -4 1027.81 11.35
5 1 4 1042.24 11.24
-5 -1 -5 558.17 6.51
-5 -1 -5 526.28 6.37
-5 -1 -5 515.84 8.51
5 1 5 517.01 6.54
5 1 5 546 6.54
5 1 5 520.31 8.34
-5 -1 -6 4234.6 17.69
-5 -1 -6 3964.58 17.24
-5 -1 -6 4001.36 23.13
5 1 6 3958.69 17.52
5 1 6 4156.54 18.01
5 1 6 3991.29 22.02
-5 -1 -7 848.99 8.99
-5 -1 -7 850.07 9.02
-5 -1 -7 758.73 11.07
5 1 7 807.09 8.82
5 1 7 785.41 8.79
5 1 7 790.45 10.53
-5 -1 -8 71.03 4.61
-5 -1 -8 75.44 4.35
-5 -1 -8 70.35 5.32
5 1 8 78.06 4.07
5 1 8 68.93 4.21
5 1 8 74.08 5.32
5 1 8 69.58 4.75
-5 -1 -9 37.61 3.78
-5 -1 -9 34.22 3.44
-5 -1 -9 32.34 4.21
5 1 9 33.34 4.01
5 1 9 33.88 4.15
5 1 9 30.27 3.95
5 1 9 34.51 3.93
-5 -1 -10 -1.59 3.44
-5 -1 -10 0.77 2.9
-5 -1 -10 -2.87 5.29
5 1 10 -1.88 2.33
5 1 10 3.16 2.87
5 1 10 -1.85 3.47
5 1 10 3.3 3.16
-5 -1 -11 35.53 5.41
-5 -1 -11 37.92 4.49
5 1 11 39.03 4.01
5 1 11 35.1 5.29
5 1 11 39.8 4.61
-5 -2 6 31.52 6.43
-5 -2 6 21.31 4.92
5 2 -6 32.91 5.01
-5 -2 5 14.59 4.86
-5 -2 5 14.74 4.04
5 2 -5 13.43 3.95
-5 -2 4 25.97 4.35
-5 -2 4 27.51 3.93
5 2 -4 24.78 4.15
5 2 -4 31.06 4.04
-5 -2 3 2.42 3.13
-5 -2 3 -0.88 2.7
5 2 -3 0.97 2.76
5 2 -3 0.68 2.45
-5 -2 2 1.11 2.7
-5 -2 2 -0.97 2.33
5 2 -2 1.59 2.45
5 2 -2 2.3 2.39
-5 -2 1 26.2 3.16
-5 -2 1 21.53 2.84
5 2 -1 22.19 2.9
5 2 -1 23.98 2.87
-5 -2 0 918.23 10.33
-5 -2 0 899.91 10.18
5 2 0 899.29 10.21
5 2 0 938.94 10.38
-5 -2 -1 268.35 5.89
-5 -2 -1 268.15 5.77
5 2 1 252.73 5.66
5 2 1 279.61 5.89
-5 -2 -2 1212.55 10.53
-5 -2 -2 1182.06 10.41
5 2 2 1181.52 10.47
5 2 2 1192.95 10.53
5 2 2 1140.98 11.86
-5 -2 -3 125.31 4.24
-5 -2 -3 130.35 4.3
5 2 3 121.13 4.12
5 2 3 127.96 4.21
5 2 3 125.48 4.81
-5 -2 -4 4066.47 18.12
-5 -2 -4 4249.82 18.66
-5 -2 -4 4020.33 21.85
5 2 4 4036.6 18.35
5 2 4 4215.88 18.75
5 2 4 4019.19 21.17
-5 -2 -5 1762.33 12.4
-5 -2 -5 1700.83 12.29
-5 -2 -5 1671.75 14.54
5 2 5 1744.1 12.46
5 2 5 1711.18 12.37
5 2 5 1682.9 13.88
-5 -2 -6 31.63 3.58
-5 -2 -6 27.79 2.73
-5 -2 -6 32.63 3.93
5 2 6 27.54 3.33
5 2 6 27.37 3.36
5 2 6 30.61 3.76
-5 -2 -7 66.51 4.38
-5 -2 -7 63.72 4.12
-5 -2 -7 57.78 4.58
5 2 7 69.1 3.98
5 2 7 60.37 3.93
5 2 7 59.28 4.24
-5 -2 -8 384.24 7.65
-5 -2 -8 377.5 7.48
-5 -2 -8 361.43 8.31
5 2 8 387.91 7.37
5 2 8 372.58 7.37
5 2 8 384.95 7.68
-5 -2 -9 43.5 5.32
-5 -2 -9 46.03 4.81
-5 -2 -9 42.07 4.32
5 2 9 51.77 4.44
5 2 9 45.2 4.64
5 2 9 47.85 5.49
5 2 9 48.33 4.72
-5 -2 -10 55.67 6.71
-5 -2 -10 52.74 5.6
-5 -2 -10 55.9 5.89
5 2 10 51.38 5.06
5 2 10 46.14 5.32
5 2 10 47.19 5.04
5 2 10 54.19 5.18
-5 -2 -11 -0.71 5.15
-5 -2 -11 0.6 3.53
5 2 11 1.65 3.24
5 2 11 7.6 4.21
5 2 11 1.65 3.44
-5 -2 -12 295.23 10.07
5 2 12 303.96 9.64
5 2 12 288.66 11.07
-5 -3 6 125.11 9.07
5 3 -6 122.84 9.02
-5 -3 5 16.78 5.41
-5 -3 5 12.63 4.27
5 3 -5 12.89 3.98
-5 -3 4 0.06 3.95
-5 -3 4 1.91 3.36
5 3 -4 2.16 5.69
5 3 -4 4.89 3.19
-5 -3 3 7.62 3.53
-5 -3 3 4.78 3.02
5 3 -3 6.26 3.33
5 3 -3 6.94 2.87
-5 -3 2 141.67 6.51
-5 -3 2 134.87 6.06
5 3 -2 132.45 6.12
5 3 -2 143.6 6.09
-5 -3 1 214.98 8.28
-5 -3 1 188.55 10.64
5 3 -1 219.9 6.54
5 3 -1 236.97 6.74
-5 -3 0 1991.48 15.79
-5 -3 0 1961.38 15.73
5 3 0 1942.18 15.65
5 3 0 2024.53 16.02
-5 -3 -1 14.51 2.67
-5 -3 -1 11.15 2.45
5 3 1 11.66 2.45
5 3 1 11.46 2.47
-5 -3 -2 6267.13 25.43
-5 -3 -2 6003.5 25.06
5 3 2 6469.33 26.09
5 3 2 6254.58 25.69
-5 -3 -3 1358.8 12
-5 -3 -3 1259.43 11.61
5 3 3 1358.26 12.09
5 3 3 1282.9 11.72
5 3 3 1324.41 12.6
-5 -3 -4 40.03 3.93
-5 -3 -4 39.2 3.84
-5 -3 -4 46.45 3.98
5 3 4 42.93 3.9
5 3 4 41.96 3.76
5 3 4 45.4 3.87
-5 -3 -5 16.9 2.67
-5 -3 -5 16.93 2.56
-5 -3 -5 17.24 2.76
5 3 5 16.98 2.5
5 3 5 19.29 2.56
5 3 5 19.46 2.7
-5 -3 -6 483.89 7.99
-5 -3 -6 477.75 7.94
-5 -3 -6 451.09 8.19
5 3 6 454.28 7.71
5 3 6 481.9 7.94
5 3 6 473.74 7.71
-5 -3 -7 455.19 8.11
-5 -3 -7 374.26 10.95
-5 -3 -7 419.94 8.28
5 3 7 432.52 7.88
5 3 7 441.48 7.97
5 3 7 438.32 7.54
-5 -3 -8 74.53 5.41
-5 -3 -8 65.77 4.86
-5 -3 -8 71.32 4.98
5 3 8 65.06 4.72
5 3 8 64.55 4.84
5 3 8 73.37 4.55
-5 -3 -9 39.94 4.38
-5 -3 -9 39.88 3.98
-5 -3 -9 35.62 4.1
5 3 9 39.03 4.69
5 3 9 36.7 3.78
5 3 9 40.17 4.49
-5 -3 -10 627.87 11.92
-5 -3 -10 611.54 11.01
-5 -3 -10 577.29 11.07
5 3 10 628.55 11.12
5 3 10 629.38 9.7
-5 -3 -11 15.11 5.35
-5 -3 -11 6.03 3.78
5 3 11 8.99 3.73
5 3 11 4.27 4.35
5 3 11 9.3 3.81
-5 -4 5 6.57 4.44
5 4 -5 5.18 4.24
-5 -4 4 12.46 4.86
-5 -4 4 10.92 3.98
5 4 -4 5.04 3.58
-5 -4 3 12.4 4.1
-5 -4 3 17.32 3.73
5 4 -3 16.95 4.01
5 4 -3 17.01 3.81
-5 -4 2 767.74 12.37
-5 -4 2 772.69 12.18
5 4 -2 722.03 11.86
5 4 -2 817.1 12.4
-5 -4 1 103.89 6.32
-5 -4 1 103.41 5.83
5 4 -1 93.82 5.66
5 4 -1 103.66 5.72
-5 -4 0 5910.42 28.59
-5 -4 0 5063.11 32.97
5 4 0 5445.67 27.59
5 4 0 5775.12 28.42
-5 -4 -1 24.07 3.36
-5 -4 -1 24.38 3.13
5 4 1 21.11 3.1
5 4 1 26.2 3.27
-5 -4 -2 16.98 3.04
-5 -4 -2 11.64 2.62
5 4 2 15.16 2.82
5 4 2 18.89 2.93
-5 -4 -3 2.19 2.42
-5 -4 -3 3.5 2.3
5 4 3 0.6 2.22
5 4 3 0.6 2.22
5 4 3 1.99 2.3
-5 -4 -4 173.99 5.8
-5 -4 -4 168.95 5.75
-5 -4 -4 175.81 5.58
5 4 4 178.54 5.77
5 4 4 176.55 5.75
5 4 4 178.96 5.49
-5 -4 -5 50.81 4.49
-5 -4 -5 50.49 4.3
-5 -4 -5 49.78 4.07
5 4 5 59.71 4.52
5 4 5 53.51 4.3
5 4 5 55.3 4.01
-5 -4 -6 0.94 2.56
-5 -4 -6 -0.48 2.11
5 4 6 1.08 2.22
5 4 6 -0.11 2.22
5 4 6 -0.68 2.22
-5 -4 -7 215.86 7
-5 -4 -7 201.81 6.4
-5 -4 -7 200.73 6.17
5 4 7 208.07 6.51
5 4 7 205.79 6.49
5 4 7 208.49 5.58
-5 -4 -8 845.86 11.83
-5 -4 -8 839.23 11.55
5 4 8 909.78 12.15
5 4 8 858.92 11.98
5 4 8 868.11 9.93
-5 -4 -9 157.06 7.62
-5 -4 -9 147.59 6.8
-5 -4 -9 131.51 6.12
5 4 9 149.09 6.63
5 4 9 141.98 6.83
5 4 9 157.97 5.69
-5 -4 -10 392.46 10.84
-5 -4 -10 352.58 9.42
-5 -4 -10 337.22 8.82
5 4 10 377.56 9.47
5 4 10 382.31 7.77
-5 -4 -11 1.62 5.66
-5 -4 -11 -0.06 3.73
5 4 11 7.79 4.49
5 4 11 3.27 3.93
-5 -5 5 -0.68 4.78
5 5 -5 12.49 5.04
-5 -5 4 288.49 10.33
5 5 -4 310.25 10.5
-5 -5 3 101.3 8.73
-5 -5 3 91.86 7.37
5 5 -3 112.51 7.6
-5 -5 2 2906.04 23.64
-5 -5 2 2848.89 23.33
5 5 -2 2631.38 22.56
5 5 -2 3129.04 24.38
-5 -5 1 36.7 4.58
-5 -5 1 31.61 4.01
5 5 -1 29.76 4.07
5 5 -1 30.3 4.15
-5 -5 0 87.16 6.26
-5 -5 0 80.76 5.58
5 5 0 87.96 5.89
5 5 0 89.41 5.75
-5 -5 -1 213.44 7.42
-5 -5 -1 199.7 6.8
5 5 1 190.34 6.8
-5 -5 -2 114.16 6.09
-5 -5 -2 107.82 5.52
5 5 2 120.85 5.72
5 5 2 103.89 5.63
-5 -5 -3 117.12 5.89
-5 -5 -3 110.41 6.49
5 5 3 115.36 5.55
5 5 3 112.74 5.58
-5 -5 -4 82.19 5.43
-5 -5 -4 79.99 5.35
-5 -5 -4 78.52 4.44
5 5 4 78.09 5.01
5 5 4 72.29 5.06
5 5 4 81.02 4.52
-5 -5 -5 34.59 3.76
-5 -5 -5 31.43 3.39
-5 -5 -5 35.67 3.9
5 5 5 31.86 3.47
5 5 5 33.37 3.61
5 5 5 35.82 3.78
-5 -5 -6 923.47 12.4
-5 -5 -6 863.16 11.89
-5 -5 -6 876.53 10.81
5 5 6 906.14 12.09
5 5 6 915.79 12.15
5 5 6 927.68 10.04
-5 -5 -7 311.59 8.48
-5 -5 -7 311.13 8.16
-5 -5 -7 326.75 7.37
5 5 7 316.25 8.14
5 5 7 305.87 8.11
5 5 7 325.98 6.51
-5 -5 -8 41.08 4.69
-5 -5 -8 35.76 3.98
-5 -5 -8 39.63 3.81
5 5 8 43.07 5.26
5 5 8 37.15 4.21
5 5 8 43.47 4.3
-5 -5 -9 204.28 8.82
-5 -5 -9 184.91 7.51
-5 -5 -9 187.3 6.66
5 5 9 209.8 7.71
5 5 9 198.17 5.97
-5 -5 -10 25.35 5.55
-5 -5 -10 14.28 4.1
-5 -5 -10 16.02 3.53
5 5 10 23.75 4.18
5 5 10 26.17 3.98
-5 -5 -11 -1.14 6.34
-5 -5 -11 4.81 4.27
-5 -5 -11 5.35 3.7
5 5 11 5.04 4.18
-5 -6 4 1389.35 19.69
5 6 -4 1460.1 20.14
-5 -6 3 36.61 5.21
5 6 -3 45.06 5.58
-5 -6 2 73.88 8.51
-5 -6 2 51.18 5.43
5 6 -2 68.47 7.06
-5 -6 1 30.27 4.86
-5 -6 1 37.58 4.64
5 6 -1 20.45 4.38
5 6 -1 34.08 4.52
-5 -6 0 -6.12 3.56
-5 -6 0 0.51 3.04
5 6 0 2.9 3.41
5 6 0 0.51 3.07
-5 -6 -1 191.4 7.99
-5 -6 -1 164.74 7
5 6 1 176.89 7.54
-5 -6 -2 41.42 4.58
-5 -6 -2 32.29 3.84
5 6 2 34.45 4.04
5 6 2 40.99 4.32
-5 -6 -3 226.27 7.77
-5 -6 -3 202.01 7.08
5 6 3 214.86 7.28
5 6 3 199.84 7.25
-5 -6 -4 753.86 11.92
-5 -6 -4 731.56 11.55
5 6 4 734.89 11.64
5 6 4 725.76 11.69
5 6 4 727.63 9.84
-5 -6 -5 268.63 8.39
-5 -6 -5 267.01 7.91
-5 -6 -5 260.35 6.57
5 6 5 267.04 7.94
5 6 5 252.7 7.97
5 6 5 276.94 6.51
-5 -6 -6 295.43 9.02
-5 -6 -6 288.09 8.36
-5 -6 -6 276.54 6.69
5 6 6 282.14 8.19
5 6 6 261.55 8.25
5 6 6 293.64 6.49
-5 -6 -7 179.48 8.14
-5 -6 -7 173.47 7.31
-5 -6 -7 169.29 5.8
5 6 7 188.1 7.62
5 6 7 155.64 7.28
5 6 7 178.54 5.55
-5 -6 -8 31.92 4.89
-5 -6 -8 30.75 4.32
-5 -6 -8 36.9 3.7
5 6 8 27.96 4.35
5 6 8 34.36 3.64
-5 -6 -9 6.86 4.84
-5 -6 -9 3.98 3.64
-5 -6 -9 4.64 2.9
5 6 9 3.73 3.61
5 6 9 8.9 3.58
-5 -6 -10 72.94 7.54
-5 -6 -10 68.79 7.25
-5 -6 -10 54.31 4.72
5 6 10 71.35 7.23
-5 -7 3 6.63 5.12
5 7 -3 8.93 5.15
-5 -7 2 11.98 4.67
5 7 -2 8.76 4.64
-5 -7 1 45.8 8.05
-5 -7 1 36.27 5.04
5 7 -1 43.95 5.12
-5 -7 0 6.14 4.64
-5 -7 0 4.95 3.73
5 7 0 1.08 3.64
-5 -7 -1 583.57 12.46
-5 -7 -1 516.89 11.29
5 7 1 497.07 11.49
-5 -7 -2 44.81 5.21
-5 -7 -2 49.56 4.86
5 7 2 42.9 4.75
5 7 2 45.97 5.12
-5 -7 -3 267.64 9.16
-5 -7 -3 257.65 8.48
5 7 3 280.07 8.76
5 7 3 262.03 8.93
-5 -7 -4 328.83 9.79
-5 -7 -4 305.7 9.02
5 7 4 302.85 9.02
5 7 4 295.8 9.25
-5 -7 -5 1.42 3.93
-5 -7 -5 3.98 3.33
-5 -7 -5 2.73 2.36
5 7 5 4.27 3.39
5 7 5 2.25 3.73
5 7 5 4.49 2.93
-5 -7 -6 37.38 5.18
-5 -7 -6 37.29 4.49
-5 -7 -6 31.58 3.21
5 7 6 31.95 4.32
5 7 6 29.39 4.95
5 7 6 36.41 3.76
-5 -7 -7 20.99 4.92
-5 -7 -7 16.04 4.01
-5 -7 -7 14.37 2.87
5 7 7 11.21 3.78
5 7 7 19.71 3.56
-5 -7 -8 79.2 8.73
-5 -7 -8 68.42 7.03
-5 -7 -8 81.87 5.12
5 7 8 73.99 7.11
5 7 8 76.44 6.43
-5 -7 -9 64.23 7.17
-5 -7 -9 76.27 7.6
-5 -7 -9 71.69 5.26
5 7 9 78.89 7.88
-5 -7 -10 20.08 5.12
-5 -7 -10 9.39 3.9
5 7 10 14.82 4.89
-5 -8 1 73.2 8.65
5 8 -1 85.23 8.68
-5 -8 0 2.42 4.27
5 8 0 2.42 4.18
-5 -8 -1 85.49 7.74
-5 -8 -2 189.29 10.61
-5 -8 -2 191.4 8.36
5 8 2 187.44 8.82
-5 -8 -3 5.69 4.58
-5 -8 -3 5.55 3.81
5 8 3 6.34 4.1
-5 -8 -4 23.47 5.23
-5 -8 -4 31.83 4.64
-5 -8 -4 29.5 3.41
5 8 4 21.85 4.44
-5 -8 -5 2.42 4.78
-5 -8 -5 -1.79 3.58
-5 -8 -5 5.46 2.73
5 8 5 7.79 4.15
5 8 5 8.51 3.39
-5 -8 -6 29.07 5.77
-5 -8 -6 26.43 4.69
-5 -8 -6 26.03 3.24
5 8 6 25.97 4.81
5 8 6 31.32 4.12
-5 -8 -7 28.16 6.66
-5 -8 -7 32.46 5.15
-5 -8 -7 35.76 4.41
5 8 7 25.4 4.84
5 8 7 43.67 4.67
-5 -8 -8 -5.35 4.15
-5 -8 -8 -4.84 2.67
5 8 8 -4.89 4.15
-5 -9 -1 -2.28 4.61
5 9 1 8.14 4.98
-5 -9 -2 32.6 5.52
5 9 2 21.51 5.21
-5 -9 -3 48.56 5.77
5 9 3 68.1 8.11
-5 -9 -4 1.54 4.21
-5 -9 -4 -3.36 2.99
5 9 4 4.12 4.55
-5 -9 -5 8.79 4.58
-5 -9 -5 9.7 3.67
5 9 5 5.75 4.75
5 9 5 7.57 4.07
-5 -9 -6 78.54 8.45
5 9 6 98.03 8.93
5 9 6 96.72 6.86
-6 6 2 19.91 3.33
6 -6 -2 18.6 2.99
6 -6 -2 15.99 3.56
-6 6 1 3.56 4.58
6 -6 -1 -0.71 2.02
6 -6 -1 0.48 2.87
-6 6 0 165.48 8.16
6 -6 0 157.37 7
-6 6 -1 129.66 7.71
6 -6 1 135.89 6.69
-6 6 -2 36.78 5.12
6 -6 2 36.73 5.83
-6 6 -3 458.72 11.07
6 -6 3 452.18 10.7
-6 6 -4 15.36 5.23
6 -6 4 10.24 4.1
6 -6 5 136.43 7.74
-6 5 3 5.89 3.61
-6 5 3 2.9 5.04
6 -5 -3 2.42 2.93
-6 5 2 36.21 3.47
-6 5 2 31.06 4.98
6 -5 -2 37.21 4.3
6 -5 -2 33.8 4.04
-6 5 1 154.16 7.42
6 -5 -1 150.35 4.27
6 -5 -1 145.31 3.98
6 -5 -1 142.69 6.34
-6 5 0 83.24 6.49
6 -5 0 81.5 5.58
-6 5 -1 448.96 9.64
6 -5 1 429.36 9.76
-6 5 -2 206.27 7.77
6 -5 2 199.87 7.42
-6 5 -3 239.73 8.25
6 -5 3 224.17 7.88
-6 5 -4 5.15 4.18
6 -5 4 4.35 3.3
-6 5 -5 10.44 4.67
6 -5 5 5.95 3.53
6 -5 6 50.35 5.89
6 -5 7 40.25 5.04
-6 4 4 61.42 6.94
6 -4 -4 54.42 5.12
-6 4 3 389.19 8.39
6 -4 -3 396.47 12.55
6 -4 -3 369.16 7.82
6 -4 -3 371.58 9.02
-6 4 2 539.14 7.99
6 -4 -2 529.33 8.02
6 -4 -2 441.02 10.7
6 -4 -2 525.63 10.18
-6 4 1 552.23 6.46
-6 4 1 555.07 6.43
-6 4 1 510.81 10.04
6 -4 -1 524.23 6.8
6 -4 -1 515.16 6.63
6 -4 -1 527.11 10.24
-6 4 0 277.82 7.97
6 -4 0 297.19 4.12
6 -4 0 291.22 8.08
-6 4 -1 6.37 3.19
6 -4 1 4.27 2.9
-6 4 -2 2.99 3.13
6 -4 2 -1.59 2.62
-6 4 -3 16.07 3.73
6 -4 3 18.95 3.67
-6 4 -4 49.36 5.8
6 -4 4 46.31 4.92
-6 4 -5 54.31 6.37
6 -4 5 45.86 5.15
-6 4 -6 76.67 7.34
6 -4 7 0.34 3.36
6 -4 8 129.01 8.08
6 -4 8 126.82 7.45
-6 3 5 36.81 5.26
6 -3 -5 42.87 5.09
-6 3 4 720.12 11.75
6 -3 -4 731.22 11.41
6 -3 -4 677.42 11.69
-6 3 3 223.23 7.28
-6 3 3 219.5 7.85
6 -3 -3 185.19 6.54
6 -3 -3 202.58 6.32
6 -3 -3 203.91 7.23
-6 3 2 147.47 5.66
6 -3 -2 127.62 5.15
6 -3 -2 138.68 4.86
6 -3 -2 132.54 6.23
-6 3 1 41.42 3.81
-6 3 1 39.17 3.78
6 -3 -1 39.2 3.47
6 -3 -1 33 3.02
6 -3 -1 36.93 4.1
-6 3 0 10.01 3.27
6 -3 0 8.88 1.71
6 -3 0 6.97 1.56
6 -3 0 3.84 2.7
-6 3 -1 5.49 2.96
6 -3 1 7.88 2.96
-6 3 -2 2.79 2.76
6 -3 2 0.11 2.65
-6 3 -3 4.47 2.93
6 -3 3 1.25 2.53
-6 3 -4 1.17 2.9
6 -3 4 0.17 2.65
-6 3 -5 66.82 6.06
6 -3 5 60.65 5.38
-6 3 -6 360.37 9.62
6 -3 6 355.77 9.27
6 -3 7 26.29 4.12
6 -3 8 56.27 6.49
6 -3 8 57.52 5.83
6 -3 9 0 4.27
6 -3 9 3.84 3.9
-6 2 5 220.3 9.36
6 -2 -5 224.79 8.45
6 -2 -5 210.97 7.99
-6 2 4 136.83 7.2
-6 2 4 131.06 8.73
6 -2 -4 132.71 6.71
6 -2 -4 133.99 6.49
-6 2 3 26.68 3.73
6 -2 -3 22.1 3.41
6 -2 -3 29.64 3.36
6 -2 -3 24.04 3.67
-6 2 2 129.41 5.77
-6 2 2 130.6 5.63
6 -2 -2 115.07 5.21
6 -2 -2 128.27 5.01
6 -2 -2 120.87 5.92
-6 2 1 62.67 4.24
-6 2 1 63.89 4.27
6 -2 -1 57.89 3.84
6 -2 -1 57.18 3.39
6 -2 -1 58.6 4.81
-6 2 0 4.1 1.79
-6 2 0 5.72 1.93
6 -2 0 5.75 1.76
6 -2 0 7.28 2.93
-6 2 -1 -1.48 2.67
6 -2 1 -1.19 1.28
6 -2 1 2.79 1.25
6 -2 1 -0.6 2.42
-6 2 -2 263.85 7.34
6 -2 2 259.87 7.34
-6 2 -3 5.8 2.7
6 -2 3 9.93 2.96
-6 2 -4 1125.76 13.6
6 -2 4 1087.07 13.88
-6 2 -5 12.63 3.16
6 -2 5 9.99 2.96
-6 2 -6 24.38 4.07
6 -2 6 16.73 3.64
-6 2 -7 10.44 3.84
6 -2 7 8.59 3.5
6 -2 8 1 3.41
6 -2 9 35.73 3.47
6 -2 9 37.78 5.21
6 -2 9 33.91 4.84
-6 2 -10 48.1 5.18
6 -2 10 40.22 4.49
6 -2 10 44.58 5.97
6 -2 10 45.89 5.46
-6 1 5 3.53 4.27
-6 1 5 13.57 8.9
6 -1 -5 8.9 4.01
-6 1 4 9.99 3.84
6 -1 -4 15.33 3.47
6 -1 -4 12.4 3.41
-6 1 3 176.86 7.4
-6 1 3 196.86 7.23
6 -1 -3 175.32 6.8
6 -1 -3 192.08 6.6
6 -1 -3 175.46 6.86
-6 1 2 84.18 5.6
-6 1 2 86.48 5.35
6 -1 -2 85.91 5.06
6 -1 -2 79.17 4.69
6 -1 -2 80.19 5.32
-6 1 1 9.9 2.62
-6 1 1 8.34 2.87
6 -1 -1 7.23 2.28
6 -1 -1 6.77 2.02
6 -1 -1 4.24 2.67
-6 1 0 91.83 4.07
-6 1 0 101.05 4.15
6 -1 0 91.8 3.95
6 -1 0 90.61 5.21
6 -1 0 84.03 4.98
-6 1 -1 301.72 4.75
-6 1 -1 327.18 4.98
6 -1 1 303.65 4.98
6 -1 1 290.51 7.37
-6 1 -2 542.7 4.72
-6 1 -2 546.11 4.84
-6 1 -2 496.58 9.25
6 -1 2 471.97 5.38
6 -1 2 527.73 5.26
6 -1 2 495.87 9.33
-6 1 -3 10.21 2.96
6 -1 3 12.35 3.04
-6 1 -4 3.58 2.39
6 -1 4 0.71 2.59
-6 1 -5 228.18 7.03
6 -1 5 235.6 7.2
-6 1 -6 476.58 9.76
6 -1 6 464.75 9.5
-6 1 -7 19.37 3.84
6 -1 7 19.2 2.25
6 -1 7 18.58 1.74
6 -1 7 18.78 3.64
-6 1 -8 42.16 3.36
-6 1 -8 38.46 3.27
-6 1 -8 42.3 5.15
6 -1 8 39.17 2.93
6 -1 8 40.96 3.16
6 -1 8 36.21 4.38
6 -1 9 643.03 7.97
6 -1 9 638.88 12.74
6 -1 9 639.79 12.12
-6 1 -10 713.92 9.22
6 -1 10 669.43 9.13
6 -1 10 669.83 13.8
6 -1 10 641.15 12.72
-6 0 5 0.2 5.86
-6 0 5 3.3 4.1
-6 0 4 17.35 5.06
-6 0 4 22.02 4.27
6 0 -4 16.1 3.7
-6 0 3 2.76 3.73
-6 0 3 3.44 3.13
6 0 -3 6.14 3.19
6 0 -3 5.97 2.93
6 0 -3 -0.71 2.65
-6 0 2 37.1 3.95
-6 0 2 39.03 3.78
6 0 -2 36.64 3.7
6 0 -2 41.48 4.44
6 0 -2 30.15 3.84
-6 0 1 48.99 4.69
-6 0 1 45.66 4.47
6 0 -1 46.51 4.21
6 0 -1 52.86 3.98
6 0 -1 46.17 4.61
-6 0 0 740.98 8.82
-6 0 0 767.83 8.93
6 0 0 712.84 8.73
6 0 0 770.42 8.9
6 0 0 685.76 10.92
-6 0 -1 8.31 1.99
-6 0 -1 9.81 2.05
6 0 1 8.42 1.99
6 0 1 8.48 1.68
6 0 1 9.56 2.76
-6 0 -2 11.27 1.91
-6 0 -2 13.65 2.02
6 0 2 12.52 1.88
6 0 2 11.64 1.68
6 0 2 7.79 2.45
-6 0 -3 7.94 1.54
-6 0 -3 7.31 1.62
-6 0 -3 6.91 2.82
6 0 3 8.05 1.59
6 0 3 8.59 2.73
-6 0 -4 612.08 6.57
-6 0 -4 608.86 5.55
-6 0 -4 584.51 9.87
6 0 4 646.36 6.17
6 0 4 617 5.95
6 0 4 589.75 9.9
-6 0 -5 66.43 2.82
-6 0 -5 66.34 4.89
6 0 5 67.99 2.73
6 0 5 68.59 2.87
6 0 5 69.98 4.84
-6 0 -6 18.55 2.62
-6 0 -6 17.35 1.91
-6 0 -6 22.47 3.53
6 0 6 18.04 1.82
6 0 6 17.15 1.88
6 0 6 18.75 3.3
-6 0 -7 755.97 7.14
-6 0 -7 714.86 7.06
-6 0 -7 696.28 11.72
6 0 7 772.07 7.74
6 0 7 739.47 11.64
-6 0 -8 814.2 8.39
-6 0 -8 866.37 8.56
-6 0 -8 768 12.83
6 0 8 840.71 8.65
6 0 8 846.54 8.82
6 0 8 814.43 12.55
-6 0 -9 712.67 9.05
-6 0 -9 723.14 8.9
6 0 9 673.1 8.82
6 0 9 681.89 8.9
6 0 9 701.75 12.15
-6 0 -10 955.58 11.09
6 0 10 990.32 11.32
6 0 10 880.17 10.87
6 0 10 912.54 15.3
6 0 10 942.67 14.28
-6 0 -11 6.34 3.93
6 0 11 -7.51 4.72
6 0 11 2.62 3.58
-6 -1 5 25.12 6.6
-6 -1 5 24.72 5.04
6 1 -5 34.59 4.86
-6 -1 4 68.19 6.34
-6 -1 4 66.48 7.03
6 1 -4 69.78 6.34
-6 -1 3 127.56 7.91
-6 -1 3 114.93 6.86
6 1 -3 119.59 6.46
-6 -1 2 1222.05 13.94
-6 -1 2 1213.95 13.74
6 1 -2 1131.79 13.4
6 1 -2 1212.41 13.6
-6 -1 1 133.93 6
-6 -1 1 146.85 5.86
6 1 -1 130.66 5.58
6 1 -1 149.09 5.55
6 1 -1 130.77 5.92
-6 -1 0 5.72 2.56
-6 -1 0 4.98 2.7
6 1 0 3.87 2.16
6 1 0 6.8 2.13
6 1 0 3.81 2.47
-6 -1 -1 14.31 2.47
-6 -1 -1 14.11 2.42
6 1 1 14.45 2.33
6 1 1 15.59 2.22
6 1 1 12.55 2.79
-6 -1 -2 90.55 4.18
-6 -1 -2 93.56 4.1
6 1 2 91.2 4.01
6 1 2 92.85 3.73
-6 -1 -3 8.16 1.99
-6 -1 -3 8.9 1.93
-6 -1 -3 11.12 2.93
6 1 3 7.68 1.91
6 1 3 7.54 1.68
6 1 3 6.63 2.73
-6 -1 -4 11.32 2.02
-6 -1 -4 12.15 1.99
-6 -1 -4 8.05 2.7
6 1 4 7.25 2.45
6 1 4 12.55 1.96
6 1 4 9.05 2.76
-6 -1 -5 1343.75 9.9
-6 -1 -5 1263.1 9.7
-6 -1 -5 1224.33 13.94
6 1 5 1212.95 9.99
6 1 5 1356.53 10.33
6 1 5 1254.63 13.85
-6 -1 -6 1727.31 11.52
-6 -1 -6 1642.54 11.29
-6 -1 -6 1584.76 16.04
6 1 6 1704.5 11.86
6 1 6 1654.63 15.99
-6 -1 -7 2866.33 15.48
-6 -1 -7 2879.81 15.56
-6 -1 -7 2746.48 21.62
6 1 7 2876.54 15.9
6 1 7 2899.98 16.13
6 1 7 2841.26 21.08
-6 -1 -8 1148.03 11.01
-6 -1 -8 1112.64 10.92
-6 -1 -8 1038.91 14.31
6 1 8 1106.02 10.78
6 1 8 1125.67 11.04
6 1 8 1101.41 13.8
-6 -1 -9 -1.14 3.07
-6 -1 -9 1.08 2.73
6 1 9 1.54 2.16
6 1 9 0.31 2.36
6 1 9 0.54 3.19
-6 -1 -10 99.96 7.14
-6 -1 -10 99.62 6.26
6 1 10 96.61 5.26
6 1 10 94.93 8.76
6 1 10 98.14 6.23
-6 -1 -11 2.99 3.78
6 1 11 4.47 4.89
6 1 11 1.39 3.61
-6 -2 5 255.72 13.57
-6 -2 5 259.36 10.3
6 2 -5 286.18 10.33
-6 -2 4 273.84 11.04
-6 -2 4 254.55 9.3
6 2 -4 296.25 9.56
-6 -2 3 86.08 7.91
-6 -2 3 81.82 6.49
6 2 -3 89.67 6.17
-6 -2 2 92.6 6.94
-6 -2 2 81.76 6
6 2 -2 75.59 5.97
6 2 -2 81.7 5.75
-6 -2 1 14.76 3.47
-6 -2 1 12.2 3.02
6 2 -1 11.09 3.04
6 2 -1 10.27 2.79
-6 -2 0 282.29 7.23
-6 -2 0 279.36 7.03
6 2 0 251.56 6.66
6 2 0 288.57 6.8
-6 -2 -1 6.06 2.5
-6 -2 -1 7.34 2.56
6 2 1 7.91 2.3
6 2 1 9.13 2.25
6 2 1 3.16 2.42
-6 -2 -2 139.88 5.15
-6 -2 -2 137.8 4.95
6 2 2 156.18 5.18
6 2 2 141.1 4.81
6 2 2 136.52 5.72
-6 -2 -3 1752.2 13.09
-6 -2 -3 1627.69 12.69
6 2 3 1696.36 13.09
6 2 3 1672.38 15.82
-6 -2 -4 553.36 7.74
-6 -2 -4 493.71 7.4
-6 -2 -4 491.69 9.3
6 2 4 517.83 7.54
6 2 4 507.48 7.54
6 2 4 519.6 9.22
-6 -2 -5 5063.37 21.42
-6 -2 -5 4666.46 20.68
-6 -2 -5 4660.52 26.37
6 2 5 4803.81 21.28
6 2 5 4949.92 21.68
6 2 5 4678.1 25.75
-6 -2 -6 371.18 6.94
-6 -2 -6 347.15 6.69
-6 -2 -6 340.49 8.16
6 2 6 343.99 6.51
6 2 6 358.47 6.69
6 2 6 356.51 7.99
-6 -2 -7 31.04 3.27
-6 -2 -7 23.41 3.58
-6 -2 -7 21.62 3.21
6 2 7 31.46 3.56
6 2 7 25.72 2.87
6 2 7 33.54 3.81
-6 -2 -8 223.97 6.77
-6 -2 -8 223.31 6.4
-6 -2 -8 218.59 7.57
6 2 8 225.99 6.06
6 2 8 224.68 6.29
6 2 8 220.5 6.97
-6 -2 -9 9.67 3.64
-6 -2 -9 9.25 3.07
-6 -2 -9 8.34 3.78
6 2 9 14.31 2.82
6 2 9 11.21 2.87
6 2 9 11.04 3.41
-6 -2 -10 6.91 4.41
-6 -2 -10 16.56 3.7
6 2 10 7.79 2.96
6 2 10 13.57 3.76
-6 -2 -11 2.65 3.87
6 2 11 4.04 3.84
6 2 11 5.69 3.76
-6 -3 4 -3.1 5.75
-6 -3 4 -0.48 3.98
6 3 -4 4.32 4.01
-6 -3 3 33.37 5.6
-6 -3 3 25.92 4.35
6 3 -3 29.7 4.44
-6 -3 2 158.03 8.14
-6 -3 2 152.31 7.34
6 3 -2 167.56 11.44
6 3 -2 165.42 7.06
-6 -3 1 153.3 7.57
-6 -3 1 137.49 6.6
6 3 -1 133.31 6.37
6 3 -1 149.69 6.4
-6 -3 0 7.71 3.24
-6 -3 0 5.04 2.84
6 3 0 6.26 2.73
6 3 0 5.01 2.7
-6 -3 -1 1249.96 13.26
-6 -3 -1 1194.77 12.94
6 3 1 1160.09 12.83
6 3 1 1243.02 13.11
-6 -3 -2 44.78 4.84
-6 -3 -2 28.02 3.58
6 3 2 35.79 4.32
6 3 2 34.73 3.95
6 3 2 32.15 3.58
-6 -3 -3 3151.51 19.09
-6 -3 -3 2815.58 21.28
6 3 3 3202.12 19.4
6 3 3 3010.5 18.89
6 3 3 2988.28 21.05
-6 -3 -4 621.87 9.1
-6 -3 -4 563.72 8.96
-6 -3 -4 582.75 9.93
6 3 4 623.71 8.99
6 3 4 575.95 8.73
6 3 4 601.07 9.84
-6 -3 -5 77.21 4.92
-6 -3 -5 63.41 7.74
-6 -3 -5 76.13 4.84
6 3 5 71.8 4.32
6 3 5 74.33 4.52
6 3 5 74.25 4.84
-6 -3 -6 257.31 6.71
-6 -3 -6 254.01 6.54
-6 -3 -6 256.11 7.23
6 3 6 268.23 6.46
6 3 6 259.19 6.54
6 3 6 257.62 6.88
-6 -3 -7 68.02 5.18
-6 -3 -7 70.44 4.98
-6 -3 -7 66.82 5.04
6 3 7 68.5 4.61
6 3 7 67.62 4.67
6 3 7 68.5 4.89
-6 -3 -8 4.44 3.27
-6 -3 -8 6.14 2.9
-6 -3 -8 6.8 3.16
6 3 8 8.9 2.73
6 3 8 8.82 2.84
6 3 8 9.36 3.07
-6 -3 -9 10.78 4.04
-6 -3 -9 8.19 3.24
-6 -3 -9 10.35 3.58
6 3 9 8.34 2.93
6 3 9 10.41 3.16
6 3 9 1.93 3.13
-6 -3 -10 64.97 8.05
-6 -3 -10 60.2 6.51
6 3 10 55.27 5.58
6 3 10 59.4 5.63
-6 -3 -11 134.67 7.99
6 3 11 146.11 7.42
6 3 11 137.77 7.08
-6 -4 4 20.57 8.99
-6 -4 4 20.28 4.98
6 4 -4 11.64 4.67
-6 -4 3 2.45 5.32
-6 -4 3 -1.25 3.87
6 4 -3 -1.91 3.67
-6 -4 2 3.36 4.58
-6 -4 2 3.93 3.56
6 4 -2 0.28 3.24
-6 -4 1 1268.11 15.9
-6 -4 1 1184.59 15.08
6 4 -1 1070.43 15.11
6 4 -1 1222.22 15.22
-6 -4 0 24.81 4.21
-6 -4 0 30.07 3.95
6 4 0 30.64 4.01
6 4 0 31.86 3.87
-6 -4 -1 2885.76 20.97
-6 -4 -1 2719.65 20.43
6 4 1 2779.39 20.65
6 4 1 3144.86 21.9
-6 -4 -2 804.07 11.61
-6 -4 -2 727.38 10.84
6 4 2 739.87 10.98
-6 -4 -3 30.01 3.76
-6 -4 -3 26.77 3.36
6 4 3 30.55 3.39
6 4 3 28.53 3.44
6 4 3 27.96 3.58
-6 -4 -4 211.51 6.83
-6 -4 -4 197.63 6.46
-6 -4 -4 205.56 6.63
6 4 4 214.84 6.4
6 4 4 205.65 6.4
6 4 4 209.66 6.54
-6 -4 -5 41.11 3.95
-6 -4 -5 34.59 3.58
-6 -4 -5 35.19 3.76
6 4 5 36.44 4.41
6 4 5 32.17 3.47
6 4 5 35.19 4.18
-6 -4 -6 131.46 6.4
-6 -4 -6 119.05 5.77
-6 -4 -6 113.25 5.6
6 4 6 129.29 5.72
6 4 6 130.23 5.92
6 4 6 125.74 5.52
-6 -4 -7 212.67 7.51
-6 -4 -7 201.24 6.97
-6 -4 -7 201.15 6.83
6 4 7 219.19 6.83
6 4 7 199.5 6.88
6 4 7 210 6.43
-6 -4 -8 -2.13 3.64
-6 -4 -8 2.19 3.07
-6 -4 -8 1.88 3.13
6 4 8 4.69 2.82
6 4 8 0.37 2.96
6 4 8 3.04 2.96
-6 -4 -9 87.9 7.54
-6 -4 -9 93.85 6.51
-6 -4 -9 87.45 6.4
6 4 9 106.88 6.14
6 4 9 95.24 5.77
-6 -4 -10 2.73 5.26
-6 -4 -10 4.69 3.58
6 4 10 2.3 3.33
6 4 10 3.93 3.61
-6 -4 -11 58.35 5.8
6 4 11 64.38 7.08
6 4 11 76.38 6.66
-6 -5 3 199.99 9.81
6 5 -3 242.43 10.04
-6 -5 2 219.67 10.78
-6 -5 2 215.12 9.16
6 5 -2 229.94 9.19
-6 -5 1 1922.52 20.51
-6 -5 1 1926.02 19.97
6 5 -1 1991.36 20.23
-6 -5 0 59.88 7.25
-6 -5 0 72.09 6.4
6 5 0 68.67 7.34
-6 -5 -1 1.14 3.78
-6 -5 -1 2.5 3.1
6 5 1 -3.3 3.36
6 5 1 4.86 3.16
-6 -5 -2 242.03 8.39
-6 -5 -2 234.38 7.6
6 5 2 211.37 7.6
-6 -5 -3 0.28 3.47
-6 -5 -3 1.62 2.79
6 5 3 -1 2.73
6 5 3 1.02 2.96
6 5 3 1.45 2.84
-6 -5 -4 32.15 4.18
-6 -5 -4 26.31 3.61
6 5 4 29.98 3.67
6 5 4 26.43 3.64
6 5 4 36.01 4.38
-6 -5 -5 79.8 6.4
-6 -5 -5 73 5.69
-6 -5 -5 85.12 5.29
6 5 5 89.98 5.63
6 5 5 73.96 5.55
6 5 5 90.09 5.23
-6 -5 -6 39.77 4.67
-6 -5 -6 40.79 4.18
-6 -5 -6 36.67 3.81
6 5 6 45.43 4.98
6 5 6 29.96 3.87
6 5 6 36.64 4.44
-6 -5 -7 30.27 4.58
-6 -5 -7 34.45 4.12
-6 -5 -7 28.68 3.78
6 5 7 36.73 4.07
6 5 7 29.53 3.9
6 5 7 36.1 3.84
-6 -5 -8 37.47 5.15
-6 -5 -8 33.11 4.32
-6 -5 -8 34.71 4.01
6 5 8 32.15 4.04
6 5 8 35.05 3.93
-6 -5 -9 44.61 5.8
-6 -5 -9 38.38 4.72
-6 -5 -9 35.73 4.41
6 5 9 42.84 4.58
6 5 9 41.65 4.27
-6 -5 -10 226.64 11.66
-6 -5 -10 210.74 9.1
6 5 10 158.14 13.31
6 5 10 227.35 7.6
-6 -6 2 44.75 5.8
6 6 -2 52.32 5.86
-6 -6 1 10.07 5.58
-6 -6 1 9.42 4.47
6 6 -1 2.73 4.12
-6 -6 0 5.12 4.86
-6 -6 0 3.67 3.81
6 6 0 0.4 3.67
-6 -6 -1 -1.85 4.21
-6 -6 -1 1.31 3.41
6 6 1 -4.92 3.21
-6 -6 -2 77.15 7.71
-6 -6 -2 80.71 6.49
-6 -6 -3 43.52 5.04
-6 -6 -3 39.26 4.35
6 6 3 54.42 5.86
6 6 3 52.71 6.26
-6 -6 -4 36.81 4.89
-6 -6 -4 30.78 4.15
6 6 4 38.86 4.27
6 6 4 33.51 4.38
6 6 4 45.97 4.92
-6 -6 -5 26.06 4.55
-6 -6 -5 14.31 3.64
-6 -6 -5 23.44 3.53
6 6 5 25.55 3.9
6 6 5 17.69 4.32
6 6 5 16.53 3.39
-6 -6 -6 2.02 4.18
-6 -6 -6 1.65 3.21
-6 -6 -6 9.53 2.99
6 6 6 9.1 3.56
6 6 6 8.76 3.19
-6 -6 -7 27.65 5.23
-6 -6 -7 29.76 4.3
-6 -6 -7 28.36 3.64
6 6 7 22.64 4.12
6 6 7 30.3 3.87
-6 -6 -8 16.19 5.29
-6 -6 -8 18.6 4.24
-6 -6 -8 15.9 3.53
6 6 8 13.2 3.87
6 6 8 19.69 3.81
-6 -6 -9 17.98 6.2
-6 -6 -9 27.65 4.75
-6 -6 -9 26.43 4.18
6 6 9 25.12 4.67
6 6 9 26.63 4.3
-6 -6 -10 24.89 7.51
-6 -6 -10 25.32 4.95
-6 -6 -10 20.99 4.35
6 6 10 26.17 5.09
6 6 10 33.28 5.18
-6 -7 1 13 5.01
6 7 -1 8.59 4.98
-6 -7 0 34.51 5.38
6 7 0 55.73 6.06
-6 -7 -1 1.11 5.49
-6 -7 -1 6.66 4.1
6 7 1 -1.82 3.9
-6 -7 -2 27.76 5.77
-6 -7 -2 20.06 4.49
-6 -7 -3 81.33 8.68
-6 -7 -3 88.1 7.08
6 7 3 90.72 7.42
-6 -7 -4 12.03 4.75
-6 -7 -4 -2.84 3.39
6 7 4 1.02 3.76
6 7 4 2.45 3.16
-6 -7 -5 7.65 4.89
-6 -7 -5 7.25 3.87
-6 -7 -5 13 3.3
6 7 5 12.77 3.93
6 7 5 8.65 3.47
-6 -7 -6 5.83 5.04
-6 -7 -6 9.16 3.87
-6 -7 -6 9.33 3.07
6 7 6 15.59 4.07
6 7 6 11.21 3.61
-6 -7 -7 15.22 5.95
-6 -7 -7 23.64 4.49
-6 -7 -7 16.33 3.5
6 7 7 15.9 4.32
6 7 7 18.01 3.93
-6 -7 -8 113.99 10.87
-6 -7 -8 93 8.22
-6 -7 -8 94.73 6.2
6 7 8 109.95 8.22
6 7 8 111.69 6.57
-6 -7 -9 142.81 12.69
-6 -7 -9 129.86 9.22
-6 -7 -9 125.85 6.97
6 7 9 152.22 8.99
-6 -8 -1 5.12 4.61
6 8 1 3.76 4.75
-6 -8 -2 -2.62 4.24
-6 -8 -3 27.59 4.98
6 8 3 20.25 5.09
-6 -8 -4 174.87 9.13
-6 -8 -4 172.82 7.2
6 8 4 193.59 9.44
-6 -8 -5 43.5 8.11
-6 -8 -5 47.31 5.63
-6 -8 -5 46.63 4.47
6 8 5 37.44 5.41
6 8 5 47.99 4.95
-6 -8 -6 103.09 8.42
-6 -8 -6 95.84 6.2
6 8 6 109.32 8.39
6 8 6 106.91 6.71
-6 -8 -7 200.13 10.04
-6 -8 -7 215.6 7.54
6 8 7 235.89 10.55
6 8 7 252.53 8.11
-7 5 0 355.97 11.66
7 -5 0 370.87 9.96
-7 5 -1 227.07 10.33
7 -5 1 254.81 8.85
-7 5 -2 291.5 10.64
7 -5 2 295.2 9.39
7 -5 3 4.89 3.7
7 -5 4 27.03 4.69
-7 4 1 195.69 9.73
7 -4 -1 187.58 5.12
7 -4 -1 188.95 7.54
-7 4 0 156.21 8.9
7 -4 0 137.77 9.22
-7 4 -1 4.95 4.41
7 -4 1 4.1 5.35
-7 4 -2 90.55 7.65
7 -4 2 83.15 6.77
-7 4 -3 62.44 7.65
7 -4 3 71.52 5.89
7 -4 4 89.5 6.46
7 -4 5 33.45 4.81
7 -4 6 1.08 3.76
-7 3 2 177.06 7.03
7 -3 -2 150.03 7
-7 3 1 19.97 3.16
-7 3 1 12.97 4.78
7 -3 -1 17.24 2.67
7 -3 -1 13.71 4.52
-7 3 0 10.21 4.49
7 -3 0 11.86 2.08
7 -3 0 9.99 1.93
7 -3 0 13.46 3.5
-7 3 -1 1.08 3.81
7 -3 1 0.31 2.9
-7 3 -2 241.95 8.76
7 -3 2 250.4 8.22
-7 3 -3 30.67 4.75
7 -3 3 30.95 4.32
-7 3 -4 174.7 8.22
7 -3 4 191.48 8.93
7 -3 5 119.57 7.11
7 -3 6 0.74 3.3
7 -3 7 318.02 9.99
7 -3 8 57.12 6.66
-7 2 3 5.8 4.24
7 -2 -3 0.82 3.13
-7 2 2 -0.74 3.5
7 -2 -2 2.5 3.5
-7 2 1 82.61 5.72
-7 2 1 83.58 5.52
7 -2 -1 79.62 4.81
7 -2 -1 80.22 4.38
7 -2 -1 80.14 5.72
-7 2 0 34.22 3.1
7 -2 0 28.9 2.73
7 -2 0 24.64 3.76
-7 2 -1 -1.48 3.73
7 -2 1 1.19 1.68
7 -2 1 1.19 1.51
7 -2 1 -3.13 2.67
-7 2 -2 123.04 7.17
7 -2 2 117.86 6.29
-7 2 -3 12.97 3.81
7 -2 3 15.79 3.44
-7 2 -4 56.67 6.32
7 -2 4 46.8 5.15
-7 2 -5 414.68 10.35
7 -2 5 417.73 10.16
7 -2 6 70.86 6.66
7 -2 7 120.79 6.88
7 -2 8 26.74 4.55
7 -2 9 24.46 4.89
-7 1 3 -4.67 3.9
7 -1 -3 2.99 3.3
-7 1 2 36.13 6.69
-7 1 2 30.5 4.15
7 -1 -2 29.27 3.64
7 -1 -2 27.31 6.06
-7 1 1 12.52 3.53
-7 1 1 8.9 3.21
7 -1 -1 4.92 2.79
7 -1 -1 10.87 2.62
7 -1 -1 6.88 3.27
-7 1 0 65.86 5.01
-7 1 0 71.18 4.86
7 -1 0 64.78 4.27
7 -1 0 62.16 3.84
7 -1 0 57.27 5.21
-7 1 -1 263.57 5.23
-7 1 -1 282.37 5.49
7 -1 1 255.46 5.32
7 -1 1 249.63 8.02
-7 1 -2 3.1 3.53
7 -1 2 1.91 1.65
7 -1 2 2.65 1.54
7 -1 2 4.04 3.07
-7 1 -3 911.12 13.51
7 -1 3 891.72 13.54
-7 1 -4 109.21 6.43
7 -1 4 104.6 6.06
-7 1 -5 18.69 3.93
7 -1 5 15.73 3.58
-7 1 -6 17.3 5.95
7 -1 6 18.43 3.93
7 -1 7 0.23 3.24
7 -1 8 3.16 3.56
7 -1 9 11.27 2.16
7 -1 9 13.54 4.38
-7 0 3 7.34 4.24
7 0 -3 14.2 3.73
7 0 -3 7.51 3.47
-7 0 2 87.99 7.99
-7 0 2 94.5 6.77
7 0 -2 90.35 6
7 0 -2 73.39 6.17
-7 0 1 182.09 7.51
-7 0 1 176.4 6.83
7 0 -1 148.67 6.29
7 0 -1 175.01 6.2
7 0 -1 156.95 6.94
-7 0 0 373.29 7.91
-7 0 0 377.47 7.62
7 0 0 340.66 7.25
7 0 0 397.64 7.4
7 0 0 344.96 9.05
-7 0 -1 312.55 6.6
-7 0 -1 316.99 7.03
7 0 1 303.34 6.34
7 0 1 317.39 6.12
7 0 1 287.95 8.39
-7 0 -2 59.14 4.01
-7 0 -2 60.14 3.98
-7 0 -2 57.12 5.97
7 0 2 63.32 3.81
7 0 2 56.7 3.36
7 0 2 51.95 5.09
-7 0 -3 51.4 3.76
-7 0 -3 55.16 3.47
-7 0 -3 61.39 5.75
7 0 3 51.72 3.3
7 0 3 49.98 4.92
-7 0 -4 209.15 3.98
-7 0 -4 211.57 4.07
-7 0 -4 184.48 7.37
7 0 4 206.93 4.32
7 0 4 198.05 4.1
7 0 4 190.09 7.11
-7 0 -5 49.58 5.58
7 0 5 59.6 3.07
7 0 5 56.21 2.82
7 0 5 54.96 5.15
-7 0 -6 4.84 3.5
7 0 6 -0.14 1.54
7 0 6 0.03 2.9
7 0 7 60.99 3.16
7 0 7 62.95 3.33
7 0 7 58.55 5.49
-7 0 -8 41.85 4.01
-7 0 -8 45.49 3.84
7 0 8 44.32 3.3
7 0 8 38.23 3.47
7 0 8 39.23 4.67
-7 0 -9 43.18 4.67
7 0 9 34.76 4.18
7 0 9 43.07 7.54
-7 0 -10 481.11 8.31
7 0 10 501.53 12.83
7 0 10 493.14 11.69
-7 -1 3 23.33 4.84
7 1 -3 23.64 4.3
7 1 -3 19.88 3.93
-7 -1 2 172.56 9.56
-7 -1 2 162.64 7.94
7 1 -2 169.86 7.2
7 1 -2 147.87 7.08
-7 -1 1 175.41 8.02
-7 -1 1 169.89 7.2
7 1 -1 175.58 6.51
7 1 -1 160.47 7.08
-7 -1 0 215.83 7.42
-7 -1 0 213.27 6.86
7 1 0 216.49 6.63
7 1 0 231.17 6.51
7 1 0 197.97 7.4
-7 -1 -1 79.68 5.49
-7 -1 -1 87.25 5.18
7 1 1 71.6 4.69
7 1 1 79.14 4.49
7 1 1 70.09 5.21
-7 -1 -2 2.87 2.62
-7 -1 -2 -1.59 2.28
7 1 2 0.77 2.28
7 1 2 0.94 1.88
7 1 2 1.11 2.65
-7 -1 -3 67.68 4.38
-7 -1 -3 68.7 4.24
-7 -1 -3 66.03 5.86
7 1 3 68.87 3.98
7 1 3 69.16 3.58
7 1 3 63.64 5.23
-7 -1 -4 77.29 4.24
-7 -1 -4 67.36 4.01
-7 -1 -4 67.34 5.86
7 1 4 76.1 3.93
7 1 4 76.1 3.53
7 1 4 70.35 5.29
-7 -1 -5 109.92 4.47
-7 -1 -5 104.94 4.21
-7 -1 -5 107.36 6.32
7 1 5 106.2 4.21
7 1 5 111.83 6.09
-7 -1 -6 6.4 2.39
-7 -1 -6 6.77 2.33
-7 -1 -6 6.49 3.1
7 1 6 7.65 1.85
7 1 6 7 2.08
7 1 6 0.97 2.99
-7 -1 -7 2.84 2.59
7 1 7 0.94 1.74
7 1 7 0 2.05
7 1 7 2.25 2.96
-7 -1 -8 186.59 6.09
-7 -1 -8 176.57 5.72
7 1 8 161.5 6.12
7 1 8 170.83 5.38
7 1 8 187.21 7.54
-7 -1 -9 51.83 5.29
7 1 9 42.05 4.1
7 1 9 47.71 4.78
7 1 9 43.27 4.86
-7 -1 -10 17.13 3.87
7 1 10 12.8 6.26
-7 -2 3 268.15 9.99
7 2 -3 280.84 10.84
-7 -2 2 37.35 5.92
-7 -2 2 34.56 4.72
7 2 -2 38.77 4.44
-7 -2 1 11.89 5.58
-7 -2 1 21.82 4.04
7 2 -1 17.47 3.44
7 2 -1 10.07 5.55
-7 -2 0 11.78 3.9
-7 -2 0 9.19 3.36
7 2 0 13.65 3.27
7 2 0 8.56 2.9
7 2 0 11.15 3.41
-7 -2 -1 83.98 6.09
-7 -2 -1 91.86 5.69
7 2 1 83.01 5.41
7 2 1 93.85 5.18
7 2 1 75.44 5.58
-7 -2 -2 16.04 3.36
-7 -2 -2 14.82 3.02
7 2 2 13.94 2.87
7 2 2 14.54 2.73
7 2 2 17.92 3.73
-7 -2 -3 220.04 6.49
-7 -2 -3 214.75 6.17
7 2 3 209.6 5.97
7 2 3 227.87 5.97
7 2 3 206.33 7.25
-7 -2 -4 5.35 2.67
-7 -2 -4 4.55 2.45
-7 -2 -4 7.2 3.47
7 2 4 5.29 2.36
7 2 4 4.84 3.19
-7 -2 -5 49.27 4.78
-7 -2 -5 48.28 4.52
-7 -2 -5 49.27 5.38
7 2 5 51.32 3.87
7 2 5 57.78 4.24
7 2 5 57.92 5.23
-7 -2 -6 414.97 7.71
-7 -2 -6 370.76 7.2
-7 -2 -6 337.87 9.1
7 2 6 377.22 6.97
7 2 6 381.14 7.23
7 2 6 373.43 9.05
-7 -2 -7 60.82 5.43
-7 -2 -7 56.58 4.98
-7 -2 -7 61.93 6.23
7 2 7 63.15 4.18
7 2 7 58.06 4.61
7 2 7 59.65 5.41
-7 -2 -8 6 3.61
-7 -2 -8 6.4 2.99
7 2 8 4.72 2.3
7 2 8 6.29 2.79
7 2 8 0.65 3.19
-7 -2 -9 135.07 6.66
7 2 9 132.54 5.72
7 2 9 130.01 6.8
-7 -2 -10 1.31 3.87
7 2 10 4.67 3.76
-7 -3 2 7.97 6.14
-7 -3 2 -0.63 4.04
7 3 -2 -1.74 4.1
-7 -3 1 30.61 5.49
-7 -3 1 25.29 4.35
7 3 -1 32.29 4.21
-7 -3 0 177.23 8.59
-7 -3 0 183.4 7.65
7 3 0 181.38 7.06
7 3 0 160.84 7.17
-7 -3 -1 6 3.78
-7 -3 -1 2.08 3.1
7 3 1 -0.48 2.87
7 3 1 -2.5 2.62
7 3 1 -1.02 2.73
-7 -3 -2 8.93 3.58
-7 -3 -2 14.88 3.41
7 3 2 9.16 3.07
7 3 2 5.75 2.73
7 3 2 7.17 3.16
-7 -3 -3 0.71 3.13
-7 -3 -3 3.07 2.79
7 3 3 1.05 2.62
7 3 3 3.9 2.5
7 3 3 -1.65 2.62
-7 -3 -4 581.73 9.73
-7 -3 -4 579.56 9.47
-7 -3 -4 559.71 10.98
7 3 4 603.32 9.36
7 3 4 542.58 9.16
7 3 4 573.39 10.75
-7 -3 -5 29.81 3.81
-7 -3 -5 27.79 3.41
-7 -3 -5 25.55 3.98
7 3 5 23.92 3.13
7 3 5 30.58 3.36
7 3 5 24.27 3.76
-7 -3 -6 -1.91 3.16
-7 -3 -6 -2.67 2.67
-7 -3 -6 6.26 3.16
7 3 6 2.79 2.33
7 3 6 0.68 2.56
7 3 6 -0.46 2.93
-7 -3 -7 177.74 7.28
-7 -3 -7 191.45 6.77
-7 -3 -7 162.95 7.34
7 3 7 183.09 6.14
7 3 7 170.94 6.34
7 3 7 178.05 7.06
-7 -3 -8 104.63 7.25
-7 -3 -8 108.41 6.32
7 3 8 102.67 5.58
7 3 8 104.37 8.22
7 3 8 106.48 6.29
-7 -3 -9 86.85 6.74
7 3 9 84.12 5.75
7 3 9 93.82 6.37
-7 -3 -10 24.18 4.55
7 3 10 24.38 4.38
-7 -4 2 5.46 7.03
-7 -4 2 10.61 4.78
7 4 -2 6.57 4.32
-7 -4 1 16.95 6.06
-7 -4 1 18.69 4.44
7 4 -1 18.78 4.27
-7 -4 0 8.93 4.89
-7 -4 0 14.74 4.04
7 4 0 7.17 3.47
-7 -4 -1 53.6 5.6
-7 -4 -1 38.6 4.52
7 4 1 48.53 5.77
-7 -4 -2 26.06 4.69
-7 -4 -2 29.61 4.07
7 4 2 30.35 3.84
7 4 2 20.54 3.73
-7 -4 -3 2.39 3.7
-7 -4 -3 2.59 3.1
7 4 3 0.34 2.96
7 4 3 1.62 2.79
7 4 3 1.88 2.9
-7 -4 -4 65.29 6.51
-7 -4 -4 58.43 5.75
-7 -4 -4 55.79 5.75
7 4 4 66.8 5.26
7 4 4 64.8 5.46
7 4 4 58.18 5.26
-7 -4 -5 174.04 7.6
-7 -4 -5 157.77 6.8
-7 -4 -5 161.21 7.2
7 4 5 169.55 6.49
7 4 5 172.45 6.8
7 4 5 170.34 6.83
-7 -4 -6 2.93 3.9
-7 -4 -6 3.76 3.27
-7 -4 -6 11.95 3.5
7 4 6 5.46 2.87
7 4 6 3.56 3.13
7 4 6 4.27 3.13
-7 -4 -7 110.49 7.74
-7 -4 -7 90.32 6.49
-7 -4 -7 90.24 6.43
7 4 7 103.58 5.97
7 4 7 99.77 5.89
-7 -4 -8 217.99 9.22
-7 -4 -8 227.07 8.16
7 4 8 220.21 7.48
7 4 8 220.16 7.62
-7 -4 -9 2.93 3.9
7 4 9 9.64 3.41
7 4 9 1.82 3.53
-7 -4 -10 14.08 4.64
7 4 10 15.9 4.15
-7 -5 1 36.44 7.34
-7 -5 1 23.55 5.09
7 5 -1 38.63 5.23
-7 -5 0 5.21 5.8
-7 -5 0 3.76 4.27
7 5 0 8.22 4.1
-7 -5 -1 199.79 10.3
-7 -5 -1 154.53 7.99
7 5 1 175.61 11.52
-7 -5 -2 14.25 5.18
-7 -5 -2 19.37 4.1
7 5 2 16.78 3.87
7 5 2 13.51 3.61
-7 -5 -3 132.34 8.45
-7 -5 -3 127.7 7.34
7 5 3 127.96 6.6
-7 -5 -4 4.72 4.3
-7 -5 -4 7.65 3.53
-7 -5 -4 7 3.44
7 5 4 5.12 3.27
7 5 4 6.26 3.3
-7 -5 -5 4.04 4.3
-7 -5 -5 0.57 3.19
-7 -5 -5 5.75 3.56
7 5 5 1.28 3.16
7 5 5 -1.39 3.02
-7 -5 -6 45.43 5.55
-7 -5 -6 35.9 4.41
-7 -5 -6 35.33 4.38
7 5 6 49.3 5.75
7 5 6 44.58 5.32
-7 -5 -7 2.65 4.89
-7 -5 -7 3.04 3.67
-7 -5 -7 2.79 4.15
7 5 7 7.77 3.41
7 5 7 2.87 3.3
-7 -5 -8 79.43 9.36
-7 -5 -8 71.89 7.08
7 5 8 61.56 6.37
7 5 8 77.52 6
-7 -5 -9 30.41 5.09
7 5 9 37.98 4.78
7 5 9 40.71 4.78
-7 -6 0 16.02 7.37
-7 -6 0 4.38 5.21
7 6 0 11.44 4.67
-7 -6 -1 220.64 12.6
-7 -6 -1 181.81 9.27
7 6 1 219.87 9.44
-7 -6 -2 -0.94 5.69
-7 -6 -2 -1.05 3.78
7 6 2 2.99 3.87
-7 -6 -3 113.39 9.81
-7 -6 -3 117.2 7.68
7 6 3 115.78 6.69
-7 -6 -4 86.57 9.53
-7 -6 -4 66.82 6.88
7 6 4 85.74 7.23
7 6 4 78.43 6.12
-7 -6 -5 51.89 6.32
-7 -6 -5 50.15 5.12
-7 -6 -5 70.52 8.25
7 6 5 52.77 5.6
-7 -6 -6 132.4 9.84
-7 -6 -6 116.41 7.99
-7 -6 -6 154.3 11.58
7 6 6 128.9 6.71
-7 -6 -7 18.09 6.37
-7 -6 -7 23.75 4.69
7 6 7 24.01 5.52
7 6 7 27.11 4.35
-7 -6 -8 98.6 11.15
-7 -6 -8 90.72 8.14
7 6 8 112.54 7.65
7 6 8 105.94 6.66
-7 -7 -2 385.58 15.7
-7 -7 -2 370.08 13.77
7 7 2 396.08 11.83
-7 -7 -3 18.83 6.97
-7 -7 -3 12.74 4.81
7 7 3 16.22 4.27
-7 -7 -4 99.85 11.41
-7 -7 -4 103.66 8.31
7 7 4 112.79 8.45
7 7 4 105.23 6.71
-7 -7 -5 27.17 7
-7 -7 -5 21.42 4.72
7 7 5 18.15 4.98
7 7 5 31.83 4.55
-7 -7 -6 8.48 6.69
-7 -7 -6 13.26 4.55
7 7 6 4.86 4.38
7 7 6 7.99 3.98
-7 -7 -7 16.1 7.74
-7 -7 -7 9.33 6.06
7 7 7 13.68 4.75
8 -3 2 6.06 3.81
8 -3 3 72.06 6.6
8 -3 4 6.26 3.98
8 -3 5 187.67 8.56
-8 2 0 0.54 3.16
8 -2 0 2.42 2.76
8 -2 0 -3.47 3.33
8 -2 1 54.42 3.73
8 -2 1 55.53 6.06
8 -2 2 50.01 5.92
8 -2 3 72.57 6.2
8 -2 4 3.98 3.61
8 -2 5 93.91 6.88
8 -2 6 20.03 4.3
-8 1 0 99.91 6.49
8 -1 0 86.28 6.54
-8 1 -1 122.92 5.52
8 -1 1 109.89 4.92
8 -1 1 113.62 6.91
8 -1 2 40.4 3.53
8 -1 2 36.84 4.75
8 -1 3 16.61 3.87
8 -1 4 -2.3 3.19
8 -1 5 -1.62 3.33
8 -1 6 96.15 6.88
8 -1 7 1.11 3.67
-8 0 0 3.58 3.73
8 0 0 -2.45 3.24
-8 0 -1 21.28 3.56
8 0 1 17.95 3.1
8 0 1 17.32 3.93
-8 0 -2 11.89 3.64
-8 0 -2 14.94 3.1
8 0 2 14.74 2.7
8 0 2 15.42 2.65
8 0 2 14.79 3.81
-8 0 -3 11.38 2.7
-8 0 -3 10.35 4.07
8 0 3 8.48 2.25
8 0 3 8.76 2.02
8 0 3 12.18 3.7
8 0 4 25.12 2.42
8 0 4 22.93 2.19
8 0 4 22.05 3.98
8 0 5 48.96 3.19
8 0 5 42.44 2.87
8 0 5 43.61 5.38
8 0 6 570.46 12.18
8 0 7 189.03 8.16
8 0 8 101.59 7.14
-8 -1 1 162.21 8.62
-8 -1 0 32.2 4.47
8 1 0 25.75 4.55
-8 -1 -1 11.15 3.76
8 1 1 6.2 2.9
8 1 1 8.76 3.64
-8 -1 -2 12.12 4.47
-8 -1 -2 13.11 3.41
8 1 2 14.08 3.02
8 1 2 19.17 2.76
8 1 2 14.45 3.87
-8 -1 -3 20.4 3.47
-8 -1 -3 22.53 3.33
8 1 3 21.65 3.02
8 1 3 20.8 2.53
8 1 3 19.46 4.07
-8 -1 -4 528.07 7.97
-8 -1 -4 514.45 7.74
8 1 4 488.93 7.65
8 1 4 500.48 7.37
8 1 4 441.45 11.29
-8 -1 -5 47.17 5.23
-8 -1 -5 37.38 4.47
8 1 5 45.26 4.12
8 1 5 34.91 4.92
-8 -1 -6 243.63 6.57
-8 -1 -6 226.87 5.72
8 1 6 226.5 5.6
8 1 6 213.07 8.11
-8 -1 -7 92.43 4.92
8 1 7 88.96 4.69
8 1 7 95.87 6.63
-8 -1 -8 78.8 5.43
8 1 8 65.26 4.75
8 1 8 88.22 6.69
-8 -2 0 6.54 4.15
8 2 0 5.23 4.41
8 2 0 11.64 4.24
-8 -2 -1 -1.42 3.61
8 2 1 1.54 2.96
8 2 1 -0.06 3.27
-8 -2 -2 354.57 13
-8 -2 -2 332.41 8.62
8 2 2 321.6 7.88
8 2 2 300.52 9.33
-8 -2 -3 119.65 7.2
-8 -2 -3 105.85 6.2
8 2 3 113.25 6.6
8 2 3 110.35 5.38
8 2 3 102.55 6.49
-8 -2 -4 345.44 8.42
-8 -2 -4 330.33 7.77
8 2 4 318.1 7.42
8 2 4 342.65 7.25
8 2 4 280.84 11.07
-8 -2 -5 173.36 6.37
8 2 5 183.37 6.2
8 2 5 202.6 5.86
-8 -2 -6 291.93 7.25
8 2 6 303.68 7.14
-8 -2 -7 47.11 5.69
8 2 7 38.03 3.76
8 2 7 32.66 4.86
-8 -2 -8 -0.06 3.53
8 2 8 -1.28 3.27
-8 -3 0 585 12.46
8 3 0 692.39 13.09
8 3 0 604.51 13.26
-8 -3 -1 2.11 3.93
8 3 1 2.05 3.44
8 3 1 -0.11 3.36
-8 -3 -2 496.84 10.61
8 3 2 530.66 10.33
8 3 2 481.13 11.49
-8 -3 -3 191.88 9.3
-8 -3 -3 190.12 7.74
8 3 3 203.2 7.03
8 3 3 173.93 7.57
-8 -3 -4 47.48 5.12
-8 -3 -4 43.52 4.38
8 3 4 52.57 5.23
8 3 4 47.74 5.58
-8 -3 -5 56.9 5.58
-8 -3 -5 47.11 5.83
-8 -3 -6 53.79 4.69
8 3 6 49.36 5.12
8 3 6 48.13 6.17
-8 -3 -7 26.85 4.18
8 3 7 21.31 6.03
-8 -3 -8 -4.04 3.67
8 3 8 -0.71 4.38
-8 -4 -1 128.01 8.62
8 4 1 123.66 7.88
8 4 1 122.69 7.57
-8 -4 -2 19.37 4.78
8 4 2 26.29 4.32
8 4 2 24.04 4.49
-8 -4 -3 2.84 3.9
8 4 3 -0.94 3.3
8 4 3 0.31 3.1
-8 -4 -4 -2.7 7.2
-8 -4 -4 -3.98 3.53
8 4 4 2.62 3.24
8 4 4 3.78 3.24
-8 -4 -5 12.49 4.07
8 4 5 9.93 4.41
-8 -4 -6 2.22 3.78
8 4 6 1.93 3.3
8 4 6 1.79 4.69
-8 -4 -7 6.32 3.98
8 4 7 -3.33 5.43
8 4 7 3.02 3.73
-8 -4 -8 288.15 9.59
8 4 8 289.11 13.2
-8 -5 -3 73.45 7.94
8 5 3 90.15 7.54
8 5 3 73.71 6.63
-8 -5 -4 10.33 4.35
8 5 4 3.39 3.84
8 5 4 1.08 3.41
-8 -5 -5 65.06 7.62
8 5 5 57.27 6.66
8 5 5 67.36 6
-8 -5 -6 285.1 10.01
8 5 6 309.48 9.56
-8 -5 -7 566.16 12.29
8 5 7 614.04 16.73
