#------------------------------------------------------------------------------
#$Date: 2019-11-24 22:38:09 +0200 (Sun, 24 Nov 2019) $
#$Revision: 239626 $
#$URL: file:///home/coder/svn-repositories/cod/cif/4/51/69/4516910.cif $
#------------------------------------------------------------------------------
#
# This file is available in the Crystallography Open Database (COD),
# http://www.crystallography.net/
#
# All data on this site have been placed in the public domain by the
# contributors.
#
data_4516910
loop_
_publ_author_name
'Oruganti, Madhavi'
'Nechipadappu, Sunil Kumar'
'Khade, Pavan A.'
'Trivedi, Darshak R.'
_publ_section_title
;
 Solid-State Versatility of the Molecular Salts/Cocrystals of
 2-Chloro-4-nitrobenzoic Acid: A Case Study on Halogen Bonds.
;
_journal_issue                   10
_journal_name_full               'ACS omega'
_journal_page_first              7146
_journal_page_last               7162
_journal_paper_doi               10.1021/acsomega.7b00878
_journal_volume                  2
_journal_year                    2017
_chemical_formula_sum            'C12 H10 Cl N3 O4'
_chemical_formula_weight         295.68
_space_group_crystal_system      triclinic
_space_group_IT_number           2
_space_group_name_Hall           '-P 1'
_space_group_name_H-M_alt        'P -1'
_atom_sites_solution_hydrogens   mixed
_audit_creation_method           SHELXL-2014/7
_cell_angle_alpha                95.9380(10)
_cell_angle_beta                 103.7510(10)
_cell_angle_gamma                94.7420(10)
_cell_formula_units_Z            2
_cell_length_a                   5.7224(4)
_cell_length_b                   10.5903(7)
_cell_length_c                   11.2992(7)
_cell_measurement_reflns_used    2184
_cell_measurement_temperature    296(2)
_cell_measurement_theta_max      25.242
_cell_measurement_theta_min      1.871
_cell_volume                     657.47(8)
_computing_structure_refinement  'SHELXL-2014/7 (Sheldrick, 2014)'
_diffrn_ambient_temperature      296(2)
_diffrn_measured_fraction_theta_full 1.000
_diffrn_measured_fraction_theta_max 1.000
_diffrn_measurement_device_type  apexIIduo
_diffrn_radiation_type           MoK\a
_diffrn_radiation_wavelength     0.71073
_diffrn_reflns_av_R_equivalents  0.0174
_diffrn_reflns_av_unetI/netI     0.0153
_diffrn_reflns_Laue_measured_fraction_full 1.000
_diffrn_reflns_Laue_measured_fraction_max 1.000
_diffrn_reflns_limit_h_max       7
_diffrn_reflns_limit_h_min       -7
_diffrn_reflns_limit_k_max       13
_diffrn_reflns_limit_k_min       -13
_diffrn_reflns_limit_l_max       13
_diffrn_reflns_limit_l_min       -13
_diffrn_reflns_number            8855
_diffrn_reflns_point_group_measured_fraction_full 1.000
_diffrn_reflns_point_group_measured_fraction_max 1.000
_diffrn_reflns_theta_full        25.242
_diffrn_reflns_theta_max         26.000
_diffrn_reflns_theta_min         1.871
_exptl_absorpt_coefficient_mu    0.308
_exptl_crystal_density_diffrn    1.494
_exptl_crystal_description       plate
_exptl_crystal_F_000             304
_refine_diff_density_max         0.192
_refine_diff_density_min         -0.257
_refine_diff_density_rms         0.035
_refine_ls_extinction_method     none
_refine_ls_goodness_of_fit_ref   0.625
_refine_ls_hydrogen_treatment    mixed
_refine_ls_matrix_type           full
_refine_ls_number_parameters     193
_refine_ls_number_reflns         2567
_refine_ls_number_restraints     46
_refine_ls_restrained_S_all      0.619
_refine_ls_R_factor_all          0.0384
_refine_ls_R_factor_gt           0.0319
_refine_ls_shift/su_max          0.000
_refine_ls_shift/su_mean         0.000
_refine_ls_structure_factor_coef Fsqd
_refine_ls_weighting_details
'w=1/[\s^2^(Fo^2^)+(0.0804P)^2^+0.5528P] where P=(Fo^2^+2Fc^2^)/3'
_refine_ls_weighting_scheme      calc
_refine_ls_wR_factor_gt          0.0878
_refine_ls_wR_factor_ref         0.0955
_reflns_Friedel_coverage         0.000
_reflns_number_gt                2184
_reflns_number_total             2567
_reflns_threshold_expression     'I > 2\s(I)'
_cod_data_source_file            ao7b00878_si_002.cif
_cod_data_source_block           CCDC_961169_2c4n.g
_cod_database_code               4516910
_shelx_shelxl_version_number     2014/7
_shelx_space_group_comment
;
The symmetry employed for this shelxl refinement is uniquely defined
by the following loop, which should always be used as a source of
symmetry information in preference to the above space-group names.
They are only intended as comments.
;
_shelx_res_file
;

    mo_NITK62_0m_a.res created by SHELXL-2014/7

TITL mo_NITK62_0m in P-1
CELL  0.71073   5.7224  10.5903  11.2992   95.938  103.751   94.742
ZERR    2.00   0.0004   0.0007   0.0007   0.001   0.001   0.001
LATT 1
SFAC C  H  N  O  Cl
UNIT 24  20  6  8  2
OMIT -3 52
L.S. 10
SHEL 999 0.8
ACTA
BOND
FMAP 2
PLAN 20
HTAB N2 O3_$1
HTAB N2 O3_$2
HTAB N3 O4_$2
HTAB C12 O4_$3
EQIV $1 -x, -y+1, -z
HTAB C12 O4_$1
EQIV $2 x-1, y, z
HTAB N3 O4_$2
EQIV $3 x-1, y, z
HTAB N2 O3_$3
EQIV $4 -x+1, -y+1, -z+1
HTAB N2 O3_$4
HTAB N2 O3_$1
HTAB N2 O3_$2
HTAB N3 O4_$2
HTAB C12 O4_$3
HTAB N2 O3_$1
HTAB N2 O3_$2
HTAB N3 O4_$2
HTAB C12 O4_$3
HTAB N3 O4_$2
HTAB C12 O4_$3
HTAB N2 O3_$2
HTAB N2 O3_$1
HTAB C12 O4_$3
HTAB N2 O3_$2
HTAB N2 O3_$1
HTAB
HTAB C12 O4_$3
EQIV $3 -x, -y+1, -z
HTAB N2 O3_$2
HTAB N2 O3_$1
HTAB
HTAb N2 O3_$2
EQIV $2 x-1, y, z
HTAB N2 O3_$1
EQIV $1 -x+1, -y+1, -z+1
HTAB N2 O3_$1
HTAB N2 O3_$2
HTAB C12 O4_$3
HTAB N2 O3_$1
HTAB N2 O3_$2
HTAB C12 O4_$3
HTAB C12 O4_$3
HTAB N3 O4_$2
DELU
TEMP 23.000
WGHT    0.080400    0.552798
FVAR       0.97556
CL1   5    0.462553    0.124476    0.104751    11.00000    0.07982    0.05596 =
         0.05485   -0.00211    0.03611    0.00179
O4    4    0.552029    0.412567    0.185351    11.00000    0.06846    0.05954 =
         0.03468    0.01329   -0.00096   -0.02415
O3    4    0.671449    0.439619    0.388587    11.00000    0.06163    0.06432 =
         0.03335    0.00195    0.00241   -0.02302
N3    3   -0.093052    0.593883    0.165536    11.00000    0.04263    0.03833 =
         0.03638    0.00328    0.00472   -0.00397
O1    4   -0.279600    0.006608    0.407335    11.00000    0.06621    0.08351 =
         0.10135    0.02733    0.04221   -0.00440
O2    4   -0.168285   -0.122065    0.276031    11.00000    0.07795    0.04831 =
         0.11626    0.00092    0.02876   -0.02064
N2    3    0.084472    0.589916    0.369227    11.00000    0.05359    0.05860 =
         0.03743    0.01110    0.00091   -0.01210
N1    3   -0.154724   -0.017802    0.336158    11.00000    0.04645    0.05291 =
         0.07247    0.02061    0.01298   -0.00322
C1    1    0.365272    0.273328    0.296714    11.00000    0.03969    0.03460 =
         0.03267    0.00646    0.00395    0.00137
C7    1    0.545871    0.383547    0.288476    11.00000    0.04185    0.03868 =
         0.03358    0.00623    0.00224   -0.00210
C8    1    0.098470    0.627304    0.262838    11.00000    0.04485    0.03293 =
         0.03600    0.00451    0.00585    0.00119
C2    1    0.311979    0.158401    0.218842    11.00000    0.04303    0.03812 =
         0.03366    0.00432    0.00869    0.00376
C4    1    0.025109    0.083997    0.322772    11.00000    0.04077    0.03860 =
         0.05211    0.01220    0.01069   -0.00072
C3    1    0.143432    0.062517    0.231435    11.00000    0.05002    0.03291 =
         0.04477    0.00060    0.00857   -0.00040
AFIX  43
H1    2    0.111236   -0.014285    0.179502    11.00000   -1.20000
AFIX   0
C6    1    0.244012    0.287882    0.389753    11.00000    0.05932    0.03586 =
         0.04174    0.00024    0.01606    0.00082
AFIX  43
H3    2    0.280646    0.362593    0.444738    11.00000   -1.20000
AFIX   0
C5    1    0.071331    0.195092    0.403011    11.00000    0.05637    0.04783 =
         0.05130    0.00827    0.02495    0.00534
AFIX  43
H2    2   -0.011106    0.207326    0.464252    11.00000   -1.20000
AFIX   0
C9    1    0.300851    0.700675    0.244361    11.00000    0.04249    0.05130 =
         0.05090    0.00959    0.00311   -0.00525
AFIX  43
H10   2    0.436913    0.725029    0.309106    11.00000   -1.20000
AFIX   0
C12   1   -0.099902    0.631039    0.053762    11.00000    0.05669    0.05198 =
         0.03572    0.00630    0.00169   -0.00025
AFIX  43
H7    2   -0.238069    0.608018   -0.010025    11.00000   -1.20000
AFIX   0
C10   1    0.296183    0.735510    0.131916    11.00000    0.05252    0.05566 =
         0.06031    0.01740    0.01800   -0.00460
AFIX  43
H9    2    0.430703    0.782912    0.119661    11.00000   -1.20000
AFIX   0
C11   1    0.091991    0.701206    0.034036    11.00000    0.06832    0.06116 =
         0.04407    0.01700    0.01528   -0.00031
AFIX  43
H8    2    0.088347    0.726112   -0.042873    11.00000   -1.20000
AFIX   0
H6    2   -0.216498    0.542760    0.175604    11.00000    0.05316
H4    2   -0.047437    0.543768    0.374102    11.00000    0.05369
H5    2    0.208504    0.601927    0.430508    11.00000    0.06423
HKLF 4

REM  mo_NITK62_0m in P-1
REM R1 =  0.0319 for    2184 Fo > 4sig(Fo)  and  0.0384 for all    2567 data
REM    193 parameters refined using     46 restraints

END

WGHT      0.0463      0.1102

REM Instructions for potential hydrogen bonds
HTAB C12 O4_$1
HTAB N3 O4_$2
HTAB N2 O3_$2
HTAB N2 O3_$4

REM Highest difference peak  0.192,  deepest hole -0.257,  1-sigma level  0.035
Q1    1   0.3088  0.1426  0.0684  11.00000  0.05    0.19
Q2    1   0.7232  0.3766  0.3579  11.00000  0.05    0.17
Q3    1   0.4578  0.3238  0.2930  11.00000  0.05    0.17
Q4    1   0.3014  0.2247  0.2451  11.00000  0.05    0.13
Q5    1   0.2419  0.2993  0.3156  11.00000  0.05    0.13
Q6    1   0.4611  0.4336  0.2242  11.00000  0.05    0.13
Q7    1   0.0092  0.1467  0.3346  11.00000  0.05    0.13
Q8    1   0.0349  0.0894  0.2647  11.00000  0.05    0.13
Q9    1  -0.3132  0.5849  0.0228  11.00000  0.05    0.12
Q10   1   0.1805  0.1273  0.2077  11.00000  0.05    0.12
Q11   1   0.2689  0.1041  0.2393  11.00000  0.05    0.12
Q12   1   0.2560  0.7643  0.2039  11.00000  0.05    0.12
Q13   1   0.1044  0.2556  0.3738  11.00000  0.05    0.11
Q14   1   0.3415  0.1593  0.1666  11.00000  0.05    0.11
Q15   1   0.5356  0.2058  0.1004  11.00000  0.05    0.11
Q16   1   0.1692  0.6963  0.2576  11.00000  0.05    0.11
Q17   1   0.6424  0.3609  0.2115  11.00000  0.05    0.11
Q18   1   0.1173  0.0664  0.3042  11.00000  0.05    0.11
Q19   1  -0.0427  0.0500  0.3241  11.00000  0.05    0.11
Q20   1   0.5786  0.4707  0.1627  11.00000  0.05    0.11
;
_shelx_res_checksum              65800
_shelx_hkl_file
;
  -1   0   0   88.69    1.60
  -1   0   0   87.09    2.00
   1   0   0   86.19    1.30
   1   0   0   87.19    1.50
   1   0   0   88.19    1.30
  -2   0   0   73.49    2.20
  -2   0   0   73.79    1.60
   2   0   0   75.49    1.40
   2   0   0   72.89    1.60
   2   0   0   73.79    1.30
  -3   0   0   41.60    1.00
  -3   0   0   42.00    2.00
  -3   0   0   41.00    1.20
   3   0   0   42.10    1.10
   3   0   0   42.80    1.40
   3   0   0   41.20    1.00
  -4   0   0   16.60    0.90
  -4   0   0   15.70    0.80
  -4   0   0   13.70    1.90
   4   0   0   15.90    0.90
   4   0   0   16.70    1.30
   4   0   0   14.60    0.80
  -5   0   0  211.68    5.80
  -5   0   0  213.58    4.40
   5   0   0  212.68    4.40
   5   0   0  209.98    4.40
   5   0   0  211.68    3.80
  -6   0   0    2.50    1.40
   6   0   0    0.00    0.90
  -7   0   0    4.00    1.70
   7   0   0    0.50    1.20
   7  -1   0    6.60    1.40
  -7   1   0    9.90    2.00
   6  -1   0   74.19    2.90
  -6   1   0   74.59    3.60
   5  -1   0   19.00    1.60
   5  -1   0   17.20    1.20
  -5   1   0   20.10    1.90
  -5   1   0   16.70    1.20
   4  -1   0    3.60    0.50
   4  -1   0    3.90    0.80
  -4   1   0    2.90    1.20
  -4   1   0    3.80    0.50
  -4   1   0    3.40    0.50
   3  -1   0   35.80    1.30
   3  -1   0   35.20    1.20
  -3   1   0   36.20    1.10
  -3   1   0   34.30    0.90
   2  -1   0    0.40    0.40
   2  -1   0    0.10    0.20
  -2   1   0    0.50    0.60
  -2   1   0    0.10    0.20
  -2   1   0    0.20    0.20
   1  -1   0  190.78    2.80
   1  -1   0  188.28    3.20
  -1   1   0  187.98    3.60
  -1   1   0  194.38    2.70
   0  -1   0    1.60    0.20
   0  -1   0    1.60    0.10
   0  -1   0    1.90    0.10
   0   1   0    1.50    0.20
   0   1   0    1.70    0.10
  -1  -1   0  167.78    3.30
  -1  -1   0  166.08    2.90
   1   1   0  164.28    2.40
   1   1   0  165.48    2.40
  -2  -1   0  341.07    5.70
  -2  -1   0  339.07    6.60
   2   1   0  345.17    4.80
   2   1   0  334.87    4.80
   2   1   0  331.77    5.00
  -3  -1   0  190.18    3.60
  -3  -1   0  183.88    4.50
   3   1   0  187.28    3.10
   3   1   0  187.48    3.00
   3   1   0  188.38    3.40
  -4  -1   0  128.89    4.00
  -4  -1   0  128.19    2.90
   4   1   0  130.29    2.90
   4   1   0  127.49    2.40
   4   1   0  124.09    2.60
  -5  -1   0   27.90    2.30
  -5  -1   0   28.40    1.40
   5   1   0   30.50    1.40
   5   1   0   27.20    1.70
  -6  -1   0    7.70    1.80
   6   1   0    8.00    1.00
   6   1   0    6.70    1.30
  -7  -1   0   10.20    2.10
   7   1   0    7.20    1.50
   7  -2   0   36.70    2.60
  -7   2   0   44.40    3.30
   6  -2   0   10.00    1.40
  -6   2   0   15.10    2.20
   5  -2   0   33.10    1.90
   5  -2   0   32.80    1.50
  -5   2   0   34.50    2.30
   4  -2   0   36.80    1.40
   4  -2   0   37.60    1.70
  -4   2   0   35.50    1.20
  -4   2   0   38.90    2.20
   3  -2   0   69.89    1.80
   3  -2   0   71.89    1.80
  -3   2   0   67.99    2.40
  -3   2   0   70.49    1.50
   2  -2   0    9.00    0.70
   2  -2   0    8.10    0.60
  -2   2   0    8.70    0.60
  -2   2   0    7.10    0.90
   1  -2   0 3064.69   49.90
   1  -2   0 3093.59   62.39
  -1   2   0 3041.50   42.90
  -1   2   0 3138.59   53.69
   0  -2   0   50.49    0.90
   0  -2   0   51.99    1.30
   0   2   0   51.49    1.10
   0   2   0   52.29    1.20
  -1  -2   0 1382.06   25.50
  -1  -2   0 1448.76   24.50
   1   2   0 1408.86   20.10
   1   2   0 1407.26   20.20
   1   2   0 1431.86   20.10
  -2  -2   0   77.89    1.80
  -2  -2   0   75.69    2.30
   2   2   0   75.69    1.50
   2   2   0   77.89    1.60
   2   2   0   75.69    1.60
  -3  -2   0  903.91   14.40
  -3  -2   0  864.61   16.10
   3   2   0  893.31   12.10
   3   2   0  895.11   12.50
   3   2   0  912.31   12.40
  -4  -2   0    9.90    0.90
  -4  -2   0    9.90    1.60
   4   2   0   10.20    0.90
   4   2   0   11.00    0.80
   4   2   0   11.10    1.10
  -5  -2   0   10.20    1.80
  -5  -2   0   10.90    1.10
   5   2   0   10.70    1.00
   5   2   0   12.10    1.30
  -6  -2   0   49.30    3.30
   6   2   0   46.80    2.30
   6   2   0   50.69    1.90
   7   2   0    7.60    1.50
   7  -3   0    6.60    1.50
  -7   3   0   10.80    2.00
   6  -3   0   30.50    2.10
  -6   3   0   30.80    2.70
   5  -3   0    9.80    1.20
   5  -3   0    8.50    1.20
  -5   3   0   10.20    1.60
   4  -3   0   35.60    1.50
   4  -3   0   37.00    1.70
  -4   3   0   35.90    2.20
  -4   3   0   36.70    1.30
   3  -3   0    1.20    0.50
   3  -3   0    1.50    0.40
  -3   3   0    1.70    0.50
  -3   3   0    1.10    0.80
   2  -3   0   16.40    0.80
   2  -3   0   16.90    0.80
  -2   3   0   16.60    0.80
  -2   3   0   15.60    1.00
   1  -3   0 1043.60   15.10
   1  -3   0 1013.00   18.10
  -1   3   0 1023.00   15.40
  -1   3   0 1006.10   18.00
   0  -3   0  570.84    9.40
   0  -3   0  570.04    8.10
   0   3   0  575.94    9.80
   0   3   0  572.54    8.00
  -1  -3   0  146.29    3.20
  -1  -3   0  149.88    3.10
   1   3   0  147.49    2.50
   1   3   0  152.38    2.50
   1   3   0  144.69    2.30
  -2  -3   0 1309.87   21.00
  -2  -3   0 1356.86   24.00
   2   3   0 1338.27   18.60
   2   3   0 1330.87   19.00
   2   3   0 1333.87   18.30
  -3  -3   0    0.00    0.40
  -3  -3   0    2.80    1.20
   3   3   0    0.00    0.40
   3   3   0    0.00    0.50
   3   3   0    0.90    0.30
  -4  -3   0    8.10    1.70
  -4  -3   0    7.40    1.00
   4   3   0    8.70    0.80
   4   3   0    9.80    1.20
   4   3   0    8.30    1.00
  -5  -3   0    4.00    1.60
  -5  -3   0    3.30    0.70
   5   3   0    2.60    0.90
   5   3   0    3.90    0.80
  -6  -3   0    3.00    1.60
   6   3   0    1.30    0.70
   6   3   0    0.00    0.90
  -7  -3   0    3.20    1.70
   7   3   0    0.00    1.00
   7  -4   0    0.30    1.20
  -7   4   0    4.00    1.50
   6  -4   0    9.20    1.40
  -6   4   0   10.30    1.70
   5  -4   0    6.10    0.90
   5  -4   0    6.00    1.10
  -5   4   0    6.20    1.30
   4  -4   0   77.79    2.40
   4  -4   0   79.59    2.30
  -4   4   0   78.99    2.00
  -4   4   0   77.59    2.90
   3  -4   0  374.96    6.80
   3  -4   0  374.26    5.90
  -3   4   0  373.16    5.80
  -3   4   0  363.26    7.40
   2  -4   0 1390.56   19.80
   2  -4   0 1398.86   24.30
  -2   4   0 1407.46   25.90
  -2   4   0 1446.36   20.70
   1  -4   0  146.59    2.40
   1  -4   0  145.39    3.20
  -1   4   0  142.79    2.60
  -1   4   0  144.09    3.00
   0  -4   0 1196.38   24.00
   0  -4   0 1223.18   17.20
   0   4   0 1209.38   18.60
   0   4   0 1227.88   22.00
  -1  -4   0   13.60    1.00
  -1  -4   0   13.30    1.10
   1   4   0   14.20    0.70
   1   4   0   13.40    0.60
   1   4   0   14.00    0.70
  -2  -4   0  760.32   13.80
  -2  -4   0  765.62   12.60
   2   4   0  765.92   10.60
   2   4   0  753.42   10.80
   2   4   0  758.92   10.50
  -3  -4   0  167.48    4.50
  -3  -4   0  164.68    3.70
   3   4   0  170.48    3.20
   3   4   0  171.98    3.30
   3   4   0  167.68    3.10
  -4  -4   0   53.69    3.00
  -4  -4   0   53.09    2.00
   4   4   0   52.09    2.00
   4   4   0   51.99    1.80
   4   4   0   52.89    1.60
  -5  -4   0   18.00    2.40
   5   4   0   19.00    1.50
   5   4   0   19.90    1.40
  -6  -4   0    1.90    1.60
   6   4   0    0.50    1.00
   6   4   0    1.30    0.70
   7  -5   0    4.80    1.40
  -7   5   0    7.10    1.70
   6  -5   0    0.70    1.00
  -6   5   0    2.20    1.20
   5  -5   0   45.10    2.10
   5  -5   0   42.40    2.10
  -5   5   0   42.60    2.50
   4  -5   0   75.49    2.60
   4  -5   0   74.19    2.30
  -4   5   0   72.69    2.00
  -4   5   0   76.79    2.90
   3  -5   0    0.10    0.50
  -3   5   0    0.00    0.60
  -3   5   0    0.60    0.60
   2  -5   0  285.07    4.50
   2  -5   0  288.27    5.60
  -2   5   0  284.67    5.70
  -2   5   0  294.87    4.70
   1  -5   0    1.90    0.30
   1  -5   0    3.00    0.70
  -1   5   0    2.20    0.50
  -1   5   0    1.90    0.50
   0  -5   0   58.29    1.20
   0  -5   0   59.39    2.00
   0   5   0   60.09    1.60
   0   5   0   60.19    1.60
  -1  -5   0  536.45    9.60
  -1  -5   0  514.25    9.30
   1   5   0  523.65    7.80
   1   5   0  523.65    7.30
   1   5   0  536.05    7.50
  -2  -5   0   58.29    2.40
  -2  -5   0   55.89    2.10
   2   5   0   57.59    1.70
   2   5   0   57.09    1.50
   2   5   0   55.49    1.50
  -3  -5   0    2.80    1.40
  -3  -5   0    2.40    0.80
   3   5   0    2.80    0.50
   3   5   0    4.20    0.80
   3   5   0    3.70    0.70
  -4  -5   0    9.40    1.20
  -4  -5   0    9.30    1.80
   4   5   0    8.80    1.10
   4   5   0   10.20    0.90
   4   5   0   10.20    1.20
  -5  -5   0    6.10    1.80
   5   5   0    6.10    1.10
   5   5   0    8.20    1.10
  -6  -5   0   43.10    3.30
   6   5   0   44.50    2.10
   6   5   0   42.00    2.40
   7  -6   0    0.00    1.10
  -7   6   0    2.70    1.40
   6  -6   0    0.80    1.00
  -6   6   0    3.60    1.30
   5  -6   0   29.40    2.10
   5  -6   0   32.00    1.90
  -5   6   0   31.90    2.20
   4  -6   0  112.39    2.80
   4  -6   0  110.89    3.40
  -4   6   0  109.59    3.50
  -4   6   0  113.69    2.70
   3  -6   0    4.90    1.00
   3  -6   0    4.30    0.70
  -3   6   0    4.50    0.80
  -3   6   0    4.40    0.90
   2  -6   0    0.50    0.40
   2  -6   0    0.20    0.70
  -2   6   0    0.00    0.40
  -2   6   0    0.20    0.60
   1  -6   0    3.90    0.90
   1  -6   0    4.40    0.50
  -1   6   0    4.90    0.70
  -1   6   0    3.70    0.60
   0  -6   0  304.27    6.10
   0  -6   0  302.77    4.40
   0  -6   0  302.07    5.90
   0   6   0  309.27    5.90
   0   6   0  308.27    5.10
  -1  -6   0    2.60    0.80
  -1  -6   0    2.30    0.90
   1   6   0    2.80    0.40
   1   6   0    3.90    0.60
   1   6   0    1.60    0.50
  -2  -6   0  339.97    7.10
  -2  -6   0  332.07    6.70
   2   6   0  337.07    5.20
   2   6   0  325.77    5.50
   2   6   0  340.57    5.50
  -3  -6   0    6.10    1.60
  -3  -6   0    4.70    1.00
   3   6   0    6.70    0.90
   3   6   0    4.90    0.70
   3   6   0    5.60    0.80
  -4  -6   0   83.79    3.70
  -4  -6   0   81.49    2.80
   4   6   0   83.99    2.30
   4   6   0   86.09    2.60
   4   6   0   84.89    2.40
  -5  -6   0   21.60    2.60
   5   6   0   24.70    1.70
   5   6   0   22.90    1.60
  -6  -6   0    1.30    1.80
   6   6   0    0.60    1.00
   6   6   0    1.80    0.90
   6  -7   0    0.70    1.00
  -6   7   0    2.50    1.20
   5  -7   0    9.30    1.20
   5  -7   0    8.90    1.50
  -5   7   0   14.60    1.90
   4  -7   0    6.50    0.90
   4  -7   0    4.00    1.10
  -4   7   0    6.80    0.90
  -4   7   0    6.20    1.10
   3  -7   0    1.20    1.00
   3  -7   0    0.00    0.50
  -3   7   0    0.30    0.60
  -3   7   0    0.10    0.70
   2  -7   0   28.60    2.00
   2  -7   0   27.90    1.10
  -2   7   0   27.50    1.50
  -2   7   0   26.00    1.40
   1  -7   0  312.97    4.70
   1  -7   0  305.67    6.50
  -1   7   0  310.97    5.30
  -1   7   0  304.87    6.10
   0  -7   0  775.32   10.60
   0  -7   0  783.72   13.70
   0  -7   0  784.22   13.80
   0   7   0  791.52   11.60
   0   7   0  775.52   10.60
  -1  -7   0  196.48    4.50
  -1  -7   0  194.28    4.80
   1   7   0  190.98    3.60
   1   7   0  189.48    3.20
   1   7   0  191.08    3.80
  -2  -7   0   75.39    2.90
  -2  -7   0   79.69    3.00
   2   7   0   77.89    1.90
   2   7   0   73.69    2.10
   2   7   0   78.09    2.30
  -3  -7   0    0.70    1.40
  -3  -7   0    1.20    0.90
   3   7   0    1.50    0.60
   3   7   0    1.10    0.80
   3   7   0    1.30    0.60
  -4  -7   0    1.80    1.60
  -4  -7   0    2.20    0.90
   4   7   0    2.80    1.00
   4   7   0    2.30    0.60
   4   7   0    2.80    0.80
  -5  -7   0   15.90    2.60
   5   7   0   21.00    1.70
   5   7   0   17.20    1.60
   6  -8   0    0.80    1.00
  -6   8   0    1.60    1.20
   5  -8   0   24.50    1.80
   5  -8   0   18.00    2.50
  -5   8   0   24.30    2.00
   4  -8   0    0.50    0.70
   4  -8   0    0.00    1.10
  -4   8   0    1.30    0.80
  -4   8   0    0.80    0.70
   3  -8   0  111.19    3.80
   3  -8   0  107.69    2.60
  -3   8   0  108.09    3.30
  -3   8   0  111.09    2.90
   2  -8   0   12.90    0.90
   2  -8   0    8.50    1.40
  -2   8   0   11.90    1.10
  -2   8   0    9.80    1.10
   1  -8   0   47.10    1.30
   1  -8   0   49.99    2.80
  -1   8   0   46.90    1.80
  -1   8   0   46.50    1.80
   0  -8   0  126.49    3.90
   0  -8   0  121.19    2.20
   0  -8   0  122.09    3.20
   0   8   0  124.89    2.30
   0   8   0  125.79    3.00
   0   8   0  127.19    2.70
  -1  -8   0   89.69    3.50
  -1  -8   0   90.19    2.90
   1   8   0   90.79    2.50
   1   8   0   87.79    2.50
   1   8   0   87.59    1.90
  -2  -8   0   20.80    2.10
  -2  -8   0   22.20    2.10
   2   8   0   21.90    1.50
   2   8   0   21.20    1.10
   2   8   0   22.90    1.40
  -3  -8   0   29.20    2.10
  -3  -8   0   25.00    2.50
   3   8   0   29.30    1.70
   3   8   0   25.50    1.30
   3   8   0   27.00    1.50
  -4  -8   0    1.10    0.90
  -4  -8   0    0.00    1.60
   4   8   0    0.40    0.70
   4   8   0    0.60    0.60
  -5  -8   0   12.70    2.50
   5   8   0   17.10    1.80
   6  -9   0    1.50    1.00
  -6   9   0    3.20    1.30
   5  -9   0    1.00    0.80
   5  -9   0    0.00    1.30
  -5   9   0    1.60    1.00
   4  -9   0    0.00    1.20
   4  -9   0    0.90    0.70
  -4   9   0    0.00    0.70
  -4   9   0    0.70    0.80
   3  -9   0    3.10    0.60
   3  -9   0    2.10    1.30
  -3   9   0    3.00    0.90
  -3   9   0    3.30    0.80
   2  -9   0    1.80    0.50
   2  -9   0    1.60    1.30
  -2   9   0    2.10    0.80
  -2   9   0    1.60    0.70
   1  -9   0    1.10    1.40
  -1   9   0    0.50    0.80
  -1   9   0    1.00    0.60
   0  -9   0   22.50    1.50
   0  -9   0   22.70    2.60
   0   9   0   23.80    1.40
   0   9   0   22.50    1.50
  -1  -9   0   65.59    3.20
  -1  -9   0   61.09    2.60
   1   9   0   62.09    2.20
   1   9   0   60.99    2.20
  -2  -9   0   21.50    2.20
  -2  -9   0   19.20    2.10
   2   9   0   20.60    1.60
   2   9   0   23.00    1.50
  -3  -9   0   25.70    2.20
  -3  -9   0   18.20    2.60
   3   9   0   22.80    1.70
   3   9   0   23.40    1.60
  -4  -9   0   38.70    2.50
   4   9   0   37.30    1.80
   4   9   0   36.00    2.10
   5   9   0   15.40    1.80
  -5  10   0    1.90    1.10
   4 -10   0    4.80    1.70
  -4  10   0    7.50    1.10
  -4  10   0    6.90    1.20
   3 -10   0    0.60    1.40
  -3  10   0    2.80    0.90
  -3  10   0    2.50    0.80
   2 -10   0   14.20    1.90
  -2  10   0   14.90    1.40
  -2  10   0   16.70    1.50
   1 -10   0    8.40    1.70
  -1  10   0    7.80    1.00
  -1  10   0    8.40    1.10
   0 -10   0   58.49    3.20
   0  10   0   55.59    2.00
   0  10   0   56.49    2.20
  -1 -10   0   16.50    2.40
   1  10   0   14.00    1.50
   1  10   0   14.00    1.40
  -2 -10   0    5.40    1.40
   2  10   0    4.20    1.00
   2  10   0    4.30    0.90
  -3 -10   0   17.90    2.10
   3  10   0   13.60    1.40
   3  10   0   13.90    1.60
  -4 -10   0   38.70    2.60
   4  10   0   36.60    1.90
   4  10   0   39.20    2.30
   4 -11   0    0.60    1.80
  -4  11   0    6.00    1.10
   3 -11   0   18.60    2.40
  -3  11   0   21.30    1.70
   2 -11   0    6.60    1.80
  -2  11   0    8.10    1.20
   1 -11   0   11.00    2.00
  -1  11   0   12.90    1.50
  -1  11   0   10.00    1.20
   0 -11   0    0.70    1.50
   0  11   0    0.70    0.90
   0  11   0    0.00    0.80
  -1 -11   0    2.30    1.40
   1  11   0    1.00    0.80
   1  11   0    2.30    0.90
  -2 -11   0   17.00    2.40
   2  11   0   16.10    1.60
   2  11   0   16.50    1.60
  -3 -11   0   35.00    2.70
   3  11   0   33.00    2.10
   3  11   0   31.30    2.10
  -4  12   0    2.60    1.00
   3 -12   0   21.80    2.80
  -3  12   0   31.90    2.10
   2 -12   0    3.00    1.80
  -2  12   0    4.20    1.00
   1 -12   0    6.60    1.90
  -1  12   0    5.10    1.00
  -1  12   0    6.70    1.20
   0 -12   0   25.60    3.00
   0  12   0   30.40    2.00
   0  12   0   26.00    1.70
  -1 -12   0    4.30    1.60
   1  12   0    3.60    0.90
   1  12   0    3.60    1.00
  -2 -12   0    0.00    1.40
   2  12   0    1.10    0.90
   2  12   0    2.00    1.00
  -3 -12   0    5.30    1.60
   3  12   0    5.20    1.20
   3  12   0    3.20    1.30
  -3  13   0    3.10    1.10
   2 -13   0    0.00    1.60
  -2  13   0    0.70    1.00
   1 -13   0    0.00    1.80
  -1  13   0    1.80    1.00
   0 -13   0    0.10    1.60
   0  13   0    1.60    1.00
   0  13   0    0.30    0.90
  -1 -13   0    7.20    2.00
   1  13   0    8.90    1.40
   1  13   0    6.80    1.20
  -2 -13   0    0.90    1.70
   2  13   0    2.30    1.00
   2  13   0    2.40    1.20
   1 -14   0    0.00    2.00
  -1  14   0    2.70    1.20
   0  14  -1    3.50    1.20
   0  14  -1    4.00    1.20
   0 -14   1    0.90    2.00
  -1  14  -1    0.80    1.10
   1 -14   1    0.00    1.80
   2  13  -1    2.10    1.00
   2  13  -1    0.40    1.10
  -2 -13   1    1.60    1.60
   1  13  -1   14.60    1.80
   1  13  -1   10.50    1.50
  -1 -13   1   10.00    2.00
   0  13  -1   12.00    1.50
   0  13  -1    9.30    1.30
   0 -13   1    8.10    2.10
  -1  13  -1    3.60    1.10
   1 -13   1    1.60    1.90
  -2  13  -1    5.10    1.20
   2 -13   1    0.00    1.90
  -3  13  -1    6.70    1.30
   3 -13   1    0.00    2.00
   3  12  -1   12.20    1.60
   3  12  -1   15.50    1.70
  -3 -12   1   19.50    2.80
   2  12  -1    1.80    0.90
   2  12  -1    0.90    1.00
  -2 -12   1    1.90    1.40
   1  12  -1    1.00    0.90
   1  12  -1    1.90    0.90
  -1 -12   1    0.20    1.30
   0  12  -1    6.80    1.20
   0  12  -1    6.50    1.20
   0 -12   1    7.30    1.90
  -1  12  -1    0.80    0.90
  -1  12  -1    0.00    0.80
   1 -12   1    0.00    1.60
  -2  12  -1    8.70    1.30
   2 -12   1    5.10    1.90
  -3  12  -1   16.40    1.80
  -4  12  -1    2.80    1.10
   4  11  -1   23.50    2.10
  -4 -11   1   30.20    2.70
   3  11  -1    0.80    1.00
   3  11  -1    1.50    0.80
  -3 -11   1    0.80    1.20
   2  11  -1   20.60    1.70
   2  11  -1   24.70    1.80
  -2 -11   1   23.50    2.60
   1  11  -1    1.80    0.90
   1  11  -1    0.90    0.90
  -1 -11   1    2.00    1.50
   0  11  -1   75.69    2.50
   0  11  -1   81.99    2.80
   0 -11   1   81.89    3.90
  -1  11  -1   39.00    2.10
   1 -11   1   38.40    2.90
  -2  11  -1    3.20    1.00
   2 -11   1    2.40    1.60
  -3  11  -1    3.00    1.00
   3 -11   1    1.30    1.60
  -4  11  -1    2.30    1.00
   4  10  -1    5.70    1.30
  -4 -10   1    6.60    1.40
   3  10  -1    5.20    0.90
   3  10  -1    6.20    1.20
  -3 -10   1    5.30    1.40
   2  10  -1   54.49    2.20
   2  10  -1   53.39    2.30
  -2 -10   1   53.79    3.00
   1  10  -1  130.99    3.40
   1  10  -1  129.39    3.30
  -1 -10   1  130.29    4.40
   0  10  -1   39.70    2.00
   0  10  -1   41.50    1.80
   0 -10   1   39.80    2.90
  -1  10  -1    2.80    0.80
   1 -10   1    3.40    1.50
  -2  10  -1    1.10    0.80
   2 -10   1    0.90    1.40
  -3  10  -1    0.00    0.80
   3 -10   1    0.00    1.40
   3 -10   1    0.70    0.60
  -4  10  -1    1.10    0.90
   4 -10   1    0.70    0.70
   5 -10   1    2.60    0.90
   5   9  -1    2.50    1.10
   4   9  -1    0.80    1.00
   4   9  -1    0.80    0.60
  -4  -9   1    2.30    1.10
   3   9  -1    0.30    0.90
   3   9  -1    0.60    0.60
  -3  -9   1    0.60    1.00
   2   9  -1    8.10    0.90
   2   9  -1    8.20    1.20
   2   9  -1    7.90    1.00
  -2  -9   1    8.60    1.50
   1   9  -1  512.95    8.10
   1   9  -1  508.45    8.40
   1   9  -1  506.85    7.60
  -1  -9   1  518.25   10.30
   0   9  -1   13.00    1.40
   0   9  -1   13.00    0.80
   0  -9   1   13.90    0.90
   0  -9   1   16.10    2.40
  -1   9  -1    0.00    0.80
  -1   9  -1    0.30    0.50
   1  -9   1    0.20    0.40
   1  -9   1    0.60    1.40
  -2   9  -1   25.00    1.70
  -2   9  -1   25.30    1.40
   2  -9   1   25.60    2.50
   2  -9   1   26.30    1.20
  -3   9  -1    1.50    0.70
  -3   9  -1    1.30    0.80
   3  -9   1    0.80    0.60
   3  -9   1    0.20    1.20
  -4   9  -1   32.70    1.90
  -4   9  -1   33.00    2.00
   4  -9   1   32.80    1.70
   4  -9   1   25.40    2.70
  -5   9  -1    4.40    1.20
   5  -9   1    3.40    1.00
  -6   9  -1    3.30    1.30
   6  -9   1    2.00    1.20
   5   8  -1    1.40    1.00
   5   8  -1    0.00    0.80
  -5  -8   1    1.90    0.90
   4   8  -1    2.00    0.80
   4   8  -1    2.50    1.00
   4   8  -1    2.70    0.70
  -4  -8   1    1.40    1.50
  -4  -8   1    3.30    1.00
   3   8  -1    0.00    0.50
   3   8  -1    0.00    0.60
   3   8  -1    0.20    0.80
  -3  -8   1    0.00    0.90
  -3  -8   1    0.00    1.30
   2   8  -1   54.09    2.10
   2   8  -1   52.49    1.90
   2   8  -1   51.29    1.60
  -2  -8   1   53.29    2.70
  -2  -8   1   48.20    2.50
   1   8  -1  364.06    5.90
   1   8  -1  354.56    6.10
   1   8  -1  352.36    5.50
  -1  -8   1  359.26    7.60
  -1  -8   1  355.36    7.10
   0   8  -1   65.49    2.10
   0  -8   1   60.99    1.90
   0  -8   1   62.99    1.60
   0  -8   1   65.39    3.00
  -1   8  -1  159.38    3.50
  -1   8  -1  154.08    3.60
   1  -8   1  162.38    4.50
   1  -8   1  159.88    3.00
  -2   8  -1  131.39    3.20
  -2   8  -1  131.89    3.40
   2  -8   1  130.09    2.80
   2  -8   1  133.19    4.10
  -3   8  -1    0.70    0.80
  -3   8  -1    0.00    0.60
   3  -8   1    0.40    0.60
   3  -8   1    0.50    1.20
  -4   8  -1   13.30    1.40
  -4   8  -1   11.80    1.50
   4  -8   1   11.10    1.30
   4  -8   1   10.10    1.50
  -5   8  -1    2.30    1.00
   5  -8   1    0.30    0.80
  -6   8  -1    3.30    1.30
   6  -8   1    0.60    1.00
   6   7  -1    3.20    1.20
   6   7  -1    5.40    1.20
  -6  -7   1    6.90    2.00
   5   7  -1    0.00    0.80
   5   7  -1    1.10    0.90
  -5  -7   1    0.30    1.50
  -5  -7   1    2.00    0.80
   4   7  -1    3.60    0.80
   4   7  -1    4.30    1.00
   4   7  -1    3.70    0.70
  -4  -7   1    3.00    1.00
  -4  -7   1    4.50    1.60
   3   7  -1    9.10    1.00
   3   7  -1    9.70    1.10
   3   7  -1    8.30    1.00
  -3  -7   1    9.70    1.60
  -3  -7   1    7.30    1.20
   2   7  -1    3.50    0.60
   2   7  -1    4.10    0.90
   2   7  -1    4.20    0.70
  -2  -7   1    3.40    1.20
  -2  -7   1    3.00    1.10
   1   7  -1  133.79    2.50
   1   7  -1  129.89    2.90
  -1  -7   1  132.99    3.30
  -1  -7   1  135.09    3.80
   0   7  -1    5.60    0.80
   0  -7   1    6.80    0.80
   0  -7   1    6.80    0.60
   0  -7   1    6.20    1.30
  -1   7  -1   98.29    2.50
  -1   7  -1  103.69    2.50
   1  -7   1  103.29    3.30
   1  -7   1  105.19    2.10
  -2   7  -1   96.29    2.50
  -2   7  -1   98.79    2.70
   2  -7   1   95.19    2.20
   2  -7   1   97.99    3.20
  -3   7  -1    9.60    1.10
  -3   7  -1    9.60    1.10
   3  -7   1    9.20    1.10
   3  -7   1    8.80    1.30
  -4   7  -1    2.90    0.90
  -4   7  -1    2.80    0.90
   4  -7   1    2.30    0.80
   4  -7   1    2.50    1.10
  -5   7  -1   47.60    2.60
   5  -7   1   45.30    2.20
   5  -7   1   38.10    2.60
  -6   7  -1    2.70    1.30
   6  -7   1    0.10    1.00
   6   6  -1    0.70    0.80
   6   6  -1    0.00    0.90
  -6  -6   1    0.40    1.50
   5   6  -1   20.40    1.60
   5   6  -1   23.20    1.60
  -5  -6   1   23.80    2.50
  -5  -6   1   25.70    1.80
   4   6  -1   20.30    1.50
   4   6  -1   18.00    1.10
   4   6  -1   18.50    1.40
  -4  -6   1   18.20    2.30
  -4  -6   1   19.90    1.60
   3   6  -1   40.20    1.50
   3   6  -1   40.40    1.80
   3   6  -1   36.80    1.40
  -3  -6   1   39.30    2.50
  -3  -6   1   37.00    2.00
   2   6  -1  353.06    5.50
   2   6  -1  367.46    5.80
   2   6  -1  348.37    5.80
  -2  -6   1  363.66    7.30
  -2  -6   1  346.47    7.00
   1   6  -1    0.50    0.50
   1   6  -1    0.90    0.30
  -1  -6   1    0.90    0.80
  -1  -6   1    0.80    0.70
   0   6  -1   89.39    2.10
   0  -6   1   86.79    1.70
   0  -6   1   87.29    2.80
   0  -6   1   84.29    2.10
  -1   6  -1  155.88    3.10
  -1   6  -1  155.98    3.30
   1  -6   1  154.88    3.80
   1  -6   1  155.08    2.80
  -2   6  -1  152.98    3.10
  -2   6  -1  151.98    3.50
   2  -6   1  152.48    3.80
   2  -6   1  146.19    2.90
  -3   6  -1    0.90    0.70
  -3   6  -1    0.70    0.70
   3  -6   1    1.70    0.70
   3  -6   1    1.60    0.90
  -4   6  -1   16.30    1.70
  -4   6  -1   15.70    1.40
   4  -6   1   16.20    1.70
   4  -6   1   16.10    1.40
  -5   6  -1    0.70    1.00
   5  -6   1    0.00    0.80
   5  -6   1    0.00    0.90
   6  -6   1    7.60    1.40
   6   5  -1    3.20    1.10
   6   5  -1    5.10    1.00
  -6  -5   1    6.20    1.80
   5   5  -1   26.60    1.60
   5   5  -1   25.40    1.70
  -5  -5   1   26.00    1.70
  -5  -5   1   27.20    2.50
   4   5  -1   49.70    1.90
   4   5  -1   49.40    1.90
   4   5  -1   50.29    1.50
  -4  -5   1   47.90    2.10
  -4  -5   1   48.70    2.80
   3   5  -1    9.00    1.00
   3   5  -1    8.60    0.80
   3   5  -1    8.80    0.90
  -3  -5   1    6.90    1.00
  -3  -5   1    7.70    1.50
   2   5  -1   50.19    1.60
   2   5  -1   48.70    1.40
   2   5  -1   48.70    1.40
  -2  -5   1   49.20    2.00
  -2  -5   1   47.70    1.90
   1   5  -1    0.80    0.30
   1   5  -1    0.30    0.40
  -1  -5   1    0.50    0.70
  -1  -5   1    1.50    0.60
   0   5  -1  196.28    3.80
   0   5  -1  201.08    3.50
   0  -5   1  200.88    4.30
   0  -5   1  202.78    3.20
  -1   5  -1  756.32   13.00
  -1   5  -1  747.93   10.90
   1  -5   1  767.22   10.40
   1  -5   1  760.72   12.70
  -2   5  -1  336.77    6.60
  -2   5  -1  338.97    5.50
   2  -5   1  346.17    6.50
   2  -5   1  345.57    5.30
  -3   5  -1    1.90    0.70
  -3   5  -1    2.80    0.90
   3  -5   1    2.40    0.60
   3  -5   1    3.10    0.80
  -4   5  -1   27.90    1.50
  -4   5  -1   27.80    2.00
   4  -5   1   26.70    1.60
   4  -5   1   28.90    1.80
  -5   5  -1   32.50    2.30
   5  -5   1   31.40    1.90
  -6   5  -1    4.10    1.40
   6  -5   1    1.60    1.10
  -7   5  -1    4.20    1.60
   7  -5   1    0.00    1.20
   6   4  -1    1.00    0.70
   6   4  -1    1.20    0.90
  -6  -4   1    2.40    1.50
   5   4  -1    9.30    1.10
   5   4  -1   11.20    1.30
  -5  -4   1   11.60    1.20
  -5  -4   1    9.70    1.70
   4   4  -1    1.60    0.50
   4   4  -1    2.20    0.80
   4   4  -1    2.40    0.70
  -4  -4   1    2.20    1.50
  -4  -4   1    2.20    0.70
   3   4  -1    7.30    0.70
   3   4  -1    7.50    0.90
   3   4  -1    7.20    0.80
  -3  -4   1    7.90    1.40
  -3  -4   1    5.50    0.80
   2   4  -1    1.60    0.40
   2   4  -1    0.80    0.50
   2   4  -1    0.90    0.40
  -2  -4   1    1.80    0.90
  -2  -4   1    1.20    0.60
   1   4  -1 3282.17   70.99
   1   4  -1 3306.27   45.90
  -1  -4   1 3299.67   55.89
  -1  -4   1 3337.17   57.69
   0   4  -1 1243.08   21.80
   0   4  -1 1232.48   18.70
   0  -4   1 1216.28   19.70
   0  -4   1 1261.37   18.00
  -1   4  -1  175.58    3.50
  -1   4  -1  177.18    3.10
   1  -4   1  179.68    2.90
   1  -4   1  176.58    3.60
  -2   4  -1    6.40    0.80
  -2   4  -1    7.60    0.80
   2  -4   1    7.70    0.70
   2  -4   1    8.10    0.90
  -3   4  -1    6.90    1.10
  -3   4  -1    7.90    1.00
   3  -4   1    7.80    1.00
   3  -4   1    8.30    0.90
  -4   4  -1   24.80    2.00
  -4   4  -1   25.20    1.40
   4  -4   1   25.30    1.50
   4  -4   1   25.00    1.50
  -5   4  -1   40.00    2.50
   5  -4   1   40.50    2.00
  -6   4  -1    4.00    1.40
   6  -4   1    0.70    1.00
  -7   4  -1    4.20    1.60
   7  -4   1    1.10    1.30
   7   3  -1    1.00    1.20
  -7  -3   1    6.20    1.80
   6   3  -1   51.39    2.00
   6   3  -1   49.90    2.30
  -6  -3   1   51.59    3.20
   5   3  -1   48.70    1.80
   5   3  -1   49.30    2.10
  -5  -3   1   54.99    2.10
  -5  -3   1   51.19    2.90
   4   3  -1    0.20    0.30
   4   3  -1    0.60    0.70
   4   3  -1    0.00    0.60
  -4  -3   1    0.30    1.20
  -4  -3   1    0.00    0.50
   3   3  -1   13.70    0.70
   3   3  -1   14.80    0.90
   3   3  -1   13.70    0.90
  -3  -3   1   13.80    1.60
  -3  -3   1   14.50    1.00
   2   3  -1  443.06    6.40
   2   3  -1  437.26    6.30
   2   3  -1  453.15    6.50
  -2  -3   1  444.76    8.30
  -2  -3   1  431.46    7.60
   1   3  -1 1842.12   26.70
   1   3  -1 1752.82   25.50
  -1  -3   1 1824.82   31.40
  -1  -3   1 1836.62   32.40
   0   3  -1   21.30    0.90
   0   3  -1   21.10    0.60
   0  -3   1   20.90    0.60
   0  -3   1   19.80    1.20
  -1   3  -1  191.18    3.20
  -1   3  -1  190.28    3.70
   1  -3   1  191.58    3.00
   1  -3   1  195.68    3.60
  -2   3  -1  130.09    2.40
  -2   3  -1  129.79    3.10
   2  -3   1  129.69    2.70
   2  -3   1  132.19    2.50
  -3   3  -1  339.87    7.20
  -3   3  -1  360.46    5.50
   3  -3   1  355.16    6.20
   3  -3   1  358.76    5.70
  -4   3  -1   36.00    2.30
  -4   3  -1   40.00    1.40
   4  -3   1   36.20    1.70
   4  -3   1   35.50    1.50
  -5   3  -1   15.50    2.10
   5  -3   1   13.10    1.50
  -6   3  -1    4.80    1.50
   6  -3   1    3.30    1.10
  -7   3  -1   18.70    2.70
   7  -3   1   10.70    1.70
   7   2  -1   10.90    1.60
  -7  -2   1   19.10    2.70
   6   2  -1    0.30    0.90
   6   2  -1    1.90    0.70
  -6  -2   1    1.80    1.40
   5   2  -1   57.69    1.80
   5   2  -1   56.59    2.10
  -5  -2   1   59.19    2.10
  -5  -2   1   55.49    2.90
   4   2  -1   18.20    0.80
   4   2  -1   17.90    1.00
   4   2  -1   17.90    1.30
  -4  -2   1   16.70    2.00
  -4  -2   1   17.00    1.20
   3   2  -1   68.49    1.40
   3   2  -1   69.19    1.60
   3   2  -1   66.39    1.80
  -3  -2   1   68.79    1.90
  -3  -2   1   66.19    2.40
   2   2  -1 3870.01   52.99
   2   2  -1 3804.32   51.79
   2   2  -1 3910.61   53.89
  -2  -2   1 3761.72  109.89
  -2  -2   1 3919.81   62.79
   1   2  -1   98.99    1.70
   1   2  -1   97.59    1.70
  -1  -2   1  100.59    2.20
  -1  -2   1   93.69    2.10
   0   2  -1  109.89    1.90
   0   2  -1  109.59    1.90
   0  -2   1  108.49    2.20
   0  -2   1  107.89    1.90
   0  -2   1  110.49    1.70
  -1   2  -1 3965.40   56.29
  -1   2  -1 4070.29   98.79
   1  -2   1 4175.98   91.99
   1  -2   1 4126.19   78.29
  -2   2  -1  224.38    3.50
  -2   2  -1  222.58    4.60
   2  -2   1  222.08    3.90
   2  -2   1  224.28    3.60
  -3   2  -1   31.70    1.80
  -3   2  -1   34.10    1.10
   3  -2   1   34.60    1.40
   3  -2   1   34.00    1.10
  -4   2  -1   20.70    1.10
  -4   2  -1   19.80    2.00
   4  -2   1   22.10    1.10
   4  -2   1   22.20    1.50
  -5   2  -1   11.20    1.70
   5  -2   1    9.70    1.20
  -6   2  -1   34.30    2.80
   6  -2   1   31.00    2.20
  -7   2  -1    5.10    1.70
   7  -2   1    1.40    1.20
   7   1  -1    0.00    1.00
  -7  -1   1    2.30    1.50
   6   1  -1   10.50    1.40
  -6  -1   1   14.40    2.20
   5   1  -1   65.39    1.90
   5   1  -1   68.59    2.30
  -5  -1   1   65.19    3.00
  -5  -1   1   66.29    2.20
   4   1  -1   80.19    1.60
   4   1  -1   80.89    1.90
   4   1  -1   81.99    2.20
  -4  -1   1   79.89    3.00
  -4  -1   1   82.29    2.30
   3   1  -1  117.09    1.90
   3   1  -1  121.19    2.20
   3   1  -1  117.39    2.40
  -3  -1   1  121.19    2.70
  -3  -1   1  117.89    3.30
   2   1  -1  117.39    2.20
   2   1  -1  116.19    1.80
   2   1  -1  116.19    2.00
  -2  -1   1  119.19    2.40
   1   1  -1 3544.55   57.49
  -1  -1   1 3552.94   55.39
  -1  -1   1 3354.06   59.39
   0   1  -1  155.48    2.30
   0  -1   1  162.28    2.30
   0  -1   1  153.38    2.60
  -1   1  -1 5068.69   85.49
  -1   1  -1 4925.61   83.79
   1  -1   1 4967.00   92.89
   1  -1   1 5087.79   87.89
  -2   1  -1 1131.39   20.40
  -2   1  -1 1103.49   15.40
   2  -1   1 1132.39   15.70
   2  -1   1 1118.49   18.50
   2  -1   1 1182.98   16.60
  -3   1  -1   30.10    1.00
  -3   1  -1   30.10    1.00
  -3   1  -1   29.40    1.80
   3  -1   1   29.90    1.00
   3  -1   1   30.70    1.30
   3  -1   1   29.70    1.00
  -4   1  -1   18.60    1.00
  -4   1  -1   18.60    1.00
  -4   1  -1   18.70    2.10
   4  -1   1   17.70    0.90
   4  -1   1   19.30    1.40
  -5   1  -1    0.30    1.30
   5  -1   1    0.00    0.80
  -6   1  -1    8.50    1.70
   6  -1   1    5.70    1.20
  -7   1  -1   10.00    2.10
   7  -1   1    7.80    1.60
   7   0  -1    0.00    1.10
  -7   0   1    2.20    1.40
   6   0  -1    1.40    1.00
  -6   0   1    1.50    1.30
   5   0  -1    2.90    0.90
   5   0  -1    3.50    0.60
   5   0  -1    2.80    0.70
  -5   0   1    3.40    1.30
  -5   0   1    3.00    0.70
   4   0  -1  138.89    3.00
   4   0  -1  143.49    2.60
  -4   0   1  138.19    2.30
  -4   0   1  140.09    4.00
  -4   0   1  142.69    3.20
   3   0  -1  166.68    3.00
   3   0  -1  166.38    2.60
   3   0  -1  158.68    2.40
  -3   0   1  163.48    4.00
  -3   0   1  161.18    3.30
  -3   0   1  159.58    2.40
   2   0  -1  415.86    6.00
   2   0  -1  413.16    5.70
   2   0  -1  427.26    5.60
  -2   0   1  419.66    6.90
  -2   0   1  399.46    5.60
  -2   0   1  406.46    7.60
  -1   0   1   36.50    1.00
  -1   0   1   36.90    0.90
   0   0  -1    0.00    0.20
   0   0   1    0.00    0.20
   0   0   1    0.00    0.10
   0   0   1    0.00    0.10
  -1   0  -1 1368.26   21.30
  -1   0  -1 1386.16   24.80
   1   0   1 1297.07   19.40
   1   0   1 1380.16   19.30
  -2   0  -1  947.31   25.50
  -2   0  -1  963.90   16.80
   2   0   1  975.40   13.90
   2   0   1  952.00   13.10
   2   0   1  977.00   13.40
  -3   0  -1  263.17    4.60
  -3   0  -1  266.57    6.00
   3   0   1  267.37    4.20
   3   0   1  268.07    4.50
   3   0   1  268.07    4.20
  -4   0  -1  142.69    2.70
  -4   0  -1  149.49    4.50
  -4   0  -1  145.99    3.10
   4   0   1  146.49    3.10
   4   0   1  153.18    3.30
   4   0   1  153.58    2.90
   4   0   1  148.69    2.80
  -5   0  -1   23.30    2.40
   5   0   1   22.10    1.70
  -6   0  -1    2.20    1.50
   6   0   1    0.40    1.00
  -7   0  -1    2.70    1.70
   7   0   1    0.00    1.10
   7  -1  -1    5.30    1.40
  -7   1   1    8.10    1.80
   6  -1  -1   20.90    1.90
  -6   1   1   22.20    2.20
   5  -1  -1    1.60    0.60
   5  -1  -1    1.20    0.90
  -5   1   1    1.80    1.30
  -5   1   1    1.60    0.60
   4  -1  -1  110.59    2.70
   4  -1  -1  110.79    2.10
   4  -1  -1  109.49    2.60
  -4   1   1  109.69    2.70
  -4   1   1  106.99    1.90
   3  -1  -1  313.77    4.40
   3  -1  -1  316.07    5.00
   3  -1  -1  312.87    5.60
  -3   1   1  310.77    5.50
  -3   1   1  298.77    4.40
   2  -1  -1  960.30   13.60
   2  -1  -1  935.81   16.20
   2  -1  -1  948.81   13.00
  -2   1   1  952.40   15.80
  -2   1   1  925.11   16.30
  -2   1   1  958.40   13.50
   1  -1  -1    0.20    0.20
   1  -1  -1    0.00    0.20
  -1   1   1    0.00    0.30
  -1   1   1    0.00    0.20
   0  -1  -1  448.66   14.40
   0  -1  -1  420.86    5.80
   0   1   1  434.96    5.80
   0   1   1  421.86    6.00
   0   1   1  425.96    7.40
   0   1   1  427.96    6.30
  -1  -1  -1  281.07    5.30
  -1  -1  -1  279.17    4.60
   1   1   1  284.47    4.00
   1   1   1  284.17    4.00
   1   1   1  273.87    4.10
  -2  -1  -1  209.18    4.70
  -2  -1  -1  211.48    3.70
   2   1   1  215.08    3.30
   2   1   1  212.78    3.30
   2   1   1  214.28    3.40
  -3  -1  -1  421.26    6.90
  -3  -1  -1  384.16    8.20
   3   1   1  410.56    6.30
   3   1   1  414.66    6.00
   3   1   1  406.96    6.10
  -4  -1  -1    2.60    1.60
  -4  -1  -1    3.00    0.50
   4   1   1    2.80    0.80
   4   1   1    2.60    0.60
   4   1   1    2.00    0.50
  -5  -1  -1   63.69    3.30
   5   1   1   67.79    2.40
   5   1   1   67.89    2.10
  -6  -1  -1   11.00    2.00
   6   1   1    8.80    1.30
  -7  -1  -1    9.80    2.10
   7   1   1    5.80    1.50
   7  -2  -1    0.30    1.20
  -7   2   1    3.50    1.60
   6  -2  -1    0.10    1.00
  -6   2   1    0.80    1.30
   5  -2  -1  236.78    4.80
   5  -2  -1  238.38    5.00
  -5   2   1  241.28    6.10
   4  -2  -1  178.08    3.60
   4  -2  -1  175.78    3.80
  -4   2   1  173.78    3.70
  -4   2   1  174.68    4.60
  -4   2   1  168.98    2.90
   3  -2  -1  118.59    2.40
   3  -2  -1  119.09    2.70
  -3   2   1  120.29    2.10
  -3   2   1  119.09    2.60
  -3   2   1  117.39    3.20
   2  -2  -1   68.09    1.50
   2  -2  -1   65.39    1.60
  -2   2   1   62.79    1.90
  -2   2   1   68.69    1.30
   1  -2  -1 6696.73  140.19
   1  -2  -1 6841.02  105.19
  -1   2   1 6711.03  106.29
  -1   2   1 6697.93  141.69
   0  -2  -1 3178.88   50.89
   0   2   1 3239.48   54.69
   0   2   1 3261.27   44.60
   0   2   1 3065.79   41.50
   0   2   1 3065.39   43.90
  -1  -2  -1  303.07    5.80
  -1  -2  -1  308.57    5.20
   1   2   1  306.87    4.50
   1   2   1  311.37    4.30
   1   2   1  310.67    4.40
  -2  -2  -1    1.70    0.90
  -2  -2  -1    0.40    0.40
   2   2   1    0.80    0.40
   2   2   1    0.40    0.30
   2   2   1    0.30    0.40
  -3  -2  -1   92.59    3.20
  -3  -2  -1   97.69    2.20
   3   2   1   95.19    2.10
   3   2   1   96.29    2.20
   3   2   1   95.89    2.00
  -4  -2  -1  243.68    6.30
  -4  -2  -1  243.58    4.70
   4   2   1  242.38    4.20
   4   2   1  246.68    4.60
   4   2   1  239.78    4.30
  -5  -2  -1   51.49    3.20
   5   2   1   56.19    1.90
   5   2   1   57.49    2.20
  -6  -2  -1    2.40    1.60
   6   2   1    0.70    0.70
   6   2   1    0.00    0.90
  -7  -2  -1    3.40    1.80
   7   2   1    0.20    1.20
   7  -3  -1   47.50    2.80
  -7   3   1   52.29    3.50
   6  -3  -1   32.10    2.10
  -6   3   1   36.00    2.70
   5  -3  -1    0.10    0.80
   5  -3  -1    0.30    0.60
  -5   3   1    0.70    1.10
   4  -3  -1  101.69    2.60
   4  -3  -1  100.49    2.70
  -4   3   1   98.59    2.00
  -4   3   1   98.59    3.20
   3  -3  -1   64.39    1.90
   3  -3  -1   63.09    1.70
  -3   3   1   65.69    2.20
  -3   3   1   62.59    1.40
   2  -3  -1   11.00    0.80
   2  -3  -1   10.60    0.70
  -2   3   1   10.10    0.80
  -2   3   1    9.80    0.60
   1  -3  -1 9999.00  149.39
   1  -3  -1 9379.26  187.68
  -1   3   1 9889.91  193.38
  -1   3   1 9432.56  157.58
   0  -3  -1  590.34    9.50
   0   3   1  563.54    8.10
   0   3   1  573.14    7.80
   0   3   1  582.14   10.00
   0   3   1  579.74    7.70
  -1  -3  -1  896.61   14.10
  -1  -3  -1  881.01   15.30
   1   3   1  868.71   11.70
   1   3   1  877.01   12.20
   1   3   1  891.01   12.50
  -2  -3  -1  147.79    3.10
  -2  -3  -1  145.39    3.80
   2   3   1  148.19    2.70
   2   3   1  153.78    2.60
   2   3   1  147.99    2.70
  -3  -3  -1    1.60    0.50
  -3  -3  -1    2.60    1.40
   3   3   1    2.10    0.50
   3   3   1    1.70    0.60
   3   3   1    1.40    0.40
  -4  -3  -1  537.45   11.20
  -4  -3  -1  534.85    9.40
   4   3   1  546.85    8.50
   4   3   1  556.04    8.20
   4   3   1  535.05    8.20
  -5  -3  -1    0.00    1.50
   5   3   1    0.10    0.60
   5   3   1    0.40    0.80
  -6  -3  -1   19.30    2.80
   6   3   1   15.60    1.40
   6   3   1   13.10    1.50
   7  -4  -1    0.50    1.20
  -7   4   1    2.60    1.40
   6  -4  -1    7.30    1.30
  -6   4   1    9.10    1.70
   5  -4  -1    1.60    0.70
   5  -4  -1    1.10    0.80
  -5   4   1    1.70    1.10
   4  -4  -1   35.10    1.70
   4  -4  -1   32.80    1.60
  -4   4   1   33.20    2.00
  -4   4   1   32.50    1.30
   3  -4  -1  119.39    2.90
   3  -4  -1  111.59    2.40
  -3   4   1  112.59    2.20
  -3   4   1  109.09    3.00
   2  -4  -1  263.97    5.00
   2  -4  -1  258.07    4.00
  -2   4   1  256.17    4.10
  -2   4   1  256.27    5.20
   1  -4  -1  331.47    6.10
   1  -4  -1  340.77    4.70
  -1   4   1  337.97    5.10
  -1   4   1  342.97    6.30
   0  -4  -1  460.95    8.00
   0   4   1  463.15    6.80
   0   4   1  474.05    8.30
   0   4   1  464.45    6.40
   0   4   1  461.05    6.40
  -1  -4  -1   10.90    1.00
  -1  -4  -1    9.40    1.10
   1   4   1   13.00    0.80
   1   4   1   10.70    0.50
  -2  -4  -1   21.60    1.70
  -2  -4  -1   21.10    1.30
   2   4   1   21.10    1.10
   2   4   1   19.80    0.90
   2   4   1   20.90    0.90
  -3  -4  -1   87.49    2.40
  -3  -4  -1   89.79    3.50
   3   4   1   92.19    2.20
   3   4   1   88.89    2.10
   3   4   1   90.09    2.30
  -4  -4  -1   52.59    1.90
  -4  -4  -1   54.39    3.20
   4   4   1   55.09    1.70
   4   4   1   55.99    1.90
   4   4   1   52.39    1.90
  -5  -4  -1    3.80    1.80
   5   4   1    3.30    0.90
   5   4   1    4.30    0.90
  -6  -4  -1    3.60    1.90
   6   4   1    2.10    0.90
   6   4   1    1.50    1.00
   7  -5  -1    1.50    1.30
  -7   5   1    4.50    1.50
   6  -5  -1   16.90    1.80
   6  -5  -1   15.40    1.90
  -6   5   1   22.20    2.20
   5  -5  -1   15.50    1.50
   5  -5  -1   13.60    1.60
  -5   5   1   15.70    1.80
   4  -5  -1   95.09    2.90
   4  -5  -1   95.79    2.60
  -4   5   1   92.99    3.20
  -4   5   1   96.19    2.20
   3  -5  -1   38.50    1.70
   3  -5  -1   37.90    1.40
  -3   5   1   40.20    1.30
  -3   5   1   38.10    1.80
   2  -5  -1  143.89    2.50
   2  -5  -1  145.99    3.40
  -2   5   1  139.69    3.40
  -2   5   1  145.29    2.80
   1  -5  -1  984.30   15.90
   1  -5  -1  975.60   13.50
  -1   5   1  943.11   13.50
  -1   5   1  960.60   16.70
   0  -5  -1  490.05    8.70
   0  -5  -1  484.35    8.90
   0   5   1  495.95    8.90
   0   5   1  495.75    7.40
   0   5   1  483.35    6.60
   0   5   1  494.05    6.90
  -1  -5  -1  123.49    3.10
  -1  -5  -1  123.99    3.10
   1   5   1  126.79    2.50
   1   5   1  121.29    2.10
   1   5   1  121.39    2.50
  -2  -5  -1  150.78    4.10
  -2  -5  -1  153.28    3.70
   2   5   1  153.78    2.80
   2   5   1  147.29    3.00
   2   5   1  153.58    3.00
  -3  -5  -1   72.99    2.40
  -3  -5  -1   72.99    3.40
   3   5   1   73.59    2.00
   3   5   1   72.99    2.00
   3   5   1   74.39    2.20
  -4  -5  -1    0.40    1.50
  -4  -5  -1    0.40    0.60
   4   5   1    0.00    0.60
   4   5   1    0.00    0.50
   4   5   1    0.00    0.70
  -5  -5  -1   43.40    3.20
   5   5   1   41.10    2.00
   5   5   1   42.90    2.00
  -6  -5  -1   21.20    3.10
   6   5   1   19.80    1.90
   6   5   1   23.80    1.70
   7  -6  -1   14.40    1.80
   6  -6  -1    1.30    1.00
   6  -6  -1    0.00    1.00
  -6   6   1    3.40    1.30
   5  -6  -1    0.60    0.80
   5  -6  -1    0.10    0.90
  -5   6   1    1.10    1.00
   4  -6  -1    8.90    1.10
   4  -6  -1    9.50    1.20
  -4   6   1   10.60    1.50
  -4   6   1    9.80    1.10
   3  -6  -1    0.00    0.50
   3  -6  -1    0.30    0.70
  -3   6   1    0.10    0.60
  -3   6   1    0.00    0.50
   2  -6  -1  134.09    2.50
   2  -6  -1  138.09    3.50
  -2   6   1  133.19    3.40
  -2   6   1  137.29    2.80
   1  -6  -1    1.30    0.30
   1  -6  -1    2.10    0.80
  -1   6   1    1.50    0.50
  -1   6   1    1.40    0.50
  -1   6   1    1.30    0.50
   0  -6  -1   15.70    1.60
   0  -6  -1   12.80    1.00
   0   6   1   12.90    0.90
   0   6   1   13.80    0.90
   0   6   1   12.90    0.50
  -1  -6  -1   18.80    1.70
  -1  -6  -1   19.40    1.40
   1   6   1   16.60    1.00
   1   6   1   17.30    0.70
   1   6   1   18.50    1.10
  -2  -6  -1   19.10    1.90
  -2  -6  -1   17.80    1.70
   2   6   1   19.10    1.00
   2   6   1   18.70    1.10
   2   6   1   18.00    1.30
  -3  -6  -1   19.30    2.60
  -3  -6  -1   21.30    1.80
   3   6   1   20.60    1.20
   3   6   1   21.30    1.30
   3   6   1   21.00    1.40
  -4  -6  -1   24.20    2.60
  -4  -6  -1   26.20    1.70
   4   6   1   26.00    1.60
   4   6   1   26.10    1.40
   4   6   1   25.40    1.50
  -5  -6  -1    5.00    2.00
   5   6   1    5.80    1.10
   5   6   1    5.90    1.10
  -6  -6  -1    1.10    2.10
   6   6   1    0.70    1.10
   6   6   1    3.10    1.00
   6  -7  -1    5.30    1.20
  -6   7   1    7.30    1.50
   5  -7  -1    0.60    1.10
   5  -7  -1    1.50    0.80
  -5   7   1    3.00    1.10
   4  -7  -1   61.09    2.00
   4  -7  -1   57.79    2.70
  -4   7   1   59.19    2.50
  -4   7   1   57.99    1.90
   3  -7  -1  242.38    5.50
   3  -7  -1  235.58    4.20
  -3   7   1  237.98    4.40
  -3   7   1  234.18    5.40
   2  -7  -1    0.70    1.00
   2  -7  -1    0.00    0.40
  -2   7   1    0.00    0.50
  -2   7   1    0.00    0.60
   1  -7  -1  457.25    8.80
   1  -7  -1  451.15    6.40
  -1   7   1  460.75    7.30
  -1   7   1  451.15    8.70
  -1   7   1  456.65    6.60
   0  -7  -1    0.50    1.10
   0  -7  -1    0.00    0.60
   0   7   1    0.10    0.60
   0   7   1    0.00    0.50
   0   7   1    0.40    0.20
  -1  -7  -1  186.68    4.60
  -1  -7  -1  191.28    4.60
   1   7   1  193.58    3.70
   1   7   1  192.38    3.80
   1   7   1  185.28    3.00
  -2  -7  -1 1142.19   19.20
  -2  -7  -1 1147.39   20.60
   2   7   1 1135.89   15.60
   2   7   1 1145.59   15.90
   2   7   1 1139.39   16.50
  -3  -7  -1   29.60    2.60
  -3  -7  -1   31.80    2.00
   3   7   1   31.40    1.70
   3   7   1   31.60    1.40
   3   7   1   33.70    1.50
  -4  -7  -1   13.10    2.20
  -4  -7  -1   13.80    1.50
   4   7   1   11.90    1.40
   4   7   1   12.60    1.30
   4   7   1   12.50    1.20
  -5  -7  -1    9.50    2.30
   5   7   1   15.40    1.60
   6  -8  -1    0.40    0.90
  -6   8   1    2.90    1.30
   5  -8  -1    0.00    1.10
   5  -8  -1    0.90    0.80
  -5   8   1    1.10    1.00
   4  -8  -1   10.10    1.20
   4  -8  -1    8.00    1.40
  -4   8   1   11.10    1.20
  -4   8   1   11.50    1.50
   3  -8  -1    2.20    1.20
   3  -8  -1    3.00    0.60
  -3   8   1    2.50    0.80
  -3   8   1    3.40    0.90
   2  -8  -1   10.60    0.80
   2  -8  -1   13.70    2.10
  -2   8   1   11.10    1.20
  -2   8   1   14.20    1.30
   1  -8  -1    1.10    1.10
   1  -8  -1    0.20    0.30
  -1   8   1    0.00    0.50
  -1   8   1    0.30    0.60
  -1   8   1    0.50    0.60
   0  -8  -1   84.39    3.30
   0  -8  -1   76.29    2.50
   0   8   1   82.29    2.10
   0   8   1   74.49    2.20
  -1  -8  -1  173.48    4.80
  -1  -8  -1  169.68    4.40
   1   8   1  163.08    3.60
   1   8   1  164.78    3.50
  -2  -8  -1  139.09    4.30
  -2  -8  -1  142.79    4.20
   2   8   1  148.29    3.40
   2   8   1  146.39    3.40
  -3  -8  -1    5.60    1.20
  -3  -8  -1    4.10    1.80
   3   8   1    3.50    0.90
   3   8   1    4.30    0.80
  -4  -8  -1    7.60    2.20
  -4  -8  -1   13.00    1.70
   4   8   1   10.40    1.30
   4   8   1    9.90    1.20
  -5  -8  -1   14.50    2.90
   5   8   1   23.90    1.90
  -6   9   1    2.50    1.20
   5  -9  -1   68.89    3.60
  -5   9   1   81.19    3.40
   4  -9  -1    3.30    1.40
  -4   9   1    6.30    1.20
  -4   9   1    5.30    0.90
   3  -9  -1    1.30    1.30
  -3   9   1    4.10    0.90
  -3   9   1    3.30    0.80
   2  -9  -1    1.20    1.30
  -2   9   1    1.90    0.80
  -2   9   1    1.20    0.60
  -2   9   1    1.80    0.80
   1  -9  -1   41.80    2.90
  -1   9   1   39.40    1.80
  -1   9   1   39.20    1.50
  -1   9   1   42.80    1.90
   0  -9  -1    5.10    1.60
   0  -9  -1    6.60    1.10
   0   9   1    5.60    0.90
   0   9   1    5.40    0.90
  -1  -9  -1   88.39    3.20
  -1  -9  -1   91.59    3.60
   1   9   1   88.19    2.70
   1   9   1   89.49    2.50
  -2  -9  -1   32.90    2.60
  -2  -9  -1   39.60    2.70
   2   9   1   38.10    1.80
   2   9   1   36.90    1.80
  -3  -9  -1  102.69    3.70
  -3  -9  -1  100.89    4.20
   3   9   1  105.09    3.10
   3   9   1  103.09    3.00
  -4  -9  -1   29.50    3.20
   4   9   1   36.50    2.10
   4   9   1   36.60    1.90
   5 -10  -1   17.40    2.50
  -5  10   1   26.70    2.20
   4 -10  -1    3.10    1.60
  -4  10   1    5.40    1.20
  -4  10   1    5.10    1.00
   3 -10  -1    0.00    1.40
  -3  10   1    0.80    0.80
  -3  10   1    1.50    0.80
   2 -10  -1   25.20    2.70
  -2  10   1   24.50    1.70
  -2  10   1   26.50    1.70
   1 -10  -1   12.30    1.90
  -1  10   1   12.50    1.30
  -1  10   1   12.50    1.10
  -1  10   1   15.00    1.50
   0 -10  -1    1.90    1.30
   0 -10  -1    0.80    0.90
   0  10   1    1.80    0.80
   0  10   1    1.30    0.80
  -1 -10  -1    6.70    1.50
  -1 -10  -1    6.80    1.60
   1  10   1    6.60    1.00
   1  10   1    6.80    1.00
  -2 -10  -1    5.40    1.50
   2  10   1    3.50    0.90
   2  10   1    4.10    1.10
  -3 -10  -1    1.70    1.10
   3  10   1    1.30    0.80
   3  10   1    1.50    1.00
   4  10   1   39.80    2.30
   4  10   1   40.60    2.10
   4 -11  -1    4.00    1.90
   3 -11  -1   11.90    2.10
  -3  11   1   18.50    1.60
   2 -11  -1   36.60    3.20
  -2  11   1   38.00    2.00
   1 -11  -1   51.39    3.20
  -1  11   1   54.19    2.00
  -1  11   1   56.59    2.40
   0 -11  -1    2.00    1.50
   0  11   1    1.60    0.80
   0  11   1    2.00    0.90
  -1 -11  -1   47.70    3.20
   1  11   1   51.79    2.30
   1  11   1   48.70    2.20
  -2 -11  -1   16.80    2.40
   2  11   1   17.40    1.60
   2  11   1   16.20    1.60
  -3 -11  -1    6.20    1.50
   3  11   1    7.70    1.20
   3  11   1    4.70    1.20
  -4  12   1    1.30    0.90
   3 -12  -1    1.50    1.90
  -2  12   1   24.30    1.90
   1 -12  -1    0.00    1.60
  -1  12   1    1.50    0.90
   0 -12  -1    1.40    1.60
   0  12   1    1.30    0.90
   0  12   1    2.30    0.90
  -1 -12  -1    6.40    1.80
   1  12   1    7.70    1.20
   1  12   1    9.50    1.30
  -2 -12  -1    6.70    1.80
   2  12   1    6.00    1.30
   2  12   1    5.80    1.20
   3 -13  -1    0.00    2.20
  -3  13   1    8.70    1.40
   2 -13  -1    0.00    2.00
  -2  13   1    3.60    1.10
   1 -13  -1    4.40    2.10
  -1  13   1    8.80    1.40
   0 -13  -1    0.50    1.80
   0  13   1    1.60    0.90
   0  13   1    2.10    1.00
  -1 -13  -1    0.20    1.70
   1  13   1    2.80    1.10
   1  13   1    1.80    1.00
   0  14  -2    2.10    1.10
   0  14  -2    4.30    1.20
   0 -14   2    4.10    2.00
  -1  14  -2   10.70    1.50
   1 -14   2    5.80    2.20
   2  13  -2    6.20    1.40
   2  13  -2    8.30    1.30
  -2 -13   2    6.10    1.80
   1  13  -2    4.70    1.30
   1  13  -2    4.70    1.10
  -1 -13   2    6.50    1.90
   0  13  -2    2.50    1.10
   0  13  -2    0.30    1.00
   0 -13   2    1.00    1.60
  -1  13  -2    0.60    1.00
   1 -13   2    0.00    1.60
  -2  13  -2   11.50    1.60
   2 -13   2    4.70    2.10
  -3  13  -2    2.10    1.10
   3  12  -2   87.99    3.10
   3  12  -2   83.19    3.20
  -3 -12   2   85.59    4.10
   2  12  -2   15.60    1.60
   2  12  -2   10.80    1.50
  -2 -12   2   11.70    1.90
   1  12  -2    1.30    0.90
   1  12  -2    0.00    0.90
  -1 -12   2    2.40    1.50
   0  12  -2   10.50    1.30
   0  12  -2    9.20    1.30
   0 -12   2   11.60    2.00
  -1  12  -2    0.00    0.90
   1 -12   2    0.00    1.50
  -2  12  -2    5.30    1.20
   2 -12   2    2.40    1.70
  -3  12  -2    1.70    1.10
  -4  12  -2    1.60    1.10
   4  11  -2    0.50    1.10
  -4 -11   2    3.00    1.30
   3  11  -2   21.30    1.70
   3  11  -2   21.60    2.00
  -3 -11   2   24.40    2.50
   2  11  -2    7.10    1.10
   2  11  -2    6.80    1.30
  -2 -11   2    7.40    1.60
   1  11  -2   12.20    1.50
   1  11  -2   11.90    1.40
  -1 -11   2   13.10    2.00
   0  11  -2    1.40    0.90
   0 -11   2    1.80    1.60
  -1  11  -2    1.00    0.90
   1 -11   2    2.80    1.60
  -2  11  -2    2.30    1.00
   2 -11   2    2.70    1.60
  -3  11  -2    1.00    1.00
   3 -11   2    0.00    1.40
  -4  11  -2    0.70    1.00
   4  10  -2   10.10    1.50
  -4 -10   2   14.60    2.10
   3  10  -2   28.40    2.00
   3  10  -2   29.80    1.70
  -3 -10   2   31.90    2.60
   2  10  -2   58.99    2.30
   2  10  -2   56.49    2.30
  -2 -10   2   58.59    3.10
   1  10  -2   17.70    1.50
   1  10  -2   15.30    1.50
  -1 -10   2   19.10    2.40
   0  10  -2  138.99    2.90
   0  10  -2  134.69    3.40
   0 -10   2  137.09    4.60
   0 -10   2  136.39    2.90
  -1  10  -2    0.30    0.80
   1 -10   2    1.00    1.40
   1 -10   2    0.70    0.50
  -2  10  -2    1.00    0.90
   2 -10   2    0.90    1.40
   2 -10   2    0.40    0.50
  -3  10  -2    4.00    1.10
   3 -10   2    3.30    0.80
   3 -10   2    2.30    1.50
  -4  10  -2    9.40    1.30
   4 -10   2   10.80    1.40
   5 -10   2    1.50    1.00
   5   9  -2   10.10    1.50
  -5  -9   2    8.60    1.40
   4   9  -2    3.30    1.10
   4   9  -2    2.20    0.90
  -4  -9   2    5.70    1.30
   3   9  -2    0.20    0.90
   3   9  -2    1.30    0.70
   3   9  -2    0.30    0.60
  -3  -9   2    1.10    1.00
   2   9  -2    0.40    0.90
   2   9  -2    1.00    0.50
   2   9  -2    1.00    0.70
  -2  -9   2    0.90    1.00
   1   9  -2   34.20    1.70
   1   9  -2   35.40    1.40
  -1  -9   2   38.10    2.80
   0   9  -2  266.67    5.10
   0  -9   2  263.47    6.40
   0  -9   2  256.17    4.40
  -1   9  -2  102.79    2.90
   1  -9   2  100.39    2.40
   1  -9   2  105.49    3.90
  -2   9  -2   91.69    2.80
   2  -9   2   91.59    3.70
   2  -9   2   91.49    2.40
  -3   9  -2    4.20    0.90
  -3   9  -2    5.10    1.00
   3  -9   2    3.80    1.40
   3  -9   2    3.90    0.80
  -4   9  -2    1.50    0.80
  -4   9  -2    0.70    0.90
   4  -9   2    0.00    1.30
   4  -9   2    1.20    0.80
  -5   9  -2    3.50    1.10
   5  -9   2    2.20    1.00
   5   8  -2    4.30    1.10
   5   8  -2    2.90    1.00
  -5  -8   2    6.10    1.20
   4   8  -2    1.40    0.90
   4   8  -2    0.70    0.50
   4   8  -2    0.20    0.70
  -4  -8   2    1.20    0.90
   3   8  -2   16.50    1.20
   3   8  -2   16.10    1.20
   3   8  -2   16.80    1.50
  -3  -8   2   18.00    1.90
   2   8  -2   38.90    1.90
   2   8  -2   41.50    1.50
   2   8  -2   41.30    1.70
  -2  -8   2   34.90    2.30
   1   8  -2   47.70    1.80
   1   8  -2   48.90    1.50
  -1  -8   2   49.30    2.60
   0   8  -2    0.00    0.70
   0  -8   2    0.20    1.10
   0  -8   2    0.20    0.40
   0  -8   2    0.00    0.50
  -1   8  -2   70.99    2.30
  -1   8  -2   70.49    2.00
   1  -8   2   74.29    3.10
   1  -8   2   72.39    1.90
  -2   8  -2    9.20    1.00
  -2   8  -2    9.30    1.20
   2  -8   2    8.80    1.00
   2  -8   2   11.00    1.60
  -3   8  -2    6.50    1.10
  -3   8  -2    9.30    1.10
   3  -8   2    8.40    1.10
   3  -8   2    8.20    1.40
  -4   8  -2    3.70    1.00
  -4   8  -2    2.60    1.00
   4  -8   2    2.50    0.80
   4  -8   2    0.50    1.20
  -5   8  -2    2.60    1.00
   5  -8   2    1.10    0.90
   6  -8   2    9.40    1.50
   6   7  -2   19.90    2.00
   6   7  -2   25.20    2.00
   5   7  -2    3.00    1.00
   5   7  -2    5.50    1.10
  -5  -7   2    5.60    1.10
  -5  -7   2    5.80    1.50
   4   7  -2    0.10    0.80
   4   7  -2    0.50    0.50
   4   7  -2    1.50    0.80
  -4  -7   2    1.10    0.80
  -4  -7   2    0.30    1.20
   3   7  -2   32.80    1.50
   3   7  -2   34.40    1.80
   3   7  -2   32.10    1.40
  -3  -7   2   32.30    2.10
  -3  -7   2   35.00    2.20
   2   7  -2   35.90    1.50
   2   7  -2   36.60    1.70
   2   7  -2   35.20    1.30
  -2  -7   2   35.10    2.00
  -2  -7   2   34.30    2.20
   1   7  -2  455.35    7.20
   1   7  -2  453.25    6.80
  -1  -7   2  462.15    8.80
  -1  -7   2  440.16    8.20
   0   7  -2   78.39    2.10
   0  -7   2   79.89    1.80
   0  -7   2   79.19    2.90
   0  -7   2   75.19    1.90
  -1   7  -2    2.50    0.80
  -1   7  -2    2.70    0.50
   1  -7   2    3.00    1.20
   1  -7   2    2.60    0.50
  -2   7  -2    0.70    0.50
  -2   7  -2    0.80    0.80
   2  -7   2    2.30    1.10
   2  -7   2    0.10    0.50
  -3   7  -2   22.20    1.50
  -3   7  -2   22.80    1.60
   3  -7   2   23.00    1.40
   3  -7   2   21.60    2.00
  -4   7  -2    1.70    0.90
  -4   7  -2    0.60    0.80
   4  -7   2    1.20    0.80
   4  -7   2    0.00    1.00
  -5   7  -2    1.40    1.00
  -5   7  -2    0.30    0.90
   5  -7   2    0.30    0.90
   6  -7   2    7.90    1.50
   6   6  -2    1.70    1.10
   6   6  -2    2.10    0.90
  -6  -6   2    3.90    1.50
   5   6  -2   18.80    1.50
   5   6  -2   16.30    1.60
  -5  -6   2   18.30    1.60
  -5  -6   2   20.70    2.20
   4   6  -2   14.00    1.30
   4   6  -2   15.00    1.30
   4   6  -2   15.30    1.00
  -4  -6   2   15.50    1.50
  -4  -6   2   14.60    1.90
   3   6  -2   24.80    1.30
   3   6  -2   24.30    1.10
   3   6  -2   23.10    1.50
  -3  -6   2   23.70    2.10
  -3  -6   2   23.40    1.80
   2   6  -2   84.39    2.20
   2   6  -2   79.59    2.00
   2   6  -2   82.19    2.00
  -2  -6   2   80.09    2.70
  -2  -6   2   81.49    2.50
   1   6  -2  113.09    2.20
   1   6  -2  112.79    2.50
  -1  -6   2  110.69    2.60
  -1  -6   2  114.29    3.20
   0   6  -2   26.50    1.30
   0  -6   2   27.70    1.80
   0  -6   2   25.90    0.90
   0  -6   2   25.20    0.90
  -1   6  -2   45.50    1.30
  -1   6  -2   46.00    1.60
   1  -6   2   45.90    2.10
   1  -6   2   46.70    1.40
  -2   6  -2   82.59    2.30
  -2   6  -2   84.29    2.30
   2  -6   2   81.39    2.00
   2  -6   2   84.69    2.80
  -3   6  -2   45.10    2.00
  -3   6  -2   44.50    1.90
   3  -6   2   45.50    2.20
   3  -6   2   47.00    1.70
  -4   6  -2    8.30    1.10
  -4   6  -2    9.80    1.50
   4  -6   2    7.30    1.10
   4  -6   2    6.30    1.20
  -5   6  -2    7.70    1.50
   5  -6   2    5.60    1.10
  -6   6  -2    2.70    1.30
   6  -6   2    0.00    1.00
   6   5  -2    6.80    1.30
   6   5  -2    7.40    1.10
  -6  -5   2    9.40    1.80
   5   5  -2    0.20    0.70
   5   5  -2    0.70    0.80
  -5  -5   2    0.80    0.70
  -5  -5   2    1.80    1.30
   4   5  -2    4.20    0.60
   4   5  -2    4.50    0.80
   4   5  -2    3.90    0.90
  -4  -5   2    5.10    1.30
  -4  -5   2    4.30    0.90
   3   5  -2   62.79    1.60
   3   5  -2   64.29    1.90
   3   5  -2   65.29    1.90
  -3  -5   2   62.09    2.30
  -3  -5   2   64.59    2.60
   2   5  -2  177.18    3.20
   2   5  -2  180.58    3.20
  -2  -5   2  172.48    4.00
  -2  -5   2  177.08    4.00
   1   5  -2  794.02   11.00
   1   5  -2  807.92   11.40
  -1  -5   2  782.72   11.00
  -1  -5   2  800.62   13.40
  -1  -5   2  804.32   13.80
   0   5  -2  466.75    8.10
   0   5  -2  478.45    7.20
   0  -5   2  477.75    6.80
   0  -5   2  475.35    8.50
  -1   5  -2  155.68    3.10
   1  -5   2  157.88    2.80
   1  -5   2  156.98    3.60
  -2   5  -2   45.70    1.60
  -2   5  -2   44.70    1.60
   2  -5   2   46.00    1.80
   2  -5   2   43.20    1.40
  -3   5  -2   66.29    2.50
  -3   5  -2   70.19    2.10
   3  -5   2   70.99    2.30
   3  -5   2   65.89    2.00
  -4   5  -2    0.60    1.10
  -4   5  -2    1.00    0.80
   4  -5   2    1.00    0.80
   4  -5   2    1.00    0.80
  -5   5  -2   40.10    2.60
   5  -5   2   39.00    2.10
  -6   5  -2    3.10    1.40
   6  -5   2    0.90    1.00
   7   4  -2    2.10    1.20
  -7  -4   2    6.30    1.80
   6   4  -2    1.20    0.70
   6   4  -2    0.00    0.90
  -6  -4   2    1.90    1.30
   5   4  -2   19.10    1.30
   5   4  -2   20.30    1.50
  -5  -4   2   21.00    1.50
  -5  -4   2   21.90    2.10
   4   4  -2    2.50    0.70
   4   4  -2    2.10    0.40
   4   4  -2    2.30    0.70
  -4  -4   2    1.50    0.70
  -4  -4   2    1.90    1.20
   3   4  -2   19.70    1.10
   3   4  -2   19.40    0.80
  -3  -4   2   19.70    1.60
  -3  -4   2   19.20    1.30
   2   4  -2  651.93    9.30
   2   4  -2  657.53    9.30
  -2  -4   2  661.93   11.20
  -2  -4   2  656.93   11.70
   1   4  -2  627.84    8.90
   1   4  -2  647.74    9.10
  -1  -4   2  640.54   10.90
  -1  -4   2  632.84    8.90
  -1  -4   2  643.04   10.70
   0   4  -2  127.59    2.40
   0   4  -2  127.69    2.30
   0  -4   2  129.89    3.00
   0  -4   2  132.69    2.30
  -1   4  -2   18.00    0.90
  -1   4  -2   17.60    0.80
   1  -4   2   19.10    1.20
   1  -4   2   17.90    0.80
  -2   4  -2  533.45    9.50
  -2   4  -2  520.55    7.80
   2  -4   2  506.95    7.70
   2  -4   2  523.35    8.90
  -3   4  -2  143.79    2.90
  -3   4  -2  138.29    3.80
   3  -4   2  140.29    3.00
   3  -4   2  144.09    3.20
  -4   4  -2   51.99    2.70
  -4   4  -2   53.49    1.90
   4  -4   2   53.59    2.00
   4  -4   2   53.29    2.00
  -5   4  -2    1.80    1.20
   5  -4   2    1.20    0.90
  -6   4  -2    3.80    1.40
   6  -4   2    2.50    1.10
   7  -4   2    2.80    1.40
   7   3  -2    0.00    1.10
  -7  -3   2    4.30    1.60
   6   3  -2    0.40    0.60
   6   3  -2    0.00    0.90
  -6  -3   2    1.70    1.30
  -6  -3   2    0.80    0.60
   5   3  -2   47.30    2.00
   5   3  -2   47.60    1.70
  -5  -3   2   45.70    2.60
  -5  -3   2   47.40    2.00
   4   3  -2  116.09    2.80
   4   3  -2  111.09    2.50
   4   3  -2  112.99    2.10
  -4  -3   2  115.39    3.10
  -4  -3   2  111.59    3.60
   3   3  -2  780.72   10.60
   3   3  -2  783.42   10.60
   3   3  -2  764.92   11.00
  -3  -3   2  751.52   12.80
  -3  -3   2  763.22   13.90
   2   3  -2  418.36    6.10
   2   3  -2  413.66    6.00
  -2  -3   2  410.36    7.30
  -2  -3   2  418.96    7.70
   1   3  -2    1.00    0.40
   1   3  -2    0.90    0.30
  -1  -3   2    0.60    0.30
  -1  -3   2    0.00    0.50
  -1  -3   2    0.60    0.40
   0   3  -2  783.72   11.90
   0  -3   2  803.62   11.40
   0  -3   2  785.02   13.00
  -1   3  -2  202.98    3.40
  -1   3  -2  201.88    3.90
   1  -3   2  201.98    3.80
   1  -3   2  205.98    3.30
  -2   3  -2  628.14   11.10
  -2   3  -2  621.64    8.90
   2  -3   2  597.04    8.80
   2  -3   2  616.24   10.00
  -3   3  -2   47.50    1.50
  -3   3  -2   43.60    2.10
   3  -3   2   47.80    1.60
   3  -3   2   46.50    1.50
  -4   3  -2    1.20    1.20
  -4   3  -2    2.80    0.70
   4  -3   2    2.10    0.80
   4  -3   2    2.70    0.60
  -5   3  -2    5.60    1.40
   5  -3   2    6.90    1.20
  -6   3  -2    3.40    1.50
   6  -3   2    1.00    1.10
  -7   3  -2    6.80    1.80
   7  -3   2    2.10    1.30
   7   2  -2    0.30    1.10
  -7  -2   2    3.90    1.50
   6   2  -2    0.90    0.60
   6   2  -2    0.00    0.90
  -6  -2   2    1.00    0.60
  -6  -2   2    1.10    1.20
   5   2  -2   75.29    2.50
   5   2  -2   76.19    2.10
  -5  -2   2   73.79    2.50
  -5  -2   2   72.99    3.10
   4   2  -2    1.60    0.60
   4   2  -2    1.40    0.30
   4   2  -2    1.30    0.60
  -4  -2   2    1.70    0.60
  -4  -2   2    0.30    1.00
   3   2  -2    1.60    0.50
   3   2  -2    1.50    0.40
   3   2  -2    1.90    0.20
  -3  -2   2    1.70    0.80
  -3  -2   2    2.40    0.50
   2   2  -2  191.28    3.20
   2   2  -2  192.38    2.90
  -2  -2   2  194.88    4.00
  -2  -2   2  194.58    3.80
   1   2  -2    0.30    0.30
   1   2  -2    0.10    0.20
  -1  -2   2    0.00    0.30
  -1  -2   2    0.00    0.40
   0   2  -2  839.52   14.20
   0   2  -2  823.52   12.00
   0  -2   2  822.52   13.20
   0  -2   2  812.32   14.00
   0  -2   2  845.62   12.10
  -1   2  -2 9034.60  180.98
  -1   2  -2 8861.61  157.38
   1  -2   2 9033.00  158.68
   1  -2   2 9134.59  164.88
  -2   2  -2  470.45    6.90
  -2   2  -2  474.35    8.80
   2  -2   2  469.95    7.60
   2  -2   2  466.75    6.90
  -3   2  -2   33.00    2.00
  -3   2  -2   32.40    1.20
   3  -2   2   33.10    1.10
   3  -2   2   33.00    1.40
  -4   2  -2    7.80    1.60
  -4   2  -2    7.50    0.80
   4  -2   2    7.60    1.10
   4  -2   2    6.60    0.80
  -5   2  -2    6.40    1.60
   5  -2   2    6.00    1.10
  -6   2  -2   21.10    2.50
   6  -2   2   18.60    1.90
  -7   2  -2    5.80    1.90
   7  -2   2    3.40    1.40
   7   1  -2    0.70    1.10
  -7  -1   2    4.00    1.60
   6   1  -2   12.70    1.40
   6   1  -2   13.70    1.30
  -6  -1   2   16.60    2.20
  -6  -1   2   14.20    1.30
   5   1  -2   16.10    1.50
   5   1  -2   16.20    1.00
  -5  -1   2   16.30    2.00
  -5  -1   2   17.10    1.20
   4   1  -2    3.10    0.60
   4   1  -2    3.00    0.30
   4   1  -2    3.50    0.70
  -4  -1   2    2.90    1.00
  -4  -1   2    2.80    0.60
   3   1  -2   36.10    0.70
   3   1  -2   37.80    1.10
   3   1  -2   37.00    1.30
  -3  -1   2   35.70    1.70
  -3  -1   2   37.00    1.40
   2   1  -2 3179.78   44.70
   2   1  -2 3216.98   48.00
  -2  -1   2 3092.79   56.39
   1   1  -2  233.48    3.30
   1   1  -2  233.08    3.40
  -1  -1   2  227.78    4.00
  -1  -1   2  235.38    4.20
   0   1  -2  537.45    8.00
   0   1  -2  556.14    9.30
   0  -1   2  538.05    7.30
   0  -1   2  548.15    9.00
   0  -1   2  541.95    8.10
  -1   1  -2 6821.62  123.09
  -1   1  -2 6538.85  114.29
   1  -1   2 6850.61  116.39
   1  -1   2 6381.76  108.29
   1  -1   2 7063.19  124.69
  -2   1  -2   54.39    2.10
  -2   1  -2   51.99    1.30
   2  -1   2   53.49    1.40
   2  -1   2   53.59    1.30
   2  -1   2   53.29    1.10
  -3   1  -2  411.36    6.40
  -3   1  -2  432.16    8.70
   3  -1   2  426.06    6.40
   3  -1   2  440.76    6.70
   3  -1   2  417.56    6.90
  -4   1  -2   69.99    3.20
  -4   1  -2   70.19    1.80
   4  -1   2   70.79    1.80
   4  -1   2   74.69    2.30
   4  -1   2   72.69    1.90
  -5   1  -2    3.50    1.60
   5  -1   2    4.40    1.10
  -6   1  -2    1.90    1.50
   6  -1   2    0.60    1.00
  -7   1  -2    3.30    1.80
   7  -1   2    0.50    1.20
   7   0  -2    5.10    1.30
  -7   0   2    7.70    1.80
   6   0  -2  111.19    3.30
   6   0  -2  116.79    3.40
  -6   0   2  117.29    4.30
  -6   0   2  119.59    3.40
   5   0  -2    3.80    0.90
   5   0  -2    6.50    0.90
   5   0  -2    6.00    0.70
  -5   0   2    5.80    0.80
  -5   0   2    6.00    1.40
   4   0  -2    2.00    0.70
   4   0  -2    2.30    0.50
  -4   0   2    1.80    0.50
  -4   0   2    1.90    1.10
   3   0  -2   87.49    1.60
  -3   0   2   86.89    2.20
  -3   0   2   84.49    2.50
   2   0  -2  851.81   12.00
   2   0  -2  840.32   11.50
  -2   0   2  884.51   13.60
  -2   0   2  825.22   15.90
   1   0  -2  676.23    9.70
  -1   0   2  681.33   11.50
  -1   0   2  663.43   12.50
  -1   0   2  651.53    9.40
   0   0  -2 3011.80   52.29
   0   0   2 2935.61   42.10
   0   0   2 3142.29   41.10
   0   0   2 3142.49   61.59
  -1   0  -2  182.78    3.80
   1   0   2  179.38    2.80
   1   0   2  175.98    2.80
  -2   0  -2  802.92   13.00
  -2   0  -2  814.92   14.70
   2   0   2  812.32   13.10
   2   0   2  843.52   11.40
   2   0   2  830.32   11.40
  -3   0  -2  227.38    4.00
  -3   0  -2  237.98    5.60
   3   0   2  230.48    4.10
   3   0   2  235.68    3.90
   3   0   2  223.18    4.00
  -4   0  -2  111.99    3.90
  -4   0  -2  111.39    2.40
  -4   0  -2  106.89    2.30
   4   0   2  115.09    2.90
   4   0   2  113.39    2.50
  -5   0  -2   18.40    2.50
   5   0   2   17.40    1.60
  -6   0  -2    4.40    1.70
   6   0   2    4.20    1.20
  -7   0  -2   29.30    3.10
   7   0   2   25.60    2.40
   7  -1  -2    5.30    1.40
  -7   1   2   10.40    1.90
   6  -1  -2  192.08    4.50
   6  -1  -2  182.88    4.60
  -6   1   2  192.58    5.70
  -6   1   2  186.78    4.60
   5  -1  -2   26.70    1.50
   5  -1  -2   28.00    1.70
  -5   1   2   28.30    2.20
  -5   1   2   28.80    1.50
   4  -1  -2   30.10    0.90
   4  -1  -2   31.60    1.50
   4  -1  -2   30.00    1.40
  -4   1   2   29.50    1.90
  -4   1   2   30.40    1.40
   3  -1  -2  946.61   15.40
   3  -1  -2  943.31   13.10
   3  -1  -2  957.10   12.50
  -3   1   2  950.90   16.80
  -3   1   2  957.40   15.30
   2  -1  -2   18.30    0.40
   2  -1  -2   19.20    0.70
  -2   1   2   17.10    1.00
  -2   1   2   17.80    0.40
  -2   1   2   16.40    0.80
   1  -1  -2  545.45    7.70
   1  -1  -2  542.15    8.70
  -1   1   2  548.55   10.10
  -1   1   2  528.55    8.90
  -1   1   2  542.85    7.70
   0  -1  -2  231.88    3.80
   0   1   2  231.38    3.40
   0   1   2  234.38    3.10
   0   1   2  226.88    4.30
   0   1   2  225.98    3.20
  -1  -1  -2  771.72   13.30
  -1  -1  -2  760.72   12.40
   1   1   2  750.52   10.50
   1   1   2  758.02   11.00
   1   1   2  750.82   10.30
  -2  -1  -2   95.99    1.80
  -2  -1  -2   98.29    2.90
   2   1   2   95.29    2.00
   2   1   2   92.49    1.90
   2   1   2   94.69    1.90
  -3  -1  -2    7.00    1.50
  -3  -1  -2    6.80    0.50
   3   1   2    7.30    0.70
   3   1   2    5.80    0.70
   3   1   2    7.40    0.90
  -4  -1  -2   75.59    3.60
   4   1   2   71.19    2.00
   4   1   2   75.29    2.30
   4   1   2   76.09    1.90
  -5  -1  -2  100.89    4.20
   5   1   2  100.59    2.90
  -6  -1  -2    4.50    1.80
   6   1   2    2.80    1.10
   7  -2  -2    4.20    1.40
  -7   2   2    7.60    1.80
   6  -2  -2    9.00    1.30
   6  -2  -2   11.50    1.40
  -6   2   2   13.70    2.20
   5  -2  -2    9.00    1.10
   5  -2  -2    9.00    1.10
  -5   2   2    7.60    1.30
  -5   2   2    9.60    1.10
   4  -2  -2    3.00    0.60
   4  -2  -2    2.60    0.70
  -4   2   2    2.70    1.00
  -4   2   2    2.70    0.60
  -4   2   2    3.40    0.40
   3  -2  -2  283.17    4.50
   3  -2  -2  273.47    5.20
  -3   2   2  273.97    5.20
  -3   2   2  269.07    5.70
  -3   2   2  270.77    3.90
   2  -2  -2  493.65    8.30
   2  -2  -2  504.35    6.90
  -2   2   2  485.95    8.90
  -2   2   2  480.95    6.70
  -2   2   2  490.35    8.20
   1  -2  -2   18.20    0.50
  -1   2   2   15.20    0.60
  -1   2   2   15.30    0.40
  -1   2   2   15.90    0.80
   0  -2  -2 2130.39   31.50
   0  -2  -2 2089.69   34.30
   0   2   2 2018.60   30.10
   0   2   2 2014.40   28.30
   0   2   2 2098.39   37.20
   0   2   2 2152.68   27.30
  -1  -2  -2  103.19    2.60
  -1  -2  -2  100.39    2.10
   1   2   2  100.49    1.90
   1   2   2  101.39    1.90
   1   2   2  100.99    1.70
  -2  -2  -2    0.70    0.40
  -2  -2  -2    0.40    0.90
   2   2   2    0.60    0.40
   2   2   2    1.40    0.40
   2   2   2    0.50    0.30
  -3  -2  -2  627.34   12.20
  -3  -2  -2  620.14   10.10
   3   2   2  642.14    9.20
   3   2   2  628.14    9.20
   3   2   2  604.34    8.90
  -4  -2  -2    1.50    1.50
   4   2   2    1.10    0.60
   4   2   2    1.50    0.80
   4   2   2    0.80    0.60
  -5  -2  -2   32.70    3.00
   5   2   2   33.10    1.90
   5   2   2   32.90    1.60
  -6  -2  -2   20.80    2.90
   6   2   2   16.00    1.80
   7  -3  -2    0.60    1.20
  -7   3   2    4.00    1.50
   6  -3  -2    0.00    0.70
   6  -3  -2    0.70    1.00
  -6   3   2    2.90    1.30
   5  -3  -2    9.00    1.20
   5  -3  -2    6.90    1.00
  -5   3   2    8.00    1.50
   4  -3  -2    0.40    0.70
   4  -3  -2    0.00    0.50
  -4   3   2    0.00    0.80
  -4   3   2    0.50    0.30
   3  -3  -2  400.66    6.00
   3  -3  -2  391.46    7.10
  -3   3   2  384.66    7.70
  -3   3   2  381.96    5.60
   2  -3  -2  321.57    4.60
   2  -3  -2  317.87    5.70
  -2   3   2  311.77    6.10
  -2   3   2  310.47    4.60
   1  -3  -2  250.47    3.40
   1  -3  -2  250.87    4.60
  -1   3   2  252.37    3.40
  -1   3   2  243.18    3.80
  -1   3   2  248.18    4.90
   0  -3  -2 1205.68   20.20
   0   3   2 1129.89   17.10
   0   3   2 1164.58   16.60
   0   3   2 1196.28   21.60
  -1  -3  -2  851.51   13.50
  -1  -3  -2  841.72   14.80
   1   3   2  836.62   11.70
   1   3   2  832.92   11.40
   1   3   2  828.52   11.20
  -2  -3  -2  138.99    3.70
  -2  -3  -2  134.29    2.90
   2   3   2  135.09    2.60
   2   3   2  132.59    2.60
   2   3   2  135.89    2.50
  -3  -3  -2   51.29    1.60
  -3  -3  -2   49.90    2.90
   3   3   2   48.50    1.60
   3   3   2   49.10    1.50
   3   3   2   48.60    1.60
  -4  -3  -2    0.00    1.70
   4   3   2    0.20    0.70
   4   3   2    0.50    0.60
   4   3   2    0.00    0.50
  -5  -3  -2    1.80    1.70
   5   3   2    0.40    0.70
   5   3   2    0.20    0.80
  -6  -3  -2    2.30    1.80
   6   3   2    1.90    1.00
   6   3   2    1.60    0.80
   7  -4  -2    0.50    1.10
  -7   4   2    3.40    1.50
   6  -4  -2    5.60    1.20
   6  -4  -2    5.00    1.10
  -6   4   2    6.40    1.40
   5  -4  -2   16.20    1.50
   5  -4  -2   14.70    1.40
  -5   4   2   17.40    1.80
   4  -4  -2  466.65    8.50
   4  -4  -2  456.15    7.20
  -4   4   2  445.56    6.70
  -4   4   2  457.15    9.30
   3  -4  -2  146.79    2.80
   3  -4  -2  143.09    3.40
  -3   4   2  143.69    2.60
   2  -4  -2   88.69    1.70
   2  -4  -2   90.39    2.30
  -2   4   2   88.79    2.40
  -2   4   2   87.19    1.80
  -2   4   2   85.19    1.30
   1  -4  -2  240.78    3.30
  -1   4   2  239.48    3.40
  -1   4   2  243.68    3.90
  -1   4   2  234.78    4.80
   0  -4  -2  408.96    7.60
   0  -4  -2  401.46    7.20
   0   4   2  409.66    7.60
   0   4   2  404.56    5.70
   0   4   2  407.96    6.10
  -1  -4  -2    9.60    1.20
  -1  -4  -2    9.40    1.10
   1   4   2    9.60    0.50
   1   4   2    9.10    0.70
   1   4   2    9.70    0.80
  -2  -4  -2    5.80    1.20
  -2  -4  -2    4.10    0.70
   2   4   2    5.60    0.70
   2   4   2    5.70    0.70
   2   4   2    4.90    0.60
  -3  -4  -2   23.90    2.50
  -3  -4  -2   22.60    1.30
   3   4   2   21.90    1.20
   3   4   2   21.70    1.20
   3   4   2   22.50    1.30
  -4  -4  -2   56.29    3.40
   4   4   2   52.99    2.00
   4   4   2   55.19    2.00
   4   4   2   56.99    1.80
  -5  -4  -2    3.20    1.90
   5   4   2    5.60    1.00
   5   4   2    3.70    1.00
  -6  -4  -2    1.20    1.90
   6   4   2    0.00    0.90
   6   4   2    1.70    0.90
   7  -5  -2    2.60    1.30
  -7   5   2    5.00    1.60
   6  -5  -2   33.30    2.30
   6  -5  -2   37.90    2.20
  -6   5   2   40.80    2.70
   5  -5  -2    8.70    1.20
   5  -5  -2   10.10    1.20
  -5   5   2   10.20    1.60
   4  -5  -2   28.00    1.40
   4  -5  -2   30.50    1.80
  -4   5   2   28.70    1.90
  -4   5   2   28.40    1.20
   3  -5  -2  177.78    4.10
   3  -5  -2  177.38    3.20
  -3   5   2  175.88    3.20
  -3   5   2  174.18    4.30
   2  -5  -2  682.73    9.30
   2  -5  -2  688.13   11.60
  -2   5   2  664.53   12.30
  -2   5   2  673.03    8.80
  -2   5   2  681.43    9.80
   1  -5  -2  216.58    3.00
  -1   5   2  212.68    4.50
  -1   5   2  210.98    3.70
  -1   5   2  212.38    3.20
   0  -5  -2  389.56    7.50
   0  -5  -2  390.96    7.20
   0   5   2  380.86    6.10
   0   5   2  391.86    5.70
   0   5   2  399.96    7.50
  -1  -5  -2    9.90    1.30
  -1  -5  -2    8.50    1.20
   1   5   2   10.20    0.80
   1   5   2   10.00    0.90
   1   5   2    9.30    0.50
  -2  -5  -2    3.60    0.90
  -2  -5  -2    4.30    1.30
   2   5   2    3.80    0.60
   2   5   2    4.20    0.60
   2   5   2    4.50    0.80
  -3  -5  -2 1022.90   19.00
  -3  -5  -2 1018.10   16.60
   3   5   2  999.80   14.20
   3   5   2  988.60   14.60
   3   5   2  997.90   14.10
  -4  -5  -2   13.00    2.20
   4   5   2   10.00    1.10
   4   5   2   10.50    1.10
   4   5   2   10.90    1.30
  -5  -5  -2    7.50    2.20
   5   5   2    5.00    1.00
   5   5   2    7.50    1.10
  -6  -5  -2    1.70    2.10
   6   5   2    4.30    1.10
   6   5   2    2.20    1.10
   7  -6  -2    3.20    1.30
  -7   6   2    6.70    1.70
   6  -6  -2    0.00    0.90
   6  -6  -2    0.20    0.90
  -6   6   2    2.10    1.20
   5  -6  -2    0.50    0.90
   5  -6  -2    1.20    0.80
  -5   6   2    1.20    1.00
   4  -6  -2   28.80    1.50
   4  -6  -2   27.70    1.90
  -4   6   2   26.60    1.30
  -4   6   2   27.50    1.90
   3  -6  -2    2.10    0.60
   3  -6  -2    2.10    0.80
  -3   6   2    2.10    0.70
  -3   6   2    2.50    0.60
   2  -6  -2 1206.18   16.50
   2  -6  -2 1241.38   19.80
  -2   6   2 1192.48   16.80
  -2   6   2 1169.78   16.20
  -2   6   2 1206.18   21.00
   1  -6  -2   72.39    1.20
   1  -6  -2   73.79    2.50
  -1   6   2   69.09    1.80
  -1   6   2   71.19    1.60
  -1   6   2   70.99    2.20
   0  -6  -2  308.47    6.30
   0  -6  -2  305.57    6.20
   0   6   2  300.87    5.10
   0   6   2  309.27    4.80
  -1  -6  -2  270.37    5.90
  -1  -6  -2  264.07    5.60
   1   6   2  269.87    4.50
   1   6   2  262.37    4.70
   1   6   2  261.87    3.90
  -2  -6  -2   97.29    3.10
  -2  -6  -2  100.99    3.50
   2   6   2   96.39    2.00
   2   6   2   95.29    2.40
   2   6   2   98.09    2.50
  -3  -6  -2  426.26    8.20
  -3  -6  -2  437.36    9.70
   3   6   2  433.76    6.80
   3   6   2  436.96    7.10
   3   6   2  432.26    7.20
  -4  -6  -2    0.70    1.70
   4   6   2    2.50    0.80
   4   6   2    0.90    0.70
   4   6   2    1.30    0.60
  -5  -6  -2    2.70    2.10
   5   6   2    4.40    1.00
   5   6   2    4.30    1.00
   6  -7  -2    1.70    1.00
  -6   7   2    2.10    1.20
   5  -7  -2    0.00    1.00
   5  -7  -2    0.10    0.70
  -5   7   2    0.10    0.90
   4  -7  -2   48.30    1.80
   4  -7  -2   50.39    2.50
  -4   7   2   48.50    1.70
  -4   7   2   47.40    2.30
   3  -7  -2   60.19    1.70
   3  -7  -2   65.69    2.70
  -3   7   2   60.19    2.40
  -3   7   2   60.19    1.90
   2  -7  -2   90.09    1.80
   2  -7  -2   92.99    3.10
  -2   7   2   90.59    2.80
  -2   7   2   91.09    2.30
  -2   7   2   89.49    1.80
   1  -7  -2    1.20    1.00
   1  -7  -2    0.20    0.20
  -1   7   2    0.40    0.60
  -1   7   2    0.10    0.60
  -1   7   2    0.00    0.50
   0  -7  -2   16.50    2.00
   0  -7  -2   14.80    1.40
   0   7   2   15.00    1.00
   0   7   2   16.00    1.10
  -1  -7  -2   58.49    2.40
  -1  -7  -2   56.99    2.60
   1   7   2   55.89    1.80
   1   7   2   56.59    1.80
  -2  -7  -2   79.99    3.40
  -2  -7  -2   78.89    3.10
   2   7   2   78.89    2.40
   2   7   2   75.09    2.30
  -3  -7  -2    3.10    1.70
  -3  -7  -2    3.40    1.00
   3   7   2    4.60    0.80
   3   7   2    4.10    0.90
  -4  -7  -2    0.00    1.80
   4   7   2    2.00    0.90
   4   7   2    1.80    0.70
  -5  -7  -2    2.80    2.30
   5   7   2    7.20    1.30
   6  -8  -2    3.50    1.10
  -6   8   2    4.70    1.40
   5  -8  -2   27.60    2.40
   5  -8  -2   32.10    1.80
  -5   8   2   33.60    2.30
   4  -8  -2   11.70    1.20
   4  -8  -2   10.70    1.60
  -4   8   2   11.30    1.60
  -4   8   2   11.80    1.20
   3  -8  -2    6.70    0.70
   3  -8  -2    6.00    1.30
  -3   8   2    5.60    1.00
  -3   8   2    6.20    0.90
   2  -8  -2   63.69    2.90
  -2   8   2   60.99    2.10
  -2   8   2   59.79    1.60
  -2   8   2   60.99    2.30
   1  -8  -2    7.50    1.30
  -1   8   2    9.70    1.10
  -1   8   2    9.00    0.90
  -1   8   2    8.60    1.00
   0  -8  -2    6.10    1.50
   0  -8  -2    4.20    1.00
   0   8   2    4.00    0.80
   0   8   2    3.50    0.80
  -1  -8  -2   29.00    2.10
  -1  -8  -2   30.30    2.40
   1   8   2   29.10    1.60
   1   8   2   28.60    1.50
  -2  -8  -2    5.80    1.30
  -2  -8  -2    4.90    1.50
   2   8   2    5.10    0.90
   2   8   2    5.80    0.90
  -3  -8  -2    0.30    1.60
  -3  -8  -2    2.00    1.00
   3   8   2    1.80    0.90
   3   8   2    0.90    0.70
  -4  -8  -2   54.29    3.80
   4   8   2   64.69    2.50
   4   8   2   61.69    2.30
   5   8   2   48.60    2.50
  -6   9   2    1.40    1.20
   5  -9  -2    0.00    1.30
  -5   9   2    2.60    1.20
   4  -9  -2   10.40    1.70
  -4   9   2   13.70    1.60
  -4   9   2   13.50    1.30
   3  -9  -2  100.09    3.90
  -3   9   2  102.89    3.40
  -3   9   2  102.49    2.80
   2  -9  -2    0.00    1.20
  -2   9   2    0.20    0.70
  -2   9   2    0.20    0.70
   1  -9  -2    1.00    1.40
  -1   9   2    0.50    0.70
  -1   9   2    1.00    0.60
  -1   9   2    0.30    0.70
   0  -9  -2    0.00    0.80
   0  -9  -2    1.00    1.30
   0   9   2    0.00    0.60
   0   9   2    0.50    0.70
  -1  -9  -2  109.79    3.80
  -1  -9  -2  110.39    3.90
   1   9   2  109.79    2.90
   1   9   2  114.29    3.10
  -2  -9  -2   22.10    2.20
  -2  -9  -2   15.60    2.40
   2   9   2   18.30    1.50
   2   9   2   18.70    1.50
  -3  -9  -2    7.10    2.20
  -3  -9  -2    9.40    1.50
   3   9   2   11.20    1.30
   3   9   2   12.50    1.50
   4   9   2    9.50    1.40
   4   9   2    8.20    1.20
   5 -10  -2    0.00    1.60
  -5  10   2    3.00    1.20
   4 -10  -2   20.00    2.70
  -4  10   2   26.90    1.70
  -4  10   2   24.60    2.10
   3 -10  -2    0.80    1.40
  -3  10   2    2.30    0.80
  -3  10   2    1.90    0.90
   2 -10  -2  135.29    4.70
  -2  10   2  138.99    3.50
  -2  10   2  134.59    4.00
   1 -10  -2    3.50    0.90
   1 -10  -2    1.80    1.50
  -1  10   2    1.50    0.90
  -1  10   2    1.30    0.80
  -1  10   2    1.40    0.60
   0 -10  -2  119.59    3.80
   0 -10  -2  122.29    4.50
   0  10   2  122.49    3.00
   0  10   2  127.19    3.40
  -1 -10  -2   97.89    4.00
  -1 -10  -2   93.69    3.70
   1  10   2   99.89    3.00
   1  10   2   94.99    2.80
  -2 -10  -2    1.60    1.30
  -2 -10  -2    0.00    1.50
   2  10   2    0.90    0.70
   2  10   2    1.10    0.90
  -3 -10  -2   22.70    3.10
  -3 -10  -2   28.30    2.50
   3  10   2   30.20    1.90
   3  10   2   27.60    1.90
   4  10   2    0.80    0.80
   4  10   2    1.60    1.10
  -5  11   2    2.00    1.20
   4 -11  -2    0.00    1.70
  -4  11   2    4.10    1.00
  -4  11   2    3.00    1.20
   3 -11  -2    0.00    1.30
  -3  11   2    1.50    0.90
  -3  11   2    0.10    0.90
   2 -11  -2   15.10    2.10
  -2  11   2   18.30    1.70
  -2  11   2   14.20    1.70
   1 -11  -2   48.80    3.40
   1 -11  -2   48.10    2.40
  -1  11   2   45.90    2.20
  -1  11   2   45.00    1.80
   0 -11  -2    0.50    1.40
   0  11   2    1.50    0.90
   0  11   2    1.80    0.80
  -1 -11  -2    0.60    1.40
   1  11   2    0.30    0.70
   1  11   2    0.10    0.70
  -2 -11  -2    1.60    1.40
   2  11   2    2.30    0.90
   2  11   2    2.70    1.00
  -3 -11  -2    6.80    1.60
   3  11   2    4.50    1.00
   3  11   2    4.80    1.20
  -4  12   2    3.80    1.00
   3 -12  -2    0.90    2.00
  -3  12   2    4.90    1.10
   2 -12  -2    0.00    1.70
  -2  12   2    3.00    1.00
   1 -12  -2    0.00    1.60
  -1  12   2    1.10    0.90
   0 -12  -2    0.00    1.60
   0  12   2    2.60    0.90
   0  12   2    1.90    0.90
  -1 -12  -2    1.30    1.60
   1  12   2    2.00    0.90
   1  12   2    3.00    1.00
  -2 -12  -2   29.10    3.10
   2  12   2   33.30    2.20
   2  12   2   33.50    2.20
  -3  13   2    2.20    1.00
   2 -13  -2    0.00    2.00
  -2  13   2    3.40    1.00
   1 -13  -2    0.00    1.80
  -1  13   2    2.60    1.10
   0 -13  -2    2.20    2.00
   0  13   2    5.80    1.30
   0  13   2    5.80    1.10
  -1 -13  -2    0.00    1.70
   1  13   2    0.00    0.90
   1  13   2    0.60    0.90
   0  14  -3    0.00    1.10
   0  14  -3    2.60    1.10
   0 -14   3    0.00    1.70
  -1  14  -3    8.00    1.50
   1 -14   3    3.40    2.10
   2  13  -3    3.10    1.30
   2  13  -3    5.50    1.20
  -2 -13   3    4.90    1.70
   1  13  -3    4.60    1.10
   1  13  -3    3.70    1.20
  -1 -13   3    4.90    1.70
   0  13  -3    5.50    1.20
   0 -13   3    4.90    1.90
  -1  13  -3   15.30    2.00
   1 -13   3   12.90    2.30
  -2  13  -3    8.40    1.40
   2 -13   3    5.10    2.10
  -3  13  -3    0.60    1.10
   3  12  -3    4.40    1.10
   3  12  -3    2.20    1.20
  -3 -12   3    5.20    1.60
   2  12  -3    1.90    1.10
   2  12  -3    4.40    1.10
  -2 -12   3    3.70    1.50
   1  12  -3   10.10    1.40
   1  12  -3   16.30    1.70
  -1 -12   3   11.50    1.90
   0  12  -3    1.10    1.00
   0 -12   3    0.80    1.50
  -1  12  -3   42.70    2.40
   1 -12   3   38.90    3.20
  -2  12  -3    2.80    1.10
   2 -12   3    0.00    1.60
  -3  12  -3    2.30    1.10
  -4  12  -3    1.10    1.10
   4  11  -3    0.30    1.10
  -4 -11   3    1.30    1.20
   3  11  -3    8.30    1.40
   3  11  -3   11.60    1.40
  -3 -11   3    9.80    1.70
   2  11  -3    1.30    0.80
   2  11  -3    0.00    1.00
  -2 -11   3    1.60    1.30
   1  11  -3   30.20    1.90
  -1 -11   3   30.40    2.80
   0  11  -3  216.38    4.90
   0 -11   3  213.38    6.10
  -1  11  -3   16.20    1.80
   1 -11   3   19.40    2.70
   1 -11   3   17.70    1.30
  -2  11  -3    6.10    1.20
   2 -11   3    6.00    0.90
   2 -11   3    5.20    1.60
  -3  11  -3    1.50    1.00
   3 -11   3    1.90    0.80
   3 -11   3    0.00    1.50
  -4  11  -3    0.70    1.00
   4 -11   3    0.80    0.80
   4  10  -3   22.50    2.00
  -4 -10   3   25.80    2.40
   3  10  -3   11.80    1.40
   3  10  -3   10.50    1.40
   3  10  -3    9.50    1.20
  -3 -10   3    9.70    1.60
   2  10  -3    2.00    0.80
   2  10  -3    0.80    0.60
   2  10  -3    0.10    0.90
  -2 -10   3    0.20    1.10
   1  10  -3    0.10    0.50
   1  10  -3    0.10    0.70
  -1 -10   3    0.40    1.20
   0  10  -3  141.69    3.60
   0 -10   3  142.89    4.60
   0 -10   3  143.79    3.10
  -1  10  -3   65.09    2.50
   1 -10   3   63.39    2.00
   1 -10   3   69.89    3.40
  -2  10  -3    0.10    0.80
   2 -10   3    0.90    1.30
   2 -10   3    0.50    0.60
  -3  10  -3   20.30    1.90
   3 -10   3   21.10    1.50
   3 -10   3   16.60    2.10
  -4  10  -3    1.60    1.10
   4 -10   3    3.00    0.90
  -5  10  -3    0.80    1.10
   5 -10   3    2.70    1.10
   5   9  -3    1.90    1.10
   5   9  -3    0.00    1.00
  -5  -9   3    3.30    1.10
   4   9  -3   40.50    2.00
   4   9  -3   39.80    2.20
  -4  -9   3   44.40    2.60
   3   9  -3    2.50    0.70
   3   9  -3    1.60    0.70
   3   9  -3    1.90    0.90
  -3  -9   3    3.10    1.20
   2   9  -3    6.40    0.90
   2   9  -3    5.60    1.00
   2   9  -3    5.80    0.80
  -2  -9   3    6.90    1.40
   1   9  -3    0.20    0.70
   1   9  -3    0.30    0.50
  -1  -9   3    0.00    1.20
   0   9  -3   11.20    1.30
   0  -9   3   10.80    0.90
   0  -9   3   10.60    1.70
  -1   9  -3   12.80    1.50
   1  -9   3   13.80    1.80
   1  -9   3   12.70    1.00
  -2   9  -3   23.50    1.80
   2  -9   3   25.40    1.40
   2  -9   3   25.50    2.40
  -3   9  -3   35.30    2.00
   3  -9   3   32.70    2.60
   3  -9   3   34.50    1.70
  -4   9  -3    0.00    1.00
   4  -9   3    0.50    0.80
  -5   9  -3    0.40    1.00
   5  -9   3    0.40    0.90
   5   8  -3    7.80    1.30
   5   8  -3    7.60    1.30
  -5  -8   3    7.50    1.30
   4   8  -3    0.20    0.90
   4   8  -3    0.20    0.70
  -4  -8   3    1.90    0.90
   3   8  -3    0.00    0.60
   3   8  -3    0.60    0.50
   3   8  -3    0.10    0.70
  -3  -8   3    0.30    0.90
   2   8  -3   29.70    1.50
   2   8  -3   31.20    1.40
  -2  -8   3   29.20    2.30
   1   8  -3   25.20    1.20
   1   8  -3   27.80    1.60
  -1  -8   3   25.50    2.20
  -1  -8   3   25.10    1.20
   0   8  -3   28.60    1.60
   0  -8   3   27.40    2.30
   0  -8   3   28.00    1.20
  -1   8  -3    0.00    0.70
   1  -8   3    0.50    0.50
   1  -8   3    0.90    1.20
  -2   8  -3    5.90    1.10
  -2   8  -3    7.60    0.90
   2  -8   3    7.10    1.50
   2  -8   3    6.80    0.80
  -3   8  -3   40.80    1.90
  -3   8  -3   42.60    2.10
   3  -8   3   40.30    1.70
   3  -8   3   40.10    2.60
  -4   8  -3    0.80    0.90
  -4   8  -3    1.10    0.80
   4  -8   3    0.50    0.80
   4  -8   3    0.00    1.20
  -5   8  -3    0.00    1.00
  -5   8  -3    2.50    1.00
   5  -8   3    0.20    0.90
  -6   8  -3    6.30    1.50
   6  -8   3    2.70    1.20
   6   7  -3    0.70    1.00
   6   7  -3    0.00    1.10
  -6  -7   3    2.70    0.90
   5   7  -3    1.30    0.90
   5   7  -3    0.80    0.90
  -5  -7   3    1.90    0.90
   4   7  -3   93.09    2.70
   4   7  -3   92.99    2.80
  -4  -7   3   89.79    3.20
   3   7  -3  117.79    2.80
   3   7  -3  122.49    3.10
   3   7  -3  116.79    2.70
  -3  -7   3  118.39    3.40
  -3  -7   3  117.79    3.60
   2   7  -3   30.20    1.30
   2   7  -3   31.40    1.40
  -2  -7   3   32.00    1.60
   1   7  -3   63.89    1.70
   1   7  -3   62.59    2.00
  -1  -7   3   61.89    1.70
  -1  -7   3   60.39    1.60
  -1  -7   3   64.49    2.70
   0   7  -3    2.10    0.80
   0  -7   3    2.20    0.40
   0  -7   3    1.90    1.00
   0  -7   3    2.00    0.50
  -1   7  -3    5.60    0.60
  -1   7  -3    5.60    0.90
   1  -7   3    4.10    1.10
   1  -7   3    5.20    0.70
  -2   7  -3  225.98    4.70
  -2   7  -3  224.18    4.50
   2  -7   3  224.18    5.20
   2  -7   3  215.98    4.10
  -3   7  -3    5.00    1.10
  -3   7  -3    6.20    1.00
   3  -7   3    5.30    1.30
   3  -7   3    4.80    0.90
  -4   7  -3    0.80    0.90
  -4   7  -3    1.60    0.90
   4  -7   3    0.40    0.80
   4  -7   3    0.00    1.00
  -5   7  -3    0.00    0.90
  -5   7  -3    3.20    1.20
   5  -7   3    1.80    1.00
  -6   7  -3    4.00    1.30
   6  -7   3    1.10    1.10
   6   6  -3    0.40    0.90
   6   6  -3    0.00    1.00
  -6  -6   3    2.10    1.20
  -6  -6   3    0.80    0.80
   5   6  -3   20.00    1.60
   5   6  -3   18.80    1.60
  -5  -6   3   22.10    1.80
  -5  -6   3   21.50    2.10
   4   6  -3   27.70    1.50
   4   6  -3   29.10    1.60
  -4  -6   3   28.40    2.00
  -4  -6   3   29.70    1.90
   3   6  -3    4.30    0.90
   3   6  -3    5.20    0.70
   3   6  -3    4.60    0.70
  -3  -6   3    3.70    1.00
  -3  -6   3    5.00    1.10
   2   6  -3    0.20    0.40
   2   6  -3    0.40    0.50
  -2  -6   3    0.30    0.70
  -2  -6   3    0.00    0.70
   1   6  -3   52.69    1.50
   1   6  -3   52.79    1.60
  -1  -6   3   53.09    1.40
  -1  -6   3   52.69    1.50
  -1  -6   3   52.99    2.20
   0   6  -3  266.17    4.60
   0  -6   3  261.27    5.50
   0  -6   3  266.87    4.40
  -1   6  -3  298.97    5.50
  -1   6  -3  309.67    5.30
   1  -6   3  303.27    4.90
   1  -6   3  297.97    6.10
  -2   6  -3    9.70    1.30
  -2   6  -3    8.20    1.00
   2  -6   3    8.70    0.90
   2  -6   3    9.00    1.20
  -3   6  -3    0.10    0.80
  -3   6  -3    0.00    0.80
   3  -6   3    0.50    1.00
   3  -6   3    0.30    0.70
  -4   6  -3   14.90    1.50
  -4   6  -3   17.00    1.70
   4  -6   3   15.20    1.50
  -5   6  -3    0.80    0.90
  -5   6  -3    1.50    1.10
   5  -6   3    0.10    0.90
  -6   6  -3   25.20    2.60
   6  -6   3   19.80    2.30
   6   5  -3   18.90    1.50
   6   5  -3   16.30    1.90
  -6  -5   3   21.60    2.20
  -6  -5   3   17.20    1.70
   5   5  -3   37.50    1.80
   5   5  -3   34.90    1.90
  -5  -5   3   34.70    2.00
  -5  -5   3   37.80    2.40
   4   5  -3   26.00    1.50
   4   5  -3   23.90    1.50
  -4  -5   3   25.00    1.90
  -4  -5   3   24.40    1.70
   3   5  -3  124.39    2.80
   3   5  -3  124.19    2.50
   3   5  -3  125.19    2.80
  -3  -5   3  121.49    3.30
  -3  -5   3  120.69    3.30
   2   5  -3   61.19    1.60
   2   5  -3   63.69    1.60
  -2  -5   3   60.49    1.80
  -2  -5   3   62.39    2.20
   1   5  -3  391.16    5.90
   1   5  -3  389.96    6.10
  -1  -5   3  402.56    7.40
  -1  -5   3  402.46    6.00
  -1  -5   3  392.26    6.70
   0   5  -3  301.17    4.90
   0  -5   3  287.17    5.70
   0  -5   3  296.77    4.60
  -1   5  -3   88.39    2.00
  -1   5  -3   91.79    2.20
   1  -5   3   90.59    2.50
   1  -5   3   86.79    2.00
  -2   5  -3  285.37    5.00
  -2   5  -3  296.77    5.80
   2  -5   3  291.97    5.60
   2  -5   3  286.87    4.90
  -3   5  -3    0.40    0.90
  -3   5  -3    0.90    0.80
   3  -5   3    0.90    0.70
   3  -5   3    1.20    0.80
  -4   5  -3    1.60    0.80
  -4   5  -3    1.00    1.10
   4  -5   3    0.60    0.80
  -5   5  -3    1.70    1.20
  -5   5  -3    0.00    0.80
   5  -5   3    0.40    0.90
  -6   5  -3    2.80    1.40
   6  -5   3    0.80    1.10
   7   4  -3    6.80    1.40
   6   4  -3    0.30    0.90
   6   4  -3    1.70    0.70
  -6  -4   3    3.20    1.30
  -6  -4   3    0.90    0.70
   5   4  -3    9.30    1.20
   5   4  -3    9.00    1.10
  -5  -4   3   10.60    1.50
  -5  -4   3    9.40    1.30
   4   4  -3   66.79    2.10
   4   4  -3   65.89    2.00
  -4  -4   3   65.79    2.70
  -4  -4   3   64.49    2.40
   3   4  -3   60.89    1.80
   3   4  -3   60.49    1.70
   3   4  -3   59.59    1.40
  -3  -4   3   59.19    2.10
  -3  -4   3   60.19    2.20
   2   4  -3   66.49    1.60
   2   4  -3   66.09    1.50
  -2  -4   3   64.59    1.80
  -2  -4   3   61.69    2.00
   1   4  -3 2123.19   30.70
   1   4  -3 2140.99   31.40
  -1  -4   3 2115.19   36.10
  -1  -4   3 2100.49   30.80
  -1  -4   3 2044.10   35.60
   0   4  -3   75.99    1.80
   0  -4   3   74.79    2.10
   0  -4   3   76.29    1.70
  -1   4  -3    0.90    0.50
  -1   4  -3    1.10    0.50
   1  -4   3    1.40    0.60
   1  -4   3    0.80    0.40
  -2   4  -3  188.08    3.50
  -2   4  -3  183.18    4.10
   2  -4   3  180.78    3.80
   2  -4   3  183.78    3.40
  -3   4  -3    1.40    0.70
  -3   4  -3    0.50    1.00
   3  -4   3    1.10    0.70
   3  -4   3    1.10    0.70
  -4   4  -3    0.00    1.20
  -4   4  -3    0.20    0.70
   4  -4   3    0.00    0.70
  -5   4  -3    0.00    0.80
  -5   4  -3    2.10    1.30
   5  -4   3    0.00    0.80
  -6   4  -3    2.60    1.40
   6  -4   3    0.20    1.00
   7   3  -3    1.30    1.10
  -7  -3   3    6.40    1.70
   6   3  -3    9.90    1.30
   6   3  -3   11.70    1.20
  -6  -3   3   12.40    1.40
  -6  -3   3   12.70    2.00
   5   3  -3   24.60    1.30
   5   3  -3   25.40    1.60
  -5  -3   3   25.50    2.10
  -5  -3   3   22.60    1.50
   4   3  -3   53.69    1.80
   4   3  -3   53.69    1.70
  -4  -3   3   51.79    2.30
  -4  -3   3   54.99    2.10
   3   3  -3  113.69    2.00
   3   3  -3  112.79    2.30
   3   3  -3  116.49    2.50
  -3  -3   3  110.39    3.00
  -3  -3   3  111.29    2.90
   2   3  -3  146.69    2.70
   2   3  -3  143.19    2.40
  -2  -3   3  143.49    3.20
  -2  -3   3  142.99    3.10
   1   3  -3  598.04    8.30
   1   3  -3  584.24    8.20
  -1  -3   3  580.94    8.20
  -1  -3   3  581.74    9.70
  -1  -3   3  579.24   10.30
   0   3  -3  849.02   12.00
   0   3  -3  884.41   14.80
   0  -3   3  854.11   11.70
   0  -3   3  864.61   13.80
  -1   3  -3  385.26    5.90
  -1   3  -3  397.56    7.00
   1  -3   3  386.96    5.70
   1  -3   3  370.86    6.50
  -2   3  -3  121.69    3.10
  -2   3  -3  121.19    2.50
   2  -3   3  117.09    2.50
   2  -3   3  119.89    2.50
  -3   3  -3    8.00    1.40
  -3   3  -3    6.40    0.80
   3  -3   3    6.30    0.90
   3  -3   3    5.70    0.80
  -4   3  -3   35.20    1.60
  -4   3  -3   38.80    2.60
   4  -3   3   38.10    1.80
  -5   3  -3    0.00    0.70
  -5   3  -3    0.70    1.30
   5  -3   3    0.00    0.80
  -6   3  -3    4.90    1.60
   6  -3   3    2.30    1.20
   7   2  -3    5.40    1.30
  -7  -2   3    7.30    1.70
   6   2  -3    0.10    0.90
  -6  -2   3    1.10    0.60
  -6  -2   3    2.50    1.30
   5   2  -3    6.20    1.00
   5   2  -3    6.20    0.80
  -5  -2   3    6.50    1.40
  -5  -2   3    4.00    0.80
   4   2  -3   32.40    1.30
   4   2  -3   35.30    1.50
  -4  -2   3   34.40    1.60
  -4  -2   3   30.80    1.90
   3   2  -3  356.16    5.20
   3   2  -3  347.47    4.90
  -3  -2   3  350.66    6.90
  -3  -2   3  349.27    6.50
   2   2  -3   77.19    1.40
  -2  -2   3   75.29    2.00
  -2  -2   3   74.79    1.90
   1   2  -3 1177.78   17.20
   1   2  -3 1157.68   17.10
  -1  -2   3 1171.58   20.00
  -1  -2   3 1169.18   20.70
  -1  -2   3 1165.28   17.10
   0   2  -3  917.81   16.00
   0   2  -3  901.71   23.10
   0  -2   3  886.31   12.60
   0  -2   3  914.31   15.40
  -1   2  -3  243.38    4.00
  -1   2  -3  264.67    5.00
   1  -2   3  252.37    4.00
   1  -2   3  255.07    4.30
   1  -2   3  249.18    4.00
  -2   2  -3 1727.53   25.10
  -2   2  -3 1696.83   29.00
   2  -2   3 1722.13   23.20
   2  -2   3 1714.83   24.40
   2  -2   3 1634.14   27.40
  -3   2  -3   63.19    2.80
  -3   2  -3   62.39    1.70
   3  -2   3   60.69    1.70
   3  -2   3   64.99    1.90
   3  -2   3   64.29    1.50
  -4   2  -3  123.59    4.20
  -4   2  -3  123.39    2.80
   4  -2   3  120.59    3.10
  -5   2  -3    2.40    0.80
  -5   2  -3    2.80    1.50
   5  -2   3    1.90    1.00
  -6   2  -3    3.10    1.60
   6  -2   3    1.00    1.10
   7   1  -3    0.80    1.10
  -7  -1   3    4.50    1.50
   6   1  -3    3.20    1.00
  -6  -1   3    4.20    1.40
  -6  -1   3    4.10    0.80
   5   1  -3   10.30    0.90
   5   1  -3   10.80    1.20
  -5  -1   3   11.20    1.80
  -5  -1   3   13.60    1.30
   4   1  -3   24.60    1.30
   4   1  -3   24.40    1.00
  -4  -1   3   26.20    1.40
  -4  -1   3   23.40    1.70
   3   1  -3   64.99    1.40
  -3  -1   3   61.29    2.10
  -3  -1   3   60.39    1.90
   2   1  -3   41.50    1.10
   2   1  -3   43.00    0.80
  -2  -1   3   40.60    1.40
  -2  -1   3   40.30    1.30
   1   1  -3    0.00    0.20
   1   1  -3    0.50    0.30
  -1  -1   3    0.00    0.20
  -1  -1   3    0.00    0.30
  -1  -1   3    0.00    0.20
   0   1  -3  416.16    7.30
   0   1  -3  421.06    6.00
   0  -1   3  419.46    6.00
   0  -1   3  424.76    6.70
   0  -1   3  420.56    5.90
  -1   1  -3  138.39    2.50
  -1   1  -3  145.09    3.20
   1  -1   3  140.39    2.30
   1  -1   3  135.89    2.40
   1  -1   3  140.69    2.50
  -2   1  -3   23.30    1.70
  -2   1  -3   20.70    0.90
   2  -1   3   21.90    0.90
   2  -1   3   22.30    1.00
  -3   1  -3  354.66    7.70
  -3   1  -3  357.86    5.70
   3  -1   3  362.96    5.90
   3  -1   3  348.07    5.70
   3  -1   3  359.26    5.70
  -4   1  -3   14.30    1.10
  -4   1  -3   13.70    2.20
   4  -1   3   14.20    1.40
   4  -1   3   14.40    1.10
  -5   1  -3    1.70    0.70
  -5   1  -3    3.70    1.60
   5  -1   3    1.50    0.70
   5  -1   3    2.70    1.00
  -6   1  -3    4.10    1.70
   6  -1   3    4.00    1.20
   7   0  -3    0.40    1.10
  -7   0   3    2.20    1.40
   6   0  -3    0.00    0.80
   6   0  -3    0.80    0.60
  -6   0   3    1.90    1.20
  -6   0   3    1.00    0.70
   5   0  -3  222.28    3.70
   5   0  -3  231.38    4.60
  -5   0   3  225.18    5.00
  -5   0   3  224.18    5.80
   4   0  -3  630.94    8.60
   4   0  -3  642.34    9.50
  -4   0   3  623.04   10.90
  -4   0   3  641.44   12.10
   3   0  -3  337.77    4.70
   3   0  -3  329.77    5.20
  -3   0   3  332.27    6.10
  -3   0   3  331.17    6.70
   2   0  -3    4.80    0.50
   2   0  -3    5.40    0.20
  -2   0   3    4.60    0.60
  -2   0   3    4.90    0.70
   1   0  -3  459.15    6.40
  -1   0   3  463.95    6.40
  -1   0   3  455.25    8.10
  -1   0   3  466.55    7.60
   0   0  -3  508.15    8.70
   0   0   3  494.75    7.90
   0   0   3  507.25    6.80
   0   0   3  492.45    7.00
  -1   0  -3 1715.73   30.10
   1   0   3 1737.23   25.20
   1   0   3 1773.22   25.90
  -2   0  -3   65.89    2.60
   2   0   3   72.09    1.60
   2   0   3   65.69    1.70
  -3   0  -3   20.70    2.30
   3   0   3   20.20    1.00
   3   0   3   20.10    0.60
   3   0   3   20.00    1.20
  -4   0  -3   73.09    3.70
  -4   0  -3   71.29    2.00
   4   0   3   75.39    2.10
   4   0   3   72.59    2.40
  -5   0  -3   32.60    2.90
  -5   0  -3   32.90    1.50
   5   0   3   32.30    1.60
   5   0   3   33.20    1.90
  -6   0  -3    2.00    1.70
   6   0   3    0.00    1.00
   7  -1  -3    4.80    1.30
  -7   1   3    7.60    1.80
   6  -1  -3   21.30    1.60
   6  -1  -3   19.10    1.70
  -6   1   3   21.30    2.20
  -6   1   3   20.40    1.60
   5  -1  -3    9.40    1.10
   5  -1  -3    7.40    1.10
  -5   1   3    8.40    1.40
  -5   1   3    7.90    1.10
   4  -1  -3   97.69    1.70
   4  -1  -3   95.99    2.70
   4  -1  -3   95.99    2.40
  -4   1   3   97.09    2.60
  -4   1   3   98.59    3.10
   3  -1  -3   49.40    1.00
   3  -1  -3   48.30    1.40
   3  -1  -3   49.50    1.60
  -3   1   3   49.70    1.60
  -3   1   3   47.50    1.80
   2  -1  -3  141.89    3.00
   2  -1  -3  145.39    2.50
  -2   1   3  145.09    3.20
  -2   1   3  142.89    2.10
  -2   1   3  140.69    2.90
   1  -1  -3  454.95    6.10
   1  -1  -3  456.15    7.40
  -1   1   3  450.15    8.00
  -1   1   3  447.46    6.30
  -1   1   3  442.96    7.40
   0  -1  -3  196.28    4.00
   0  -1  -3  208.18    3.50
   0   1   3  204.18    3.20
   0   1   3  204.68    4.00
   0   1   3  207.38    2.90
  -1  -1  -3   75.09    1.50
  -1  -1  -3   73.69    2.20
   1   1   3   75.19    1.50
  -2  -1  -3  113.99    2.00
  -2  -1  -3  107.89    3.30
   2   1   3  116.39    2.30
   2   1   3  116.49    2.30
   2   1   3  116.39    2.30
  -3  -1  -3    1.60    0.30
  -3  -1  -3    2.80    1.50
   3   1   3    1.60    0.50
   3   1   3    0.90    0.60
   3   1   3    0.50    0.50
  -4  -1  -3   11.50    2.10
   4   1   3   11.20    1.40
   4   1   3   12.00    1.10
  -5  -1  -3   26.50    2.90
   5   1   3   27.10    1.80
   5   1   3   24.40    1.40
  -6  -1  -3    2.30    1.90
   6   1   3    1.00    1.00
   7  -2  -3    7.40    1.40
  -7   2   3   13.30    2.10
   6  -2  -3   46.40    2.30
   6  -2  -3   49.30    2.30
  -6   2   3   48.80    2.90
  -6   2   3   46.90    2.30
   5  -2  -3   12.00    1.30
   5  -2  -3   10.10    1.10
  -5   2   3   10.00    1.20
  -5   2   3   14.60    1.80
   4  -2  -3    3.20    0.70
   4  -2  -3    4.40    0.70
  -4   2   3    4.20    1.00
  -4   2   3    4.30    0.70
   3  -2  -3 1278.67   20.20
   3  -2  -3 1299.57   17.10
  -3   2   3 1235.68   17.50
  -3   2   3 1243.58   20.10
  -3   2   3 1241.08   21.90
   2  -2  -3  567.04    7.70
  -2   2   3  549.15    9.30
  -2   2   3  557.74   10.10
  -2   2   3  546.05    7.70
   1  -2  -3   14.10    0.80
   1  -2  -3   16.40    0.50
  -1   2   3   12.80    0.60
   0  -2  -3  576.34   15.10
   0  -2  -3  559.94   10.10
   0   2   3  566.74    7.70
   0   2   3  581.64   10.20
   0   2   3  571.64    8.00
   0   2   3  566.84    8.10
  -1  -2  -3  536.65    8.60
  -1  -2  -3  537.85    9.90
   1   2   3  534.35    7.50
   1   2   3  538.85    7.40
   1   2   3  524.45    7.80
  -2  -2  -3 1659.93   28.60
  -2  -2  -3 1613.74   26.10
   2   2   3 1649.73   24.50
   2   2   3 1686.93   23.60
   2   2   3 1643.84   22.50
  -3  -2  -3   84.49    3.60
  -3  -2  -3   80.69    1.80
   3   2   3   81.49    2.10
   3   2   3   82.29    2.10
   3   2   3   78.99    2.00
  -4  -2  -3   15.60    2.30
   4   2   3   15.50    1.30
   4   2   3   15.10    1.20
   4   2   3   14.50    1.10
  -5  -2  -3    0.10    1.80
   5   2   3    0.00    0.80
  -6  -2  -3    7.50    2.20
   6   2   3    5.00    1.20
   7  -3  -3    2.90    1.20
  -7   3   3    5.40    1.60
   6  -3  -3    9.40    1.30
   6  -3  -3    9.80    1.30
  -6   3   3   11.70    1.70
   5  -3  -3   13.70    1.50
   5  -3  -3   14.80    1.40
  -5   3   3   12.90    1.70
   4  -3  -3    9.50    1.10
   4  -3  -3   11.20    1.10
  -4   3   3   10.50    1.40
   3  -3  -3  285.27    4.50
   3  -3  -3  276.97    5.40
  -3   3   3  274.97    4.20
  -3   3   3  276.67    5.90
   2  -3  -3    0.10    0.30
  -2   3   3    0.10    0.40
  -2   3   3    0.00    0.30
   1  -3  -3  164.38    2.30
   1  -3  -3  160.68    3.30
  -1   3   3  155.48    2.70
  -1   3   3  161.78    3.50
  -1   3   3  160.28    2.40
   0  -3  -3  202.58    3.90
   0  -3  -3  200.88    4.30
   0   3   3  203.48    4.30
   0   3   3  202.48    3.40
   0   3   3  203.68    3.10
   0   3   3  202.38    2.70
  -1  -3  -3 1314.47   22.60
  -1  -3  -3 1314.47   21.70
   1   3   3 1295.77   18.20
   1   3   3 1318.07   18.30
   1   3   3 1299.97   18.00
  -2  -3  -3   59.69    2.60
  -2  -3  -3   58.79    1.70
   2   3   3   61.59    1.50
   2   3   3   60.89    1.70
   2   3   3   60.49    1.60
  -3  -3  -3    6.30    0.80
  -3  -3  -3    6.30    1.70
   3   3   3    5.40    0.70
   3   3   3    6.00    0.80
   3   3   3    5.70    0.80
  -4  -3  -3   22.50    2.60
   4   3   3   20.60    1.40
   4   3   3   21.30    1.40
   4   3   3   20.90    1.30
  -5  -3  -3    3.20    2.00
   5   3   3    1.60    0.90
   5   3   3    2.50    0.80
  -6  -3  -3   18.10    2.80
   6   3   3   15.50    1.90
   7  -4  -3   10.00    1.60
   6  -4  -3   13.80    1.80
   6  -4  -3   14.20    1.60
  -6   4   3   16.50    2.10
   5  -4  -3   17.00    1.40
   5  -4  -3   15.80    1.50
  -5   4   3   19.40    1.80
   4  -4  -3   67.99    2.00
   4  -4  -3   68.89    2.40
  -4   4   3   66.89    2.60
  -4   4   3   63.99    1.50
   3  -4  -3   86.59    2.50
   3  -4  -3   85.19    1.90
  -3   4   3   82.79    1.80
  -3   4   3   83.49    2.70
   2  -4  -3  456.15    6.20
   2  -4  -3  451.85    7.90
  -2   4   3  433.46    8.40
  -2   4   3  429.86    5.70
  -2   4   3  444.86    6.50
   1  -4  -3    0.70    0.40
  -1   4   3    0.00    0.30
  -1   4   3    0.10    0.40
  -1   4   3    0.60    0.30
   0  -4  -3  180.68    3.70
   0  -4  -3  171.88    3.90
   0   4   3  173.78    2.90
   0   4   3  169.98    3.90
   0   4   3  173.28    3.10
  -1  -4  -3   44.10    1.90
  -1  -4  -3   43.00    1.70
   1   4   3   43.30    1.40
   1   4   3   42.40    1.30
   1   4   3   43.50    1.00
  -2  -4  -3   37.20    2.30
  -2  -4  -3   37.30    1.60
   2   4   3   36.20    1.20
   2   4   3   35.10    1.30
   2   4   3   35.50    1.40
  -3  -4  -3    2.90    0.70
  -3  -4  -3    3.90    1.70
   3   4   3    2.80    0.70
   3   4   3    2.50    0.80
   3   4   3    2.20    0.60
  -4  -4  -3  360.36    8.80
   4   4   3  359.76    6.20
   4   4   3  356.36    6.20
   4   4   3  363.16    6.30
  -5  -4  -3   17.30    2.70
   5   4   3   12.70    1.50
   5   4   3   15.00    1.50
  -6  -4  -3    0.00    2.10
   6   4   3    0.90    0.80
   6   4   3    0.10    1.00
   7  -5  -3    5.50    1.40
  -7   5   3    8.60    1.80
   6  -5  -3    8.70    1.30
   6  -5  -3    7.90    1.30
  -6   5   3    9.50    1.70
   5  -5  -3    4.50    1.00
   5  -5  -3    7.00    1.00
  -5   5   3    7.10    1.40
   4  -5  -3    3.30    0.80
   4  -5  -3    2.80    0.80
  -4   5   3    2.80    1.00
  -4   5   3    2.90    0.50
   3  -5  -3  122.99    2.50
   3  -5  -3  121.39    3.20
  -3   5   3  125.19    2.50
  -3   5   3  119.79    3.40
   2  -5  -3    1.30    0.60
   2  -5  -3    0.50    0.30
  -2   5   3    0.00    0.40
  -2   5   3    0.20    0.20
  -2   5   3    0.20    0.50
   1  -5  -3  107.09    2.80
  -1   5   3  108.99    2.90
  -1   5   3  108.69    2.00
  -1   5   3  107.39    2.30
   0  -5  -3   47.10    1.90
   0  -5  -3   49.10    1.90
   0   5   3   47.30    1.50
   0   5   3   47.90    1.30
  -1  -5  -3    1.80    0.90
  -1  -5  -3    0.40    0.80
   1   5   3    0.70    0.30
   1   5   3    0.00    0.50
   1   5   3    0.30    0.40
  -2  -5  -3  142.79    3.50
  -2  -5  -3  140.09    4.30
   2   5   3  140.59    2.60
   2   5   3  145.29    3.00
   2   5   3  139.79    3.00
  -3  -5  -3  179.08    5.50
  -3  -5  -3  182.18    4.00
   3   5   3  177.68    3.70
   3   5   3  175.58    3.50
   3   5   3  176.78    3.70
  -4  -5  -3    0.80    1.80
   4   5   3    1.30    0.80
   4   5   3    1.60    0.70
   4   5   3    1.90    0.80
  -5  -5  -3    3.50    2.10
   5   5   3    6.20    1.10
   5   5   3    4.40    1.00
   7  -6  -3    2.70    1.30
  -7   6   3    5.00    1.60
   6  -6  -3    2.90    1.00
   6  -6  -3    1.70    1.20
  -6   6   3    4.10    1.40
   5  -6  -3   10.70    1.40
   5  -6  -3   11.10    1.40
  -5   6   3   12.00    1.70
   4  -6  -3    0.00    0.60
   4  -6  -3    0.30    0.80
  -4   6   3    0.50    0.50
  -4   6   3    0.20    0.80
   3  -6  -3  112.79    2.30
   3  -6  -3  115.29    3.30
  -3   6   3  115.29    3.40
  -3   6   3  113.49    2.50
   2  -6  -3   34.80    1.80
   2  -6  -3   32.10    0.90
  -2   6   3   32.20    1.70
  -2   6   3   30.40    1.30
  -2   6   3   30.60    0.90
   1  -6  -3  423.66    8.00
  -1   6   3  424.76    8.40
  -1   6   3  422.46    6.10
  -1   6   3  426.56    6.70
   0  -6  -3  477.85    8.80
   0  -6  -3  462.85    9.10
   0   6   3  466.25    7.40
   0   6   3  471.35    6.90
  -1  -6  -3   57.19    2.50
  -1  -6  -3   57.99    2.50
   1   6   3   55.49    1.20
   1   6   3   57.69    1.80
   1   6   3   55.69    1.70
  -2  -6  -3    0.20    1.30
  -2  -6  -3    0.00    0.90
   2   6   3    0.00    0.70
   2   6   3    0.10    0.50
   2   6   3    0.00    0.50
  -3  -6  -3  236.68    6.60
  -3  -6  -3  233.68    5.10
   3   6   3  227.48    4.20
   3   6   3  241.18    4.70
   3   6   3  236.68    4.70
  -4  -6  -3    5.40    2.10
   4   6   3    3.60    0.80
   4   6   3    3.80    0.90
  -5  -6  -3    0.00    2.10
   5   6   3    1.10    0.90
   6  -7  -3    2.90    1.00
   6  -7  -3    0.80    1.20
  -6   7   3    4.10    1.40
   5  -7  -3   22.90    1.60
   5  -7  -3   21.50    2.30
  -5   7   3   23.30    2.00
   4  -7  -3  111.49    2.70
   4  -7  -3  117.19    3.80
  -4   7   3  113.49    2.70
  -4   7   3  117.49    3.80
   3  -7  -3   10.90    1.50
   3  -7  -3    9.50    0.90
  -3   7   3   10.40    1.30
  -3   7   3    9.00    1.00
   2  -7  -3   86.19    3.00
  -2   7   3   90.09    2.90
  -2   7   3   83.79    1.70
  -2   7   3   87.19    2.30
   1  -7  -3    1.90    0.90
  -1   7   3    0.70    0.60
  -1   7   3    0.40    0.70
  -1   7   3    1.10    0.50
   0  -7  -3    0.50    0.80
   0  -7  -3    1.40    1.10
   0   7   3    0.10    0.50
   0   7   3    0.40    0.60
  -1  -7  -3    3.20    1.20
  -1  -7  -3    2.80    1.20
   1   7   3    2.60    0.70
   1   7   3    2.80    0.80
  -2  -7  -3  343.37    7.10
  -2  -7  -3  342.87    7.90
   2   7   3  339.77    6.10
   2   7   3  335.57    5.90
  -3  -7  -3  169.18    4.30
  -3  -7  -3  164.18    5.50
   3   7   3  168.38    3.80
   3   7   3  163.98    3.80
  -4  -7  -3    0.00    2.00
   4   7   3    4.40    1.00
   4   7   3    3.80    0.90
  -5  -7  -3    0.00    2.20
   5   7   3    2.60    1.00
   6  -8  -3    0.00    1.30
  -6   8   3    3.30    1.40
   5  -8  -3    2.60    1.30
  -5   8   3    4.70    1.30
   4  -8  -3  236.88    6.00
  -4   8   3  235.08    6.00
  -4   8   3  228.58    4.50
   3  -8  -3   13.10    2.00
  -3   8   3   13.50    1.50
  -3   8   3   14.90    1.20
   2  -8  -3  141.29    4.20
  -2   8   3  140.89    3.20
  -2   8   3  140.39    4.00
   1  -8  -3   29.20    2.30
  -1   8   3   31.00    1.50
  -1   8   3   27.90    1.70
  -1   8   3   27.60    1.20
   0  -8  -3   19.80    2.30
   0  -8  -3   16.50    1.60
   0   8   3   17.20    1.20
   0   8   3   16.00    1.20
  -1  -8  -3   20.80    2.30
  -1  -8  -3   18.60    1.90
   1   8   3   18.20    1.30
   1   8   3   17.90    1.30
  -2  -8  -3  142.79    4.80
  -2  -8  -3  147.49    4.30
   2   8   3  148.09    3.50
   2   8   3  148.39    3.60
  -3  -8  -3    0.00    1.60
  -3  -8  -3    1.40    1.00
   3   8   3    0.10    0.70
   3   8   3    0.80    0.80
  -4  -8  -3    4.60    2.40
   4   8   3   10.60    1.40
   4   8   3   12.00    1.50
   6  -9  -3    0.00    1.50
  -6   9   3    2.90    1.40
   5  -9  -3   16.70    2.50
  -5   9   3   24.40    2.30
   4  -9  -3    1.10    1.20
  -4   9   3    1.20    1.00
  -4   9   3    1.70    0.70
   3  -9  -3  138.59    4.50
  -3   9   3  135.69    3.30
  -3   9   3  136.29    4.20
   2  -9  -3    5.50    1.30
  -2   9   3    5.60    0.90
  -2   9   3    6.70    1.20
   1  -9  -3   87.99    3.60
  -1   9   3   88.59    2.60
  -1   9   3   87.69    3.10
  -1   9   3   85.49    2.20
   0  -9  -3    9.80    1.60
   0  -9  -3   10.70    1.60
   0   9   3   10.50    1.20
   0   9   3   11.70    1.10
  -1  -9  -3    1.60    1.20
  -1  -9  -3    0.00    1.10
   1   9   3    0.30    0.70
   1   9   3    0.20    0.70
  -2  -9  -3  217.78    5.70
  -2  -9  -3  213.38    6.20
   2   9   3  220.18    4.80
   2   9   3  218.08    4.60
  -3  -9  -3    0.00    2.00
   3   9   3    1.40    0.80
   3   9   3    2.50    1.00
   4   9   3    2.40    0.90
   4   9   3    2.20    1.00
  -5  10   3    0.50    1.10
   4 -10  -3    0.00    1.30
  -4  10   3    0.30    0.90
  -4  10   3    2.00    0.80
   3 -10  -3   17.40    2.20
  -3  10   3   19.70    1.50
  -3  10   3   18.60    1.80
   2 -10  -3    0.00    1.30
  -2  10   3    0.40    0.80
  -2  10   3    0.00    0.80
   1 -10  -3   90.89    4.00
   1 -10  -3   92.99    3.30
  -1  10   3   95.49    2.90
  -1  10   3   88.99    3.30
  -1  10   3   88.59    2.40
   0 -10  -3   36.40    2.90
   0 -10  -3   34.50    2.30
   0  10   3   38.50    2.00
   0  10   3   35.40    1.60
  -1 -10  -3   15.10    2.30
  -1 -10  -3   13.80    1.90
   1  10   3   16.40    1.60
   1  10   3   16.40    1.50
  -2 -10  -3   33.70    2.80
  -2 -10  -3   27.60    2.90
   2  10   3   34.60    2.00
   2  10   3   34.70    1.90
   3  10   3    1.10    0.80
   3  10   3    0.00    0.90
  -5  11   3    0.70    1.10
  -4  11   3    1.80    0.80
  -4  11   3    0.20    1.00
   3 -11  -3   11.10    2.10
  -3  11   3   16.60    1.50
  -3  11   3   14.40    1.90
   2 -11  -3   14.70    2.10
  -2  11   3   21.80    1.70
  -2  11   3   18.50    1.90
   1 -11  -3    1.70    1.00
   1 -11  -3    0.00    1.40
  -1  11   3    0.60    0.70
   0 -11  -3    2.40    1.60
   0 -11  -3    1.90    1.30
   0  11   3    3.40    0.90
   0  11   3    2.20    0.80
  -1 -11  -3    0.00    1.40
  -1 -11  -3    0.00    1.40
   1  11   3    0.20    0.80
   1  11   3    1.10    0.80
  -2 -11  -3    2.50    1.50
   2  11   3    6.40    1.20
   2  11   3    5.10    1.10
   3  11   3   33.40    2.20
   3  11   3   32.80    2.10
   4 -12  -3    4.50    2.40
   3 -12  -3    1.40    2.10
  -2  12   3   18.80    1.80
   1 -12  -3    0.00    1.60
  -1  12   3    1.70    0.90
   0 -12  -3   19.10    2.50
   0  12   3   30.90    2.00
   0  12   3   26.40    1.70
  -1 -12  -3    0.80    1.70
   1  12   3    4.40    1.10
   1  12   3    5.00    1.10
  -2 -12  -3    0.00    1.60
   2  12   3    3.60    1.10
   2  12   3    4.20    1.20
  -3  13   3    4.80    1.10
   2 -13  -3    0.00    1.90
  -2  13   3    2.50    1.00
   1 -13  -3   12.00    2.60
  -1  13   3   19.70    1.90
   0  13   3   23.30    2.10
   2  13  -4   27.00    2.30
   2  13  -4   39.30    2.30
  -2 -13   4   36.90    3.20
   1  13  -4    0.00    1.10
   1  13  -4    2.40    1.00
  -1 -13   4    2.50    1.60
   0  13  -4   30.40    2.20
   0 -13   4   31.80    3.30
  -1  13  -4   21.20    2.20
   1 -13   4   20.80    3.10
  -2  13  -4    5.00    1.40
   2 -13   4    2.00    1.90
   3  12  -4   11.50    1.70
   3  12  -4   17.30    1.60
  -3 -12   4   20.20    2.70
   2  12  -4   28.60    1.90
   2  12  -4   24.10    2.10
  -2 -12   4   27.20    2.70
   1  12  -4   32.30    2.10
  -1 -12   4   33.80    3.00
   0  12  -4    5.70    1.20
   0 -12   4    6.00    1.70
  -1  12  -4   43.40    2.50
   1 -12   4   40.40    3.20
   2 -12   4   15.60    2.20
  -3  12  -4    0.00    1.10
   4  11  -4    6.90    1.50
  -4 -11   4   11.40    1.80
   3  11  -4    8.30    1.20
   3  11  -4    6.80    1.30
  -3 -11   4    9.70    1.70
   2  11  -4   12.80    1.60
   2  11  -4   17.10    1.60
  -2 -11   4   18.10    2.30
   1  11  -4    0.00    0.60
   1  11  -4    0.90    0.80
  -1 -11   4    1.00    1.30
   0  11  -4    2.10    1.00
   0 -11   4    1.50    0.70
   0 -11   4    2.20    1.40
  -1  11  -4  146.49    4.00
   1 -11   4  146.69    3.40
   1 -11   4  144.89    4.90
  -2  11  -4   39.20    2.30
   2 -11   4   38.00    1.80
   2 -11   4   33.00    2.90
  -3  11  -4    2.30    1.10
   3 -11   4    2.70    0.90
   3 -11   4    0.00    1.50
  -4  11  -4    3.70    1.30
   4 -11   4    4.70    1.10
   4  10  -4    0.00    0.80
   4  10  -4    0.60    1.10
   3  10  -4   10.70    1.30
   3  10  -4   11.70    1.50
   3  10  -4   12.90    1.30
  -3 -10   4   11.50    1.70
   2  10  -4   10.70    1.30
   2  10  -4    9.00    1.10
  -2 -10   4   10.30    1.60
   1  10  -4    2.00    0.90
   1  10  -4    1.40    0.60
  -1 -10   4    1.60    1.30
   0  10  -4   27.10    1.90
   0 -10   4   29.30    1.40
   0 -10   4   27.00    2.50
  -1  10  -4   21.40    1.80
   1 -10   4   18.50    1.30
   1 -10   4   21.80    2.40
  -2  10  -4    0.30    1.00
   2 -10   4    2.00    0.70
   2 -10   4    1.50    1.30
  -3  10  -4    2.70    1.10
   3 -10   4    0.00    1.30
   3 -10   4    2.80    0.90
  -4  10  -4    0.00    1.00
   4 -10   4    0.80    0.90
  -5  10  -4    1.60    1.20
   5 -10   4    1.10    1.00
   5   9  -4   26.20    2.10
   5   9  -4   22.00    2.00
  -5  -9   4   26.60    2.30
   4   9  -4    1.10    1.10
   4   9  -4    1.80    0.80
  -4  -9   4    2.70    1.10
   3   9  -4    1.20    0.70
   3   9  -4    1.00    0.90
   3   9  -4    1.40    0.70
  -3  -9   4    2.20    1.10
   2   9  -4    6.20    0.90
   2   9  -4    7.70    0.90
  -2  -9   4    7.00    1.30
   1   9  -4   15.60    1.10
   1   9  -4   16.00    1.50
  -1  -9   4   14.90    1.10
  -1  -9   4   15.70    2.10
   0   9  -4   85.39    2.70
   0  -9   4   85.19    2.30
   0  -9   4   87.79    3.50
  -1   9  -4    1.20    1.00
   1  -9   4    2.20    0.60
   1  -9   4    2.80    1.30
  -2   9  -4    0.60    0.90
   2  -9   4    1.20    1.20
   2  -9   4    1.20    0.70
  -3   9  -4    1.50    1.00
   3  -9   4    4.10    0.90
   3  -9   4    2.50    1.30
  -4   9  -4   30.50    2.20
   4  -9   4   34.60    2.00
  -5   9  -4    0.20    1.10
   5  -9   4    1.30    1.00
   5   8  -4    6.50    1.20
   5   8  -4    4.60    1.20
  -5  -8   4    4.30    1.10
   4   8  -4   67.69    2.50
   4   8  -4   71.49    2.60
  -4  -8   4   70.09    3.00
   3   8  -4    0.00    0.60
   3   8  -4    0.00    0.90
   3   8  -4    1.00    0.60
  -3  -8   4    0.40    0.90
   2   8  -4   12.40    1.00
   2   8  -4   10.80    1.20
  -2  -8   4    8.80    1.30
   1   8  -4   54.39    2.00
   1   8  -4   54.19    1.70
  -1  -8   4   51.09    2.60
  -1  -8   4   54.49    1.70
   0  -8   4   45.60    1.60
   0  -8   4   42.60    2.60
  -1   8  -4   54.09    2.20
   1  -8   4   53.49    1.80
   1  -8   4   52.59    2.80
  -2   8  -4    0.20    0.80
   2  -8   4    0.90    0.60
   2  -8   4    2.50    1.20
  -3   8  -4   16.10    1.70
   3  -8   4   17.60    1.50
   3  -8   4   16.40    2.00
  -4   8  -4    6.30    1.20
   4  -8   4    7.80    1.20
  -5   8  -4    0.00    1.00
   5  -8   4    0.30    0.90
   6   7  -4    0.00    1.00
   6   7  -4    2.30    1.00
  -6  -7   4    0.80    0.80
   5   7  -4   22.30    1.80
   5   7  -4   25.30    1.80
  -5  -7   4   25.10    2.00
   4   7  -4    1.10    0.80
   4   7  -4    1.80    1.00
  -4  -7   4    2.30    0.90
   3   7  -4   40.20    1.70
   3   7  -4   39.60    1.50
  -3  -7   4   42.10    2.30
   2   7  -4    2.90    0.70
   2   7  -4    2.40    0.60
  -2  -7   4    2.00    1.00
   1   7  -4  102.99    2.40
   1   7  -4  100.09    2.60
  -1  -7   4   99.89    2.40
  -1  -7   4  104.29    3.30
   0   7  -4  718.73   10.70
   0  -7   4  688.33   12.40
   0  -7   4  709.33   10.30
  -1   7  -4   20.20    1.60
  -1   7  -4   20.40    0.80
   1  -7   4   18.90    1.20
   1  -7   4   19.10    1.90
  -2   7  -4   23.70    1.30
  -2   7  -4   22.10    1.70
   2  -7   4   23.50    2.00
   2  -7   4   22.00    1.40
  -3   7  -4    1.60    0.80
  -3   7  -4    0.00    0.90
   3  -7   4    1.30    0.70
   3  -7   4    0.80    1.00
  -4   7  -4    2.10    1.00
  -4   7  -4    3.90    1.10
   4  -7   4    3.00    1.00
  -5   7  -4   12.00    1.90
  -5   7  -4    5.40    1.20
   5  -7   4    7.90    1.30
  -6   7  -4    3.80    1.40
   6  -7   4    0.90    1.20
   6   6  -4    0.70    1.00
   6   6  -4    2.00    0.90
  -6  -6   4    1.10    0.80
   5   6  -4   53.99    2.30
   5   6  -4   55.69    2.20
  -5  -6   4   54.39    2.60
  -5  -6   4   54.79    2.70
   4   6  -4   10.00    1.20
   4   6  -4    9.50    1.10
  -4  -6   4   11.70    1.50
  -4  -6   4   11.70    1.40
   3   6  -4    2.10    0.60
   3   6  -4    2.00    0.70
  -3  -6   4    1.80    0.80
  -3  -6   4    2.60    0.80
   2   6  -4    0.70    0.50
   2   6  -4    0.00    0.40
  -2  -6   4    0.00    0.70
  -2  -6   4    0.70    0.40
   1   6  -4   11.90    1.10
  -1  -6   4   11.00    0.80
  -1  -6   4    9.90    1.40
   0   6  -4    0.10    0.70
   0  -6   4    0.00    0.80
   0  -6   4    0.10    0.40
  -1   6  -4   62.59    1.60
  -1   6  -4   64.39    2.10
   1  -6   4   63.09    2.40
   1  -6   4   62.69    1.80
  -2   6  -4   18.50    1.40
  -2   6  -4   18.80    1.30
   2  -6   4   18.10    1.20
   2  -6   4   19.30    1.70
  -3   6  -4   90.09    3.00
  -3   6  -4   92.09    2.80
   3  -6   4   88.39    2.90
   3  -6   4   90.39    2.60
  -4   6  -4    4.10    1.00
  -4   6  -4    5.90    1.30
   4  -6   4    4.10    1.00
  -5   6  -4    2.10    1.20
  -5   6  -4    0.00    0.90
   5  -6   4    0.00    0.90
  -6   6  -4    5.60    1.60
   6  -6   4    0.00    1.10
   6   5  -4    1.60    1.00
   6   5  -4    2.50    0.90
  -6  -5   4    5.20    1.30
  -6  -5   4    2.80    0.90
   5   5  -4    0.00    0.80
   5   5  -4    0.50    0.80
  -5  -5   4    1.50    0.80
  -5  -5   4    3.10    1.10
   4   5  -4   18.30    1.40
   4   5  -4   18.70    1.30
  -4  -5   4   19.30    1.60
  -4  -5   4   19.70    1.60
   3   5  -4  104.09    2.20
   3   5  -4  109.19    2.60
  -3  -5   4  105.29    2.80
  -3  -5   4  105.29    3.10
   2   5  -4   93.09    2.20
   2   5  -4   90.79    2.10
  -2  -5   4   88.79    2.10
   1   5  -4  173.28    3.20
  -1  -5   4  164.18    3.80
  -1  -5   4  165.28    3.10
   0   5  -4   96.99    2.30
   0  -5   4   94.39    2.70
   0  -5   4   93.29    2.10
  -1   5  -4    5.20    0.70
  -1   5  -4    3.80    0.70
   1  -5   4    4.10    0.80
   1  -5   4    3.50    0.60
  -2   5  -4    1.30    0.80
  -2   5  -4    1.00    0.80
   2  -5   4    0.60    0.60
   2  -5   4    1.30    0.80
  -3   5  -4  159.88    3.60
  -3   5  -4  157.38    4.20
   3  -5   4  156.38    3.50
   3  -5   4  155.38    3.70
  -4   5  -4    8.10    1.10
  -4   5  -4   10.00    1.50
   4  -5   4    7.80    1.10
  -5   5  -4    0.20    0.90
  -5   5  -4    3.70    1.40
   5  -5   4    1.20    1.00
  -6   5  -4    3.80    1.50
   6  -5   4    0.90    1.20
  -7  -4   4   14.80    2.30
   6   4  -4    0.70    0.90
   6   4  -4    1.60    0.70
  -6  -4   4    3.40    1.20
  -6  -4   4    2.10    0.80
   5   4  -4    1.80    0.70
   5   4  -4    1.20    0.80
  -5  -4   4    2.80    1.00
  -5  -4   4    1.40    0.80
   4   4  -4  169.78    3.40
   4   4  -4  166.88    3.60
  -4  -4   4  162.08    4.30
  -4  -4   4  167.48    4.20
   3   4  -4   27.80    1.30
   3   4  -4   27.60    1.00
  -3  -4   4   26.80    1.40
  -3  -4   4   26.30    1.60
   2   4  -4  288.27    4.50
   2   4  -4  289.57    4.70
  -2  -4   4  277.67    5.30
  -2  -4   4  275.97    5.50
   1   4  -4   15.60    0.90
  -1  -4   4   14.10    0.80
  -1  -4   4   15.00    1.10
   0   4  -4    0.80    0.50
   0  -4   4    0.70    0.40
   0  -4   4    0.60    0.60
  -1   4  -4 1093.99   15.50
  -1   4  -4 1124.99   19.40
   1  -4   4 1096.09   15.20
   1  -4   4 1117.69   18.10
  -2   4  -4  917.31   12.90
  -2   4  -4  892.81   15.80
   2  -4   4  895.51   12.70
   2  -4   4  861.01   14.30
  -3   4  -4  141.19    3.10
  -3   4  -4  141.19    4.10
   3  -4   4  143.49    3.20
   3  -4   4  134.59    3.10
  -4   4  -4    4.80    0.90
  -4   4  -4    6.70    1.50
   4  -4   4    6.70    1.10
  -5   4  -4    5.00    1.00
  -5   4  -4    8.20    1.70
   5  -4   4    8.10    1.30
  -6   4  -4    6.10    1.80
   6  -4   4    2.70    1.20
   7   3  -4    1.10    1.20
  -7  -3   4    7.30    1.60
   6   3  -4    9.40    1.30
  -6  -3   4    8.70    1.20
  -6  -3   4   12.00    1.80
   5   3  -4    0.30    0.70
   5   3  -4    0.30    0.60
  -5  -3   4    2.00    1.00
  -5  -3   4    0.70    0.60
   4   3  -4   54.39    1.70
  -4  -3   4   53.09    2.20
  -4  -3   4   56.59    2.30
   3   3  -4    0.40    0.30
   3   3  -4    0.90    0.50
  -3  -3   4    0.20    0.60
  -3  -3   4    0.20    0.60
   2   3  -4  488.95    7.10
   2   3  -4  477.05    6.90
  -2  -3   4  471.05    8.50
  -2  -3   4  480.05    8.40
   1   3  -4   67.19    1.60
  -1  -3   4   66.69    1.40
  -1  -3   4   66.79    1.90
  -1  -3   4   66.99    1.60
   0   3  -4   84.69    1.90
   0   3  -4   88.19    1.90
   0  -3   4   87.29    1.80
   0  -3   4   86.59    2.10
  -1   3  -4  130.49    2.60
  -1   3  -4  133.19    3.00
   1  -3   4  127.29    2.50
   1  -3   4  130.99    2.70
  -2   3  -4 1096.19   15.30
  -2   3  -4 1087.19   19.00
   2  -3   4 1083.09   17.10
   2  -3   4 1070.09   15.10
  -3   3  -4   19.60    2.00
  -3   3  -4   18.50    1.30
   3  -3   4   21.20    1.40
   3  -3   4   20.60    1.10
  -4   3  -4    7.60    1.70
  -4   3  -4    5.80    0.90
  -5   3  -4   11.60    1.40
  -5   3  -4   16.40    2.40
   5  -3   4   13.40    1.70
  -6   3  -4    8.70    1.90
   6  -3   4    5.00    1.30
   7   2  -4    2.80    1.20
   7   2  -4    5.00    1.00
  -7  -2   4    4.80    1.10
  -7  -2   4    5.50    1.50
   6   2  -4   11.40    1.40
  -6  -2   4   10.40    1.40
  -6  -2   4   12.70    1.80
   5   2  -4  198.08    3.70
   5   2  -4  203.38    4.30
  -5  -2   4  199.48    4.80
  -5  -2   4  195.78    5.20
   4   2  -4  148.09    2.80
   4   2  -4  145.09    3.20
  -4  -2   4  146.89    3.90
  -4  -2   4  141.79    3.60
   3   2  -4   37.20    0.80
   3   2  -4   37.10    1.30
  -3  -2   4   36.90    1.60
  -3  -2   4   38.00    1.60
   2   2  -4    0.00    0.30
   2   2  -4    0.20    0.30
  -2  -2   4    0.00    0.30
  -2  -2   4    0.00    0.40
   1   2  -4  145.09    2.40
  -1  -2   4  140.99    2.90
  -1  -2   4  142.69    2.50
  -1  -2   4  139.19    2.70
   0   2  -4   70.09    1.70
   0   2  -4   69.89    1.50
   0  -2   4   69.49    1.50
   0  -2   4   70.49    1.60
  -1   2  -4   23.40    1.40
   1  -2   4   22.90    0.90
   1  -2   4   22.60    0.80
  -2   2  -4  748.03   13.50
  -2   2  -4  746.33   10.70
   2  -2   4  704.23   11.60
   2  -2   4  736.33   10.70
   2  -2   4  744.53   10.60
  -3   2  -4   40.60    2.70
  -3   2  -4   39.60    1.50
   3  -2   4   41.90    1.50
   3  -2   4   40.00    1.60
  -4   2  -4    8.00    0.90
  -4   2  -4    9.80    1.90
   4  -2   4    5.90    1.00
   4  -2   4    7.00    0.90
  -5   2  -4   10.80    1.30
  -5   2  -4   12.60    2.10
   5  -2   4   14.30    1.50
  -6   2  -4    7.20    2.00
   6  -2   4    4.30    1.20
   7   1  -4    0.00    1.00
   7   1  -4    1.70    0.70
  -7  -1   4    0.80    0.80
  -7  -1   4    1.50    1.20
   6   1  -4    0.30    0.90
  -6  -1   4    0.50    0.70
  -6  -1   4    1.60    1.10
   5   1  -4  355.66    5.70
   5   1  -4  363.76    6.50
  -5  -1   4  350.16    8.10
  -5  -1   4  417.56    7.50
   4   1  -4   53.79    1.50
  -4  -1   4   52.39    2.00
  -4  -1   4   52.09    2.20
   3   1  -4  145.19    2.80
  -3  -1   4  147.89    3.50
  -3  -1   4  140.99    3.30
   2   1  -4  182.58    2.70
   2   1  -4  178.88    3.10
  -2  -1   4  181.58    3.70
  -2  -1   4  181.38    3.80
   1   1  -4  135.89    2.20
  -1  -1   4  130.79    2.20
  -1  -1   4  132.09    2.30
  -1  -1   4  132.89    2.70
  -1  -1   4  133.09    2.70
   0   1  -4  141.09    2.90
   0   1  -4  137.59    2.50
   0  -1   4  139.69    2.60
   0  -1   4  139.09    2.50
   0  -1   4  140.89    2.40
  -1   1  -4  135.29    2.60
  -1   1  -4  140.49    3.30
   1  -1   4  134.19    2.30
   1  -1   4  134.39    2.50
   1  -1   4  138.59    2.60
  -2   1  -4    0.30    0.40
  -2   1  -4    2.10    1.10
   2  -1   4    2.20    0.50
   2  -1   4    1.80    0.50
  -3   1  -4   42.50    2.70
  -3   1  -4   43.10    1.50
   3  -1   4   42.20    1.70
   3  -1   4   42.90    1.60
  -4   1  -4    0.80    0.60
  -4   1  -4    3.20    1.80
   4  -1   4    1.70    0.80
   4  -1   4    0.70    0.70
  -5   1  -4   38.50    3.10
  -5   1  -4   36.30    1.70
   5  -1   4   33.70    1.70
   5  -1   4   35.60    2.00
  -6   1  -4    7.30    2.10
   6  -1   4    4.20    1.20
   7   0  -4    1.10    0.80
   7   0  -4    0.00    1.00
  -7   0   4    0.00    0.70
  -7   0   4    1.30    1.20
   6   0  -4    8.90    1.30
   6   0  -4    7.80    1.20
  -6   0   4    8.20    1.60
  -6   0   4    6.80    1.10
   5   0  -4   89.99    2.60
  -5   0   4   91.69    3.30
  -5   0   4   90.79    2.90
   4   0  -4   72.29    1.60
  -4   0   4   71.19    2.60
  -4   0   4   73.49    2.30
  -3   0   4   93.39    2.60
  -3   0   4   94.59    2.50
   2   0  -4  871.31   12.00
   2   0  -4  882.21   12.40
  -2   0   4  882.71   14.30
  -2   0   4  895.81   12.40
  -2   0   4  875.41   15.30
   1   0  -4  271.37    4.00
  -1   0   4  268.77    3.90
  -1   0   4  263.97    4.00
  -1   0   4  262.67    5.00
  -1   0   4  258.17    4.70
   0   0  -4  870.41   15.00
   0   0   4  873.41   12.80
   0   0   4  878.01   14.60
  -1   0  -4  105.79    2.80
   1   0   4  105.59    2.00
   1   0   4  105.19    2.10
  -2   0  -4   42.60    2.10
   2   0   4   44.10    1.40
   2   0   4   42.80    1.40
  -3   0  -4  100.99    3.90
   3   0   4   98.09    2.40
   3   0   4   95.89    2.40
  -4   0  -4   42.50    3.10
  -4   0  -4   43.10    1.60
   4   0   4   42.40    1.70
   4   0   4   44.60    1.90
  -5   0  -4    4.10    1.90
  -5   0  -4    2.60    0.70
   5   0   4    2.20    0.80
   5   0   4    3.50    1.00
  -6   0  -4    3.60    2.00
   6   0   4    0.00    1.00
   7  -1  -4    0.60    0.80
   7  -1  -4    0.00    1.10
  -7   1   4    0.10    0.80
  -7   1   4    2.50    1.30
   6  -1  -4    1.20    0.70
   6  -1  -4    0.80    0.90
  -6   1   4    0.80    0.70
  -6   1   4    0.60    1.10
   5  -1  -4   11.60    1.30
   5  -1  -4   12.10    1.30
  -5   1   4   11.90    1.70
  -5   1   4    9.20    1.20
   4  -1  -4   53.09    1.10
   4  -1  -4   52.89    2.00
   4  -1  -4   54.39    1.80
  -4   1   4   53.09    2.30
  -4   1   4   54.29    2.00
   3  -1  -4  126.79    1.90
   3  -1  -4  123.89    3.00
   3  -1  -4  127.79    2.50
  -3   1   4  124.09    3.00
   2  -1  -4 1484.55   21.20
   2  -1  -4 1521.45   25.90
  -2   1   4 1518.25   25.90
  -2   1   4 1474.15   21.00
  -2   1   4 1472.65   26.30
   1  -1  -4  473.65    7.90
   1  -1  -4  489.35    6.50
  -1   1   4  465.55    7.80
  -1   1   4  473.05    6.70
  -1   1   4  467.65    8.50
  -1   1   4  467.45    6.50
   0  -1  -4   35.40    1.40
   0  -1  -4   36.90    1.00
   0   1   4   37.00    0.90
  -1  -1  -4 1250.87   20.10
  -1  -1  -4 1246.58   21.40
   1   1   4 1224.58   17.00
   1   1   4 1211.18   33.30
  -2  -1  -4    8.30    1.40
   2   1   4    7.70    0.80
   2   1   4    7.00    0.70
  -3  -1  -4  154.48    4.90
   3   1   4  151.98    3.20
   3   1   4  152.48    3.20
  -4  -1  -4   63.79    3.70
   4   1   4   64.59    2.20
   4   1   4   64.09    2.10
  -5  -1  -4    3.20    0.70
  -5  -1  -4    0.30    1.80
   5   1   4    2.10    0.90
   5   1   4    0.90    0.70
  -6  -1  -4    7.20    2.30
   6   1   4    5.50    1.30
   7  -2  -4    1.80    1.20
   7  -2  -4    1.70    0.90
  -7   2   4    4.30    1.50
   6  -2  -4    3.80    0.90
   6  -2  -4    2.70    1.00
  -6   2   4    5.60    1.40
  -6   2   4    3.00    0.90
   5  -2  -4    7.00    1.00
   5  -2  -4    5.80    0.90
  -5   2   4    8.10    1.40
  -5   2   4    5.60    0.90
   4  -2  -4   54.59    1.80
   4  -2  -4   55.79    2.00
  -4   2   4   52.59    2.20
  -4   2   4   54.89    2.00
   3  -2  -4  349.47    6.50
   3  -2  -4  349.37    5.40
  -3   2   4  341.67    6.40
  -3   2   4  346.27    7.00
  -3   2   4  341.67    4.90
   2  -2  -4   26.70    1.20
   2  -2  -4   29.10    0.90
  -2   2   4   28.20    0.80
  -2   2   4   26.40    1.30
  -2   2   4   28.50    1.20
   1  -2  -4  472.35    7.90
   1  -2  -4  476.95    6.40
  -1   2   4  474.05    6.80
  -1   2   4  463.65    8.60
   0  -2  -4  553.44    8.90
   0  -2  -4  526.95    9.90
   0   2   4  556.04    8.00
   0   2   4  553.34    7.40
  -1  -2  -4    8.60    1.20
  -1  -2  -4    7.70    0.70
   1   2   4    5.90    0.70
   1   2   4    6.30    0.50
   1   2   4    6.10    0.60
  -2  -2  -4  288.67    6.60
  -2  -2  -4  296.97    4.90
   2   2   4  294.37    4.80
   2   2   4  295.77    4.70
   2   2   4  285.77    4.90
  -3  -2  -4    2.90    1.80
   3   2   4    2.10    0.70
   3   2   4    2.60    0.60
   3   2   4    3.00    0.70
  -4  -2  -4   11.00    2.00
   4   2   4   10.60    1.20
   4   2   4   10.70    1.10
  -5  -2  -4    0.00    1.90
   5   2   4    0.00    0.80
   5   2   4    0.00    0.70
  -6  -2  -4    6.60    2.40
   6   2   4    4.50    1.30
   7  -3  -4    6.90    1.40
   7  -3  -4    6.50    1.30
  -7   3   4    8.50    1.70
   6  -3  -4   14.80    1.60
   6  -3  -4   16.30    1.80
  -6   3   4   18.30    2.10
   5  -3  -4   58.39    2.10
   5  -3  -4   54.69    2.40
  -5   3   4   55.49    2.60
   4  -3  -4   33.30    1.70
   4  -3  -4   32.20    1.50
  -4   3   4   29.80    1.80
   3  -3  -4  184.28    4.10
   3  -3  -4  193.28    3.30
  -3   3   4  183.38    3.00
  -3   3   4  186.38    4.40
   2  -3  -4  294.47    4.30
   2  -3  -4  292.57    5.50
  -2   3   4  287.27    5.90
  -2   3   4  285.57    4.40
   1  -3  -4    0.20    0.30
   1  -3  -4    0.10    0.20
  -1   3   4    0.00    0.30
  -1   3   4    0.00    0.40
   0  -3  -4  235.88    4.40
   0  -3  -4  232.98    5.00
   0   3   4  229.48    3.20
   0   3   4  229.58    3.60
   0   3   4  232.78    3.90
  -1  -3  -4  680.53   12.70
  -1  -3  -4  709.43   11.30
   1   3   4  670.43   10.10
   1   3   4  709.13    9.60
   1   3   4  672.03    9.40
  -2  -3  -4    0.50    1.20
  -2  -3  -4    0.00    0.50
   2   3   4    0.00    0.50
   2   3   4    0.70    0.50
   2   3   4    0.30    0.50
  -3  -3  -4   22.60    2.80
   3   3   4   20.10    1.30
   3   3   4   18.70    1.20
   3   3   4   17.40    1.20
  -4  -3  -4  177.18    5.80
   4   3   4  179.78    3.90
   4   3   4  179.48    3.90
   4   3   4  180.08    3.90
  -5  -3  -4    0.00    1.90
   5   3   4    0.60    0.80
   5   3   4    0.00    0.70
  -6  -3  -4    0.70    2.20
   6   3   4    0.90    1.10
   7  -4  -4    3.30    1.30
   7  -4  -4    2.90    1.20
  -7   4   4    5.80    1.60
   6  -4  -4    0.00    0.80
   6  -4  -4    0.00    0.90
  -6   4   4    0.10    1.10
   5  -4  -4   17.80    1.50
   5  -4  -4   17.00    1.60
  -5   4   4   18.20    1.80
   4  -4  -4    0.00    0.60
   4  -4  -4    0.00    0.60
  -4   4   4    0.10    0.80
   3  -4  -4  225.18    3.70
   3  -4  -4  222.78    4.80
  -3   4   4  219.08    5.10
  -3   4   4  217.88    3.60
   2  -4  -4  352.36    5.00
   2  -4  -4  342.27    6.50
  -2   4   4  340.07    7.00
  -2   4   4  345.17    5.30
   1  -4  -4   92.79    2.40
  -1   4   4   90.39    2.60
  -1   4   4   90.99    1.70
  -1   4   4   91.39    2.00
   0  -4  -4  109.19    2.70
   0  -4  -4  107.99    3.00
   0   4   4  102.69    2.30
   0   4   4  110.79    2.10
  -1  -4  -4   21.00    1.40
  -1  -4  -4   19.30    1.60
   1   4   4   18.70    1.00
   1   4   4   17.60    1.00
   1   4   4   19.50    0.70
  -2  -4  -4   37.90    1.70
  -2  -4  -4   42.20    2.50
   2   4   4   38.80    1.30
   2   4   4   38.40    1.40
   2   4   4   39.30    1.50
  -3  -4  -4   47.20    3.30
   3   4   4   43.60    1.70
   3   4   4   42.30    1.80
   3   4   4   44.60    1.70
  -4  -4  -4    1.30    1.90
   4   4   4    3.30    0.80
   4   4   4    3.90    0.90
   4   4   4    3.80    0.90
  -5  -4  -4    1.40    2.10
   5   4   4    2.80    0.90
   5   4   4    1.20    0.90
   5   4   4    1.70    0.90
   7  -5  -4    0.00    1.00
   7  -5  -4    0.30    1.10
  -7   5   4    1.60    1.30
   6  -5  -4    7.60    1.20
   6  -5  -4    6.70    1.30
  -6   5   4    8.80    1.60
   5  -5  -4    6.10    1.10
   5  -5  -4    6.70    1.00
  -5   5   4    9.90    1.60
   4  -5  -4  109.59    3.30
   4  -5  -4  106.29    2.50
  -4   5   4  104.19    3.40
  -4   5   4  100.89    2.30
   3  -5  -4  125.59    2.50
   3  -5  -4  127.29    3.40
  -3   5   4  125.89    2.50
  -3   5   4  124.59    3.50
   2  -5  -4   51.19    2.00
   2  -5  -4   48.20    1.10
  -2   5   4   48.40    2.00
  -2   5   4   45.70    1.00
  -2   5   4   49.60    1.50
   1  -5  -4  345.97    6.60
  -1   5   4  338.17    7.00
  -1   5   4  344.67    5.60
  -1   5   4  337.57    5.00
   0  -5  -4   43.90    1.90
   0  -5  -4   42.30    1.90
   0   5   4   43.10    1.30
   0   5   4   40.70    1.40
  -1  -5  -4  814.82   13.50
  -1  -5  -4  787.52   14.80
   1   5   4  784.62   10.60
   1   5   4  814.32   11.20
   1   5   4  783.22   11.80
  -2  -5  -4  140.79    4.40
  -2  -5  -4  141.39    3.50
   2   5   4  141.99    3.10
   2   5   4  139.29    2.60
   2   5   4  133.99    3.00
  -3  -5  -4   84.19    3.90
   3   5   4   82.29    2.50
   3   5   4   83.59    2.20
   3   5   4   84.89    2.50
  -4  -5  -4   35.00    3.40
   4   5   4   36.20    1.70
   4   5   4   40.00    1.80
   4   5   4   38.40    1.90
  -5  -5  -4    3.10    2.40
   5   5   4    4.10    1.00
   7  -6  -4    0.60    1.20
  -7   6   4    1.30    1.30
   6  -6  -4    7.10    1.40
   6  -6  -4    8.90    1.30
  -6   6   4    9.20    1.70
   5  -6  -4    0.40    0.70
   5  -6  -4    0.00    0.90
  -5   6   4    0.70    0.90
   4  -6  -4   70.39    2.00
   4  -6  -4   73.99    2.80
  -4   6   4   68.09    1.80
  -4   6   4   68.29    2.80
   3  -6  -4   11.80    1.40
   3  -6  -4    9.80    0.90
  -3   6   4    9.40    1.00
  -3   6   4    9.10    1.20
   2  -6  -4    0.00    0.30
   2  -6  -4    0.30    0.60
  -2   6   4    0.20    0.60
  -2   6   4    0.00    0.30
  -2   6   4    0.00    0.50
   1  -6  -4   53.39    2.20
  -1   6   4   53.29    1.70
  -1   6   4   52.29    2.10
  -1   6   4   49.99    1.40
   0  -6  -4  155.78    4.10
   0  -6  -4  157.48    4.00
   0   6   4  158.58    3.30
   0   6   4  155.88    3.00
  -1  -6  -4   27.00    2.00
  -1  -6  -4   26.60    2.10
   1   6   4   26.90    1.30
   1   6   4   26.00    1.40
  -2  -6  -4   19.10    1.80
  -2  -6  -4   18.50    2.30
   2   6   4   20.50    1.40
   2   6   4   16.70    1.30
  -3  -6  -4  110.09    4.50
   3   6   4  111.99    3.00
   3   6   4  112.79    3.00
  -4  -6  -4    1.20    2.10
   4   6   4    3.80    0.90
   4   6   4    3.20    0.90
  -5  -6  -4   21.60    3.30
   5   6   4   26.80    1.90
   6  -7  -4    2.40    1.30
  -6   7   4    4.00    1.40
   5  -7  -4   11.20    1.60
  -5   7   4   13.60    1.90
   4  -7  -4   24.90    1.90
  -4   7   4   25.30    1.30
  -4   7   4   27.10    2.00
   3  -7  -4  282.97    6.30
  -3   7   4  271.97    6.40
  -3   7   4  271.67    4.90
   2  -7  -4   30.70    2.10
  -2   7   4   27.50    1.40
  -2   7   4   28.40    1.80
  -2   7   4   27.30    1.00
   1  -7  -4   21.90    2.00
  -1   7   4   20.10    1.30
  -1   7   4   21.30    1.10
  -1   7   4   20.90    1.60
   0  -7  -4   16.80    2.00
   0  -7  -4   15.40    1.60
   0   7   4   15.10    1.10
   0   7   4   15.10    1.10
  -1  -7  -4    3.40    1.20
  -1  -7  -4    3.70    1.30
   1   7   4    2.10    0.70
   1   7   4    2.50    0.80
  -2  -7  -4   39.30    2.20
  -2  -7  -4   34.80    2.70
   2   7   4   36.50    1.70
   2   7   4   37.00    1.80
  -3  -7  -4   15.20    2.30
   3   7   4   15.30    1.50
   3   7   4   15.30    1.40
  -4  -7  -4    3.20    2.30
   4   7   4    5.80    1.20
   4   7   4    5.40    1.00
   5   7   4    1.50    0.90
   6  -8  -4    0.00    1.30
  -6   8   4    1.60    1.30
   5  -8  -4    1.70    1.20
  -5   8   4    5.60    1.40
   4  -8  -4    2.50    1.30
  -4   8   4    3.80    1.20
  -4   8   4    2.20    0.70
   3  -8  -4   25.60    2.20
  -3   8   4   26.30    1.50
  -3   8   4   25.30    1.90
   2  -8  -4   54.49    2.70
  -2   8   4   55.89    2.00
  -2   8   4   55.79    2.50
   1  -8  -4   36.70    2.50
  -1   8   4   34.30    1.30
  -1   8   4   34.30    2.10
  -1   8   4   35.90    1.70
   0  -8  -4    2.60    1.30
   0  -8  -4    1.90    1.10
   0   8   4    1.60    0.60
   0   8   4    1.60    0.70
  -1  -8  -4   39.40    2.60
  -1  -8  -4   43.00    2.60
   1   8   4   41.80    1.80
   1   8   4   42.20    1.80
  -2  -8  -4    4.60    1.20
  -2  -8  -4    4.20    1.70
   2   8   4    3.60    0.90
   2   8   4    3.40    0.90
  -3  -8  -4    0.30    1.80
   3   8   4    3.00    0.90
   3   8   4    2.10    0.90
  -4  -8  -4    0.00    2.40
   4   8   4    1.20    1.00
   4   8   4    2.00    0.90
   6  -9  -4    0.00    1.40
  -6   9   4    4.20    1.50
   5  -9  -4    6.90    1.70
  -5   9   4   12.20    2.00
   4  -9  -4    5.50    1.50
  -4   9   4    6.90    1.40
  -4   9   4    6.90    0.90
   3  -9  -4    1.40    1.10
  -3   9   4    1.40    1.00
  -3   9   4    1.70    0.80
   2  -9  -4   61.19    3.20
  -2   9   4   60.19    2.20
  -2   9   4   57.39    2.70
   1  -9  -4  206.48    5.60
   1  -9  -4  213.88    5.40
  -1   9   4  207.08    5.40
  -1   9   4  211.48    4.50
  -1   9   4  202.78    3.80
   0  -9  -4   65.29    2.90
   0  -9  -4   68.19    3.30
   0   9   4   64.29    2.10
   0   9   4   67.39    2.40
  -1  -9  -4   64.89    3.10
  -1  -9  -4   62.79    3.20
   1   9   4   66.39    2.40
   1   9   4   59.69    2.20
  -2  -9  -4    3.00    1.30
  -2  -9  -4    2.10    1.70
   2   9   4    2.30    0.90
   2   9   4    2.60    0.90
  -3  -9  -4   22.30    3.00
   3   9   4   23.00    1.70
   3   9   4   25.10    1.90
   4   9   4    3.20    1.10
   4   9   4    2.80    1.00
   5 -10  -4    1.90    1.70
  -5  10   4    6.50    1.60
   4 -10  -4    9.00    1.90
  -4  10   4   11.40    1.70
  -4  10   4   15.10    1.40
   3 -10  -4    4.50    1.50
  -3  10   4    6.30    1.30
  -3  10   4    6.80    1.10
   2 -10  -4    9.40    1.80
  -2  10   4   11.00    1.40
  -2  10   4    9.80    1.50
   1 -10  -4    4.60    1.60
   1 -10  -4    6.30    1.30
  -1  10   4    2.80    0.80
   0 -10  -4    7.50    1.50
   0 -10  -4    6.60    1.60
   0  10   4    7.40    1.00
   0  10   4    7.50    1.10
  -1 -10  -4   32.70    2.90
  -1 -10  -4   29.60    2.80
   1  10   4   31.30    1.70
   1  10   4   33.70    2.00
  -2 -10  -4   12.70    2.30
  -2 -10  -4   13.80    1.90
   2  10   4   16.90    1.60
   2  10   4   16.20    1.50
   3  10   4    3.20    1.10
   3  10   4    2.10    1.00
   5 -11  -4    0.00    1.90
  -4  11   4    1.60    0.80
  -4  11   4    0.00    1.00
   3 -11  -4   17.30    2.40
  -3  11   4   22.70    1.70
  -3  11   4   19.50    2.10
   2 -11  -4    2.60    1.70
  -2  11   4    5.60    1.00
  -2  11   4    3.90    1.30
   1 -11  -4    2.80    1.70
   1 -11  -4    7.00    1.50
  -1  11   4    6.40    1.10
   0 -11  -4    0.00    1.40
   0 -11  -4    0.00    1.20
   0  11   4    0.30    0.70
   0  11   4    0.40    0.80
  -1 -11  -4   71.59    3.90
  -1 -11  -4   72.29    3.90
   1  11   4   78.29    2.90
   1  11   4   75.89    2.60
  -2 -11  -4    5.20    1.80
   2  11   4    8.40    1.30
   2  11   4    9.70    1.40
   4 -12  -4    0.20    2.20
  -4  12   4   12.00    1.90
   3 -12  -4    0.00    1.90
  -3  12   4    4.90    1.10
  -3  12   4    2.20    1.30
   2 -12  -4    0.00    1.90
  -2  12   4    0.50    1.20
  -2  12   4    2.90    1.00
   1 -12  -4    7.00    1.60
  -1  12   4    6.50    1.20
   0 -12  -4    0.00    1.60
   0  12   4    0.30    0.90
   0  12   4    0.40    0.80
   1  12   4    9.60    1.40
   1  12   4    8.10    1.20
  -1  13   4   20.40    2.00
   2  13  -5    0.00    1.20
   2  13  -5    1.60    0.90
  -2 -13   5    2.30    1.50
   1  13  -5    5.10    1.20
  -1 -13   5    5.10    1.70
   0  13  -5   27.10    2.30
   0 -13   5   31.60    3.20
  -1  13  -5    5.80    1.40
   1 -13   5    5.80    1.90
  -2  13  -5   13.70    1.80
   2 -13   5   11.90    2.30
   3  12  -5    3.20    1.40
   3  12  -5    7.10    1.20
  -3 -12   5    5.60    1.60
   2  12  -5    1.60    0.90
  -2 -12   5    2.50    1.40
   1  12  -5   13.70    1.70
  -1 -12   5   17.40    2.60
   0  12  -5   11.20    1.50
   0 -12   5   11.30    1.90
   0 -12   5   12.20    1.30
  -1  12  -5   48.00    2.60
   1 -12   5   46.50    3.30
   1 -12   5   47.10    2.10
  -2  12  -5   10.80    1.60
   2 -12   5    6.50    1.80
   2 -12   5   12.30    1.50
  -3  12  -5    3.20    1.30
   3 -12   5    2.90    1.00
   4  11  -5    1.00    1.20
  -4 -11   5    2.40    1.20
   3  11  -5    3.10    1.30
   3  11  -5    2.80    0.90
   3  11  -5    5.40    1.00
  -3 -11   5    4.10    1.40
   2  11  -5    1.40    0.70
   2  11  -5    2.40    0.90
  -2 -11   5    2.40    1.20
   1  11  -5    7.60    1.00
   1  11  -5    7.60    1.20
  -1 -11   5    7.40    1.60
   0  11  -5   27.70    2.00
   0 -11   5   29.20    2.70
   0 -11   5   26.70    1.60
  -1  11  -5    5.40    1.20
   1 -11   5    5.50    1.60
   1 -11   5    6.20    1.00
  -2  11  -5    1.40    1.00
   2 -11   5    0.00    1.30
   2 -11   5    1.50    0.80
  -3  11  -5    1.90    1.30
   3 -11   5    1.70    0.90
  -4  11  -5    6.30    1.50
   4 -11   5    8.70    1.40
   4  10  -5   11.20    1.40
   4  10  -5   10.10    1.60
  -4 -10   5   11.20    1.70
   3  10  -5   10.30    1.20
   3  10  -5    6.00    1.00
   3  10  -5    6.60    1.30
  -3 -10   5    9.00    1.60
   2  10  -5    2.90    0.80
   2  10  -5    2.90    0.90
  -2 -10   5    2.70    1.20
   1  10  -5  220.28    4.50
   1  10  -5  223.58    4.80
  -1 -10   5  221.38    5.90
  -1 -10   5  221.88    4.50
   0  10  -5   17.70    1.70
   0 -10   5   15.70    2.20
   0 -10   5   17.00    1.30
  -1  10  -5    3.10    1.10
   1 -10   5    3.80    0.80
   1 -10   5    3.20    1.40
  -2  10  -5    0.30    0.90
   2 -10   5    0.60    1.30
   2 -10   5    1.30    0.70
  -3  10  -5    4.60    1.30
   3 -10   5    1.20    1.50
   3 -10   5    6.00    1.10
  -4  10  -5    0.20    1.20
   4 -10   5    2.30    1.00
   5   9  -5    1.20    1.00
   5   9  -5    1.60    1.20
  -5  -9   5    3.70    1.20
   4   9  -5    0.00    0.70
   4   9  -5    0.00    1.00
  -4  -9   5    1.40    1.00
   3   9  -5   63.09    2.30
   3   9  -5   62.29    2.10
  -3  -9   5   64.39    3.00
   2   9  -5   34.90    1.70
   2   9  -5   35.10    1.70
  -2  -9   5   36.60    2.40
   1   9  -5   35.80    1.90
   1   9  -5   34.50    1.60
  -1  -9   5   34.90    2.40
  -1  -9   5   35.20    1.50
   0   9  -5    1.90    0.90
   0  -9   5    2.30    1.20
   0  -9   5    2.30    0.70
  -1   9  -5   17.30    1.60
   1  -9   5   20.10    1.30
   1  -9   5   19.50    2.10
  -2   9  -5    8.70    1.30
   2  -9   5    8.10    1.40
   2  -9   5    8.40    1.10
  -3   9  -5   41.70    2.40
   3  -9   5   38.30    2.70
   3  -9   5   46.70    2.10
  -4   9  -5   10.20    1.50
   4  -9   5   14.70    1.70
  -5   9  -5    1.60    1.30
   5  -9   5    5.00    1.20
   5   8  -5    0.00    0.90
   5   8  -5    0.90    1.00
  -5  -8   5    1.20    0.90
   4   8  -5    7.90    1.30
   4   8  -5    5.30    1.00
  -4  -8   5    6.20    1.20
   3   8  -5   98.99    2.60
   3   8  -5  101.39    2.80
  -3  -8   5  101.19    3.60
   2   8  -5   22.00    1.30
   2   8  -5   20.20    1.40
  -2  -8   5   20.80    1.80
   1   8  -5   31.50    1.70
  -1  -8   5   32.00    1.50
  -1  -8   5   29.70    2.30
   0   8  -5  131.59    3.30
   0  -8   5  139.99    4.10
   0  -8   5  137.39    3.10
  -1   8  -5  247.78    5.00
   1  -8   5  244.68    4.60
   1  -8   5  240.78    5.80
  -2   8  -5   16.50    1.70
   2  -8   5   18.50    1.40
   2  -8   5   18.60    2.00
  -3   8  -5    0.60    1.00
   3  -8   5    2.40    0.90
  -4   8  -5    0.50    1.10
   4  -8   5    2.00    0.90
  -5   8  -5    1.60    1.20
   5  -8   5    4.10    1.20
   6   7  -5    0.40    1.10
   6   7  -5    1.10    1.00
  -6  -7   5    2.50    1.00
   5   7  -5    4.00    1.10
   5   7  -5    2.70    1.00
  -5  -7   5    5.00    1.10
   4   7  -5   51.39    2.10
   4   7  -5   47.50    2.10
  -4  -7   5   50.19    2.50
   3   7  -5    0.00    0.60
   3   7  -5    0.60    0.50
  -3  -7   5    0.30    0.80
   2   7  -5   27.70    1.40
   2   7  -5   25.60    1.40
   1   7  -5   14.60    1.30
  -1  -7   5   14.90    1.10
   0   7  -5   51.69    2.00
   0  -7   5   51.99    2.40
   0  -7   5   52.99    1.70
  -1   7  -5   17.60    1.40
   1  -7   5   16.80    1.20
   1  -7   5   19.20    1.80
  -2   7  -5    3.20    1.10
   2  -7   5    3.70    0.80
   2  -7   5    3.80    1.10
  -3   7  -5    1.20    1.00
  -3   7  -5    4.80    1.00
   3  -7   5    3.00    0.90
  -4   7  -5    0.00    1.00
  -4   7  -5    2.30    1.00
   4  -7   5    0.20    0.80
  -5   7  -5    3.90    1.20
  -5   7  -5    0.00    1.00
   5  -7   5    1.30    1.00
   6   6  -5   21.40    1.80
   6   6  -5   18.40    2.10
  -6  -6   5   21.70    1.90
   5   6  -5    3.60    1.00
   5   6  -5    2.60    0.90
  -5  -6   5    3.30    1.00
   4   6  -5   88.39    2.60
   4   6  -5   87.49    2.60
  -4  -6   5   87.79    3.10
   3   6  -5  100.89    2.60
   3   6  -5  100.89    2.30
  -3  -6   5   97.69    3.10
   2   6  -5    6.30    0.80
   2   6  -5    6.50    0.80
  -2  -6   5    4.80    1.00
   1   6  -5   14.60    1.20
  -1  -6   5   12.80    1.50
  -1  -6   5   14.80    1.00
   0   6  -5  127.59    3.00
   0  -6   5  129.59    3.50
   0  -6   5  127.79    2.80
  -1   6  -5    3.00    0.80
  -1   6  -5    4.20    0.60
   1  -6   5    3.30    0.90
   1  -6   5    3.90    0.70
  -2   6  -5   40.30    1.80
  -2   6  -5   39.20    1.90
   2  -6   5   35.60    1.60
   2  -6   5   37.70    2.00
  -3   6  -5  187.08    4.20
  -3   6  -5  183.18    4.70
   3  -6   5  187.28    4.10
  -4   6  -5    1.80    1.10
  -4   6  -5    0.00    0.90
   4  -6   5    0.70    0.80
  -5   6  -5    0.00    1.00
  -5   6  -5    2.90    1.20
   5  -6   5    1.30    1.00
  -6   6  -5    5.30    1.60
   6  -6   5    0.90    1.20
   6   5  -5    3.90    1.00
   6   5  -5    2.40    1.10
  -6  -5   5    6.60    1.40
  -6  -5   5    4.20    1.00
   5   5  -5   66.89    2.50
   5   5  -5   71.09    2.30
  -5  -5   5   65.59    2.80
  -5  -5   5   66.69    2.70
   4   5  -5    3.20    0.90
   4   5  -5    3.00    0.80
  -4  -5   5    2.60    0.90
  -4  -5   5    3.90    0.80
   3   5  -5   18.90    1.00
   3   5  -5   19.40    1.20
  -3  -5   5   18.00    1.60
  -3  -5   5   20.00    1.20
   2   5  -5   24.90    1.20
   2   5  -5   23.30    1.20
  -2  -5   5   21.50    1.60
  -2  -5   5   23.40    0.80
   1   5  -5  126.49    2.70
  -1  -5   5  120.99    3.10
  -1  -5   5  122.09    2.60
   0   5  -5 1314.57   18.50
   0  -5   5 1302.77   21.20
   0  -5   5 1338.27   18.10
  -1   5  -5    9.80    1.00
  -1   5  -5   10.70    1.20
   1  -5   5    8.30    0.90
   1  -5   5    7.90    1.20
  -2   5  -5   88.99    2.50
  -2   5  -5   86.09    2.70
   2  -5   5   85.89    2.50
   2  -5   5   86.49    2.30
  -3   5  -5   15.80    2.00
  -3   5  -5   16.60    1.60
   3  -5   5   16.20    1.30
  -4   5  -5   31.10    2.40
  -4   5  -5   24.30    1.70
   4  -5   5   28.50    1.90
  -5   5  -5    2.30    1.00
  -5   5  -5    4.70    1.50
   5  -5   5    2.80    1.10
  -6   5  -5    5.90    1.70
   6  -5   5    1.20    1.20
   7   4  -5   15.10    1.80
  -7  -4   5   14.30    1.80
   6   4  -5   13.80    1.70
  -6  -4   5   19.80    1.90
  -6  -4   5   15.10    1.60
   5   4  -5    0.00    0.70
   5   4  -5    0.30    0.70
  -5  -4   5    0.80    0.80
  -5  -4   5    0.70    0.70
   4   4  -5   53.59    1.80
   4   4  -5   52.39    2.00
  -4  -4   5   52.19    2.30
  -4  -4   5   51.89    2.20
   3   4  -5   48.90    1.30
   3   4  -5   49.60    1.70
  -3  -4   5   47.90    2.00
  -3  -4   5   46.80    1.70
   2   4  -5  313.97    5.20
   2   4  -5  321.87    5.00
  -2  -4   5  311.97    6.10
  -2  -4   5  307.87    5.70
   1   4  -5  399.16    6.10
  -1  -4   5  390.06    7.10
  -1  -4   5  386.46    6.00
   0   4  -5   27.30    1.20
   0   4  -5   28.90    1.00
   0  -4   5   26.90    1.30
   0  -4   5   27.20    1.10
  -1   4  -5  214.08    4.40
  -1   4  -5  208.28    3.90
   1  -4   5  210.58    4.10
   1  -4   5  205.68    3.80
  -2   4  -5   27.00    1.90
  -2   4  -5   22.20    1.40
   2  -4   5   20.90    1.20
   2  -4   5   18.20    1.20
  -3   4  -5  242.98    5.90
  -3   4  -5  254.37    4.80
   3  -4   5  241.28    4.70
  -4   4  -5   15.70    2.30
  -4   4  -5   13.10    1.40
   4  -4   5   15.10    1.50
  -5   4  -5    4.20    1.10
  -5   4  -5    8.90    1.80
   5  -4   5    4.30    1.10
   6  -4   5    1.10    1.20
   7   3  -5   13.10    1.70
  -7  -3   5   16.50    1.80
  -7  -3   5   21.60    2.40
   6   3  -5   31.50    2.00
  -6  -3   5   34.60    2.10
  -6  -3   5   34.20    2.30
   5   3  -5    1.60    0.80
   5   3  -5    1.60    0.70
  -5  -3   5    1.20    0.80
  -5  -3   5    1.60    0.70
   4   3  -5    4.30    0.80
   4   3  -5    2.90    0.70
  -4  -3   5    3.10    0.80
  -4  -3   5    4.00    0.90
   3   3  -5   22.40    0.80
   3   3  -5   22.80    1.20
  -3  -3   5   21.40    1.20
  -3  -3   5   20.50    1.30
   2   3  -5    5.30    0.70
   2   3  -5    4.40    0.60
  -2  -3   5    5.10    0.50
  -2  -3   5    4.90    0.70
   1   3  -5  480.85    7.10
  -1  -3   5  479.15    7.10
  -1  -3   5  483.55    8.20
  -1  -3   5  472.15    8.20
   0   3  -5   41.80    1.30
   0   3  -5   41.00    1.30
   0  -3   5   42.40    1.30
   0  -3   5   41.00    1.40
  -1   3  -5  131.99    3.30
  -1   3  -5  133.49    2.70
   1  -3   5  129.19    2.60
   1  -3   5  127.69    2.60
  -2   3  -5   14.10    1.80
  -2   3  -5   13.70    1.20
   2  -3   5   14.00    1.10
   2  -3   5   14.00    0.80
  -3   3  -5  119.99    2.90
  -3   3  -5  116.59    4.10
   3  -3   5  119.69    3.00
  -4   3  -5    6.30    1.00
  -4   3  -5    6.80    1.70
   4  -3   5    5.50    1.00
  -5   3  -5   10.60    2.00
  -5   3  -5    7.80    1.20
   5  -3   5    8.50    1.30
  -6   3  -5    3.80    1.80
   6  -3   5    1.30    1.20
   7   2  -5    7.40    1.50
  -7  -2   5    8.90    1.30
   6   2  -5    9.20    1.30
  -6  -2   5    6.00    1.00
  -6  -2   5   11.50    1.80
   5   2  -5    0.20    0.60
   5   2  -5    0.30    0.70
  -5  -2   5    0.50    0.70
  -5  -2   5    1.50    0.90
   4   2  -5  512.65    7.30
   4   2  -5  493.65    7.90
  -4  -2   5  489.55    9.70
  -4  -2   5  499.05    9.20
   3   2  -5  157.48    2.40
   3   2  -5  157.08    3.10
  -3  -2   5  153.88    3.60
  -3  -2   5  153.98    3.60
   2   2  -5   59.69    1.60
   2   2  -5   58.79    1.30
  -2  -2   5   56.89    1.60
  -2  -2   5   60.29    1.90
   1   2  -5  150.38    2.70
  -1  -2   5  150.08    3.00
  -1  -2   5  149.39    2.70
  -1  -2   5  147.99    3.10
   0   2  -5  394.26    7.20
   0   2  -5  398.16    6.10
   0  -2   5  400.56    6.80
   0  -2   5  409.96    6.10
   0  -2   5  405.66    6.00
  -1   2  -5  297.67    4.90
  -1   2  -5  298.97    6.00
   1  -2   5  297.67    4.80
   1  -2   5  297.47    4.90
   1  -2   5  293.57    4.90
  -2   2  -5  177.78    3.40
  -2   2  -5  181.48    4.60
   2  -2   5  174.18    3.40
   2  -2   5  172.68    3.40
  -3   2  -5    4.70    1.60
  -3   2  -5    3.80    0.70
   3  -2   5    4.30    0.80
   3  -2   5    5.40    0.90
  -4   2  -5   13.40    1.20
  -4   2  -5   12.60    2.00
   4  -2   5   13.40    1.40
   4  -2   5   11.10    1.30
  -5   2  -5   25.00    2.80
  -5   2  -5   19.90    1.70
   5  -2   5   21.70    1.90
  -6   2  -5    6.50    2.00
   6  -2   5    2.50    1.20
   7   1  -5    3.80    1.20
   7   1  -5    6.00    1.10
  -7  -1   5    8.80    1.70
  -7  -1   5    6.00    1.20
   6   1  -5    4.00    1.10
  -6  -1   5    3.70    0.90
  -6  -1   5    4.30    1.20
   5   1  -5   25.00    1.60
  -5  -1   5   28.80    1.70
  -5  -1   5   26.70    1.90
   4   1  -5  123.59    2.40
   4   1  -5  127.19    2.90
  -4  -1   5  124.39    3.40
  -4  -1   5  123.69    3.50
   3   1  -5  440.06    6.70
   3   1  -5  432.36    6.00
  -3  -1   5  433.36    8.30
  -3  -1   5  434.76    7.90
   2   1  -5  491.95    6.90
   2   1  -5  475.55    7.20
  -2  -1   5  491.25    8.90
  -2  -1   5  494.25    8.50
   1   1  -5    3.20    0.40
  -1  -1   5    3.60    0.40
  -1  -1   5    4.00    0.50
  -1  -1   5    3.80    0.50
  -1  -1   5    3.80    0.50
   0   1  -5 1102.09   15.80
   0   1  -5 1128.59   19.10
   0  -1   5 1136.29   15.80
   0  -1   5 1134.19   15.90
   0  -1   5 1109.99   18.90
  -1   1  -5   24.50    1.50
  -1   1  -5   22.30    1.00
   1  -1   5   24.30    1.10
   1  -1   5   23.20    0.60
   1  -1   5   23.10    1.00
  -2   1  -5   80.79    2.10
  -2   1  -5   82.79    3.10
   2  -1   5   81.49    2.10
   2  -1   5   83.09    2.10
  -3   1  -5    2.80    0.70
  -3   1  -5    4.10    1.70
   3  -1   5    3.80    0.80
   3  -1   5    3.00    0.80
  -4   1  -5    9.10    1.20
  -4   1  -5    8.40    2.00
   4  -1   5    7.80    1.00
   4  -1   5    8.20    1.10
  -5   1  -5   12.30    2.20
  -5   1  -5   11.70    1.40
   5  -1   5   15.30    1.70
   5  -1   5   12.00    1.40
  -6   1  -5    2.00    1.90
   6  -1   5    0.90    1.10
   7   0  -5    0.10    1.10
   7   0  -5    2.00    0.90
  -7   0   5    3.00    1.30
  -7   0   5    0.30    0.80
   6   0  -5   43.00    2.20
   6   0  -5   39.00    2.10
  -6   0   5   39.70    2.50
  -6   0   5   39.50    2.10
   5   0  -5  113.59    3.00
  -5   0   5  118.69    3.40
  -5   0   5  115.69    3.70
   4   0  -5    0.70    0.60
   4   0  -5    0.00    0.40
  -4   0   5    0.00    0.70
  -4   0   5    0.00    0.50
   3   0  -5  408.96    6.40
   3   0  -5  406.06    5.70
  -3   0   5  444.76    7.60
  -3   0   5  402.66    8.00
   2   0  -5  492.05    7.20
  -2   0   5  502.05    8.60
  -2   0   5  498.05    9.10
  -2   0   5  493.65    7.00
  -1   0   5 1032.20   13.90
  -1   0   5 1007.00   13.80
  -1   0   5 1018.40   17.30
  -1   0   5  978.10   16.00
   0   0  -5   72.59    1.60
   0   0  -5   71.69    2.00
   0   0   5   69.39    1.60
   0   0   5   70.89    1.50
   0   0   5   71.69    1.70
  -1   0  -5   21.20    0.60
  -1   0  -5   18.00    1.40
   1   0   5   18.90    0.90
   1   0   5   18.20    0.90
  -2   0  -5  299.97    6.70
   2   0   5  291.47    4.90
   2   0   5  291.47    5.00
  -3   0  -5   30.00    2.90
   3   0   5   29.80    1.50
   3   0   5   31.20    1.50
  -4   0  -5   10.70    2.20
  -4   0  -5   10.20    1.20
   4   0   5    7.20    1.00
   4   0   5    8.90    1.10
  -5   0  -5    0.50    0.70
  -5   0  -5    1.60    1.90
   5   0   5    0.00    0.70
   5   0   5    1.10    0.90
  -6   0  -5    1.40    2.00
   6   0   5    0.10    1.00
   7  -1  -5    0.50    0.90
   7  -1  -5    0.00    1.10
  -7   1   5    2.70    1.30
  -7   1   5    0.00    0.90
   6  -1  -5    7.10    1.20
   6  -1  -5    7.30    1.20
  -6   1   5    6.90    1.10
  -6   1   5    6.80    1.30
   5  -1  -5   17.70    1.40
   5  -1  -5   18.80    1.50
  -5   1   5   16.60    1.70
  -5   1   5   16.60    1.50
   4  -1  -5    9.60    1.00
   4  -1  -5    9.80    0.60
   4  -1  -5    9.10    1.10
  -4   1   5    9.40    1.10
  -4   1   5   10.30    1.30
   3  -1  -5   38.70    1.50
   3  -1  -5   40.10    1.30
  -3   1   5   38.60    0.80
  -3   1   5   38.30    1.60
  -3   1   5   39.40    1.60
   2  -1  -5    1.80    0.40
   2  -1  -5    2.30    0.50
  -2   1   5    1.20    0.40
  -2   1   5    1.60    0.50
  -2   1   5    1.60    0.30
   1  -1  -5   76.89    1.50
   1  -1  -5   76.19    1.90
  -1   1   5   76.49    1.60
  -1   1   5   78.19    2.10
  -1   1   5   75.69    1.50
  -1   1   5   73.69    1.90
   0  -1  -5  306.47    5.20
   0  -1  -5  297.17    6.00
   0   1   5  308.87    4.80
   0   1   5  301.47    4.50
  -1  -1  -5  133.89    3.50
  -1  -1  -5  130.99    2.40
   1   1   5  125.99    2.40
   1   1   5  127.49    2.60
  -2  -1  -5  344.97    7.50
   2   1   5  336.37    5.70
   2   1   5  337.67    5.40
  -3  -1  -5   46.10    3.30
   3   1   5   47.00    1.80
   3   1   5   47.00    1.70
  -4  -1  -5    2.20    1.90
   4   1   5    1.20    0.70
   4   1   5    1.80    0.80
  -5  -1  -5    1.40    2.00
   5   1   5    0.40    0.80
   5   1   5    0.80    0.90
  -6  -1  -5    0.00    2.10
   6   1   5    0.40    1.00
   7  -2  -5    1.60    1.20
   7  -2  -5    2.50    1.00
  -7   2   5    5.60    1.50
   6  -2  -5   13.40    1.70
   6  -2  -5   14.90    1.60
  -6   2   5   14.10    1.60
  -6   2   5   16.30    2.00
   5  -2  -5   68.09    2.60
   5  -2  -5   67.09    2.30
  -5   2   5   67.79    2.50
  -5   2   5   65.39    2.80
   4  -2  -5   91.69    2.30
   4  -2  -5   91.69    2.80
  -4   2   5   90.19    3.00
  -4   2   5   93.59    2.80
   3  -2  -5    3.30    0.60
   3  -2  -5    3.30    0.50
  -3   2   5    2.60    0.70
  -3   2   5    2.80    0.60
  -3   2   5    2.80    0.40
   2  -2  -5   18.90    0.80
  -2   2   5   18.80    1.10
  -2   2   5   17.80    1.00
  -2   2   5   19.30    0.70
   1  -2  -5   36.50    1.30
   1  -2  -5   36.40    0.90
  -1   2   5   36.20    1.50
  -1   2   5   34.90    1.10
   0  -2  -5   42.00    1.70
   0  -2  -5   43.80    1.30
   0   2   5   42.50    1.00
   0   2   5   44.40    1.30
  -1  -2  -5  231.68    4.10
  -1  -2  -5  226.58    5.20
   1   2   5  225.88    3.60
   1   2   5  223.98    4.00
  -2  -2  -5   14.30    2.00
  -2  -2  -5   14.10    0.70
   2   2   5   12.70    0.90
   2   2   5   13.50    1.00
  -3  -2  -5   18.90    2.80
   3   2   5   15.70    1.20
   3   2   5   14.00    1.20
  -4  -2  -5   10.90    2.30
   4   2   5    9.60    1.10
   4   2   5    9.40    1.10
  -5  -2  -5   40.10    3.70
   5   2   5   38.80    2.00
   5   2   5   41.00    2.10
  -6  -2  -5    0.00    2.20
   6   2   5    0.00    1.00
   7  -3  -5    0.70    1.10
   7  -3  -5    0.30    0.90
  -7   3   5    4.00    1.40
   6  -3  -5    1.30    0.90
   6  -3  -5    1.80    1.00
  -6   3   5    3.30    1.20
   5  -3  -5   47.80    1.90
   5  -3  -5   48.50    2.20
  -5   3   5   46.90    2.40
   4  -3  -5  112.49    2.60
   4  -3  -5  117.19    3.30
  -4   3   5  117.19    3.20
  -4   3   5  114.39    3.50
   3  -3  -5   22.70    1.00
   3  -3  -5   23.40    1.40
  -3   3   5   22.60    0.80
  -3   3   5   22.00    1.40
   2  -3  -5  333.27    6.30
   2  -3  -5  339.87    4.90
  -2   3   5  328.97    5.10
  -2   3   5  329.57    6.80
   1  -3  -5  446.16    7.80
   1  -3  -5  448.66    6.10
  -1   3   5  440.66    8.60
  -1   3   5  451.55    6.80
   0  -3  -5   39.00    1.80
   0  -3  -5   41.80    1.40
   0   3   5   39.80    1.30
   0   3   5   38.60    0.90
  -1  -3  -5   41.80    1.50
  -1  -3  -5   40.90    2.10
   1   3   5   39.30    1.40
   1   3   5   39.50    1.10
   1   3   5   40.10    1.30
  -2  -3  -5   47.20    2.70
  -2  -3  -5   45.10    1.50
   2   3   5   48.50    1.50
   2   3   5   45.10    1.60
   2   3   5   46.60    1.60
  -3  -3  -5   21.60    2.80
   3   3   5   16.30    1.20
   3   3   5   15.40    1.20
   3   3   5   16.00    1.20
  -4  -3  -5   33.70    3.50
   4   3   5   36.10    1.80
   4   3   5   34.60    1.80
  -5  -3  -5   36.20    3.80
   5   3   5   35.80    1.90
   5   3   5   35.60    2.00
   7  -4  -5    0.00    1.00
   7  -4  -5    0.00    1.00
  -7   4   5    2.10    1.30
   6  -4  -5    8.90    1.40
   6  -4  -5    9.00    1.30
  -6   4   5    9.90    1.70
   5  -4  -5   38.50    1.80
   5  -4  -5   38.20    2.10
  -5   4   5   39.60    2.30
   4  -4  -5    1.80    0.80
   4  -4  -5    1.40    0.70
  -4   4   5    0.90    0.80
   3  -4  -5   61.09    1.60
   3  -4  -5   58.59    2.20
  -3   4   5   57.29    2.20
  -3   4   5   57.49    1.50
   2  -4  -5  194.08    4.20
   2  -4  -5  192.08    3.00
  -2   4   5  182.68    4.50
  -2   4   5  188.18    3.40
   1  -4  -5    2.20    0.20
   1  -4  -5    1.70    0.50
  -1   4   5    1.70    0.60
  -1   4   5    1.20    0.40
   0  -4  -5  474.15    9.50
   0  -4  -5  501.35    8.60
   0   4   5  492.45    7.60
   0   4   5  477.95    6.50
   0   4   5  496.55    7.10
  -1  -4  -5    2.30    1.00
  -1  -4  -5    2.60    0.80
   1   4   5    1.40    0.60
   1   4   5    1.70    0.60
   1   4   5    2.20    0.40
  -2  -4  -5   62.99    3.20
  -2  -4  -5   60.99    2.00
   2   4   5   58.99    1.60
   2   4   5   58.89    2.00
   2   4   5   61.99    2.00
  -3  -4  -5    9.70    1.90
   3   4   5    8.30    1.10
   3   4   5   10.00    1.20
   3   4   5    8.90    1.00
  -4  -4  -5   82.89    4.50
   4   4   5   79.69    2.60
   4   4   5   80.79    2.60
   4   4   5   81.39    2.50
  -5  -4  -5    1.50    2.30
   5   4   5    4.00    1.00
   5   4   5    3.60    1.00
   7  -5  -5    0.00    1.10
   7  -5  -5    0.00    1.10
  -7   5   5    1.60    1.30
   6  -5  -5    0.00    0.90
   6  -5  -5    0.30    0.90
  -6   5   5    1.50    1.10
   5  -5  -5    9.40    1.30
   5  -5  -5    9.10    1.10
  -5   5   5   10.20    1.60
   4  -5  -5   12.80    1.50
   4  -5  -5   13.20    1.20
  -4   5   5   12.40    1.50
   3  -5  -5   81.49    1.90
   3  -5  -5   80.09    2.60
  -3   5   5   82.49    2.90
  -3   5   5   83.89    2.00
   2  -5  -5  202.98    3.10
   2  -5  -5  212.08    4.70
  -2   5   5  208.58    3.80
  -2   5   5  206.18    5.00
   1  -5  -5  196.78    4.40
  -1   5   5  196.98    4.70
  -1   5   5  188.78    3.60
  -1   5   5  195.78    3.20
   0  -5  -5  101.09    3.20
   0  -5  -5  103.59    3.00
   0   5   5  102.79    2.30
   0   5   5  100.59    2.40
  -1  -5  -5  124.59    3.90
  -1  -5  -5  120.79    3.30
   1   5   5  121.99    2.70
   1   5   5  119.99    2.90
  -2  -5  -5    0.60    0.80
  -2  -5  -5    0.30    1.40
   2   5   5    0.00    0.60
   2   5   5    0.00    0.60
  -3  -5  -5   33.20    3.00
   3   5   5   32.40    1.70
   3   5   5   32.10    1.70
  -4  -5  -5   67.59    4.20
   4   5   5   71.59    2.50
   4   5   5   70.09    2.50
  -5  -5  -5    0.00    2.30
   5   5   5    0.00    0.80
   7  -6  -5    4.50    1.30
   7  -6  -5    4.30    1.60
  -7   6   5    7.10    1.70
   6  -6  -5    5.60    1.40
   6  -6  -5    4.80    1.10
  -6   6   5    7.80    1.60
   5  -6  -5    5.10    1.20
   5  -6  -5    7.10    1.00
  -5   6   5    7.90    1.50
   4  -6  -5    0.30    0.60
   4  -6  -5    0.00    0.80
  -4   6   5    0.70    0.90
   3  -6  -5  393.96    8.00
  -3   6   5  396.76    8.50
  -3   6   5  399.76    6.40
   2  -6  -5   24.60    1.70
  -2   6   5   22.80    1.30
  -2   6   5   23.00    1.70
   1  -6  -5   79.99    2.80
  -1   6   5   79.69    2.80
  -1   6   5   75.99    1.80
  -1   6   5   77.59    2.20
   0  -6  -5   52.79    2.40
   0  -6  -5   53.29    2.40
   0   6   5   52.19    1.60
   0   6   5   51.89    1.80
  -1  -6  -5   40.70    2.30
  -1  -6  -5   40.70    2.40
   1   6   5   41.10    1.70
   1   6   5   41.80    1.60
  -2  -6  -5    7.80    1.70
  -2  -6  -5    7.90    1.20
   2   6   5    8.60    1.00
   2   6   5    8.10    1.00
  -3  -6  -5    0.00    1.70
   3   6   5    0.70    0.70
   3   6   5    0.50    0.80
  -4  -6  -5    0.00    2.10
   4   6   5    0.10    0.70
   4   6   5    0.70    0.80
   5   6   5    1.10    0.90
   6  -7  -5    3.20    1.40
  -6   7   5    6.60    1.60
   5  -7  -5    0.00    1.00
  -5   7   5    0.80    1.00
   4  -7  -5    5.50    1.20
  -4   7   5    6.40    1.30
   3  -7  -5  195.58    5.00
  -3   7   5  193.18    5.20
  -3   7   5  186.28    3.80
   2  -7  -5   97.89    3.30
  -2   7   5   94.59    2.50
  -2   7   5   97.99    3.30
   1  -7  -5   44.80    2.50
  -1   7   5   43.90    1.40
  -1   7   5   45.40    2.30
  -1   7   5   45.20    1.80
   0  -7  -5    0.70    1.10
   0  -7  -5    0.00    1.00
   0   7   5    1.50    0.60
   0   7   5    0.50    0.60
  -1  -7  -5    0.40    1.20
  -1  -7  -5    0.80    1.10
   1   7   5    1.40    0.70
   1   7   5    1.30    0.70
  -2  -7  -5    0.00    1.40
  -2  -7  -5    0.70    1.00
   2   7   5    0.00    0.70
   2   7   5    0.40    0.70
  -3  -7  -5    8.00    2.10
   3   7   5    8.80    1.10
   3   7   5   10.00    1.30
  -4  -7  -5    0.00    2.30
   4   7   5    2.10    0.90
   4   7   5    3.00    1.00
  -6   8   5    0.50    1.20
   5  -8  -5   28.10    2.60
  -5   8   5   30.10    2.40
   4  -8  -5    6.40    1.40
  -4   8   5    6.50    1.40
   3  -8  -5    1.60    1.10
  -3   8   5    3.00    0.70
  -3   8   5    3.10    1.10
   2  -8  -5   49.60    2.70
  -2   8   5   51.99    1.90
  -2   8   5   51.89    2.50
   1  -8  -5    0.00    1.10
  -1   8   5    0.00    0.90
  -1   8   5    0.10    0.60
  -1   8   5    0.10    0.50
   0  -8  -5  424.56    8.70
   0  -8  -5  420.96    9.20
   0   8   5  412.66    6.70
   0   8   5  416.06    7.30
  -1  -8  -5   21.40    2.30
  -1  -8  -5   17.90    2.30
   1   8   5   21.70    1.40
   1   8   5   20.90    1.50
  -2  -8  -5   27.30    2.80
   2   8   5   27.20    1.80
   2   8   5   27.50    1.70
  -3  -8  -5   22.70    3.20
   3   8   5   31.50    1.90
   3   8   5   30.30    1.90
   4   8   5    2.20    1.00
   4   8   5    2.80    1.00
  -6   9   5    0.70    1.20
   5  -9  -5    0.00    1.30
  -5   9   5    0.60    1.00
   4  -9  -5    3.30    1.40
  -4   9   5    7.60    1.50
   3  -9  -5    1.20    1.20
  -3   9   5    2.30    1.10
  -3   9   5    2.70    0.80
   2  -9  -5    1.60    1.30
  -2   9   5    2.90    1.10
  -2   9   5    3.20    0.80
   1  -9  -5    0.20    1.20
   1  -9  -5    2.00    1.00
  -1   9   5    0.40    0.70
  -1   9   5    0.00    1.00
  -1   9   5    0.00    0.50
   0  -9  -5    6.80    1.50
   0  -9  -5    6.80    1.60
   0   9   5    8.70    1.00
   0   9   5    9.60    1.20
  -1  -9  -5   23.70    2.60
  -1  -9  -5   28.10    2.60
   1   9   5   31.20    1.80
   1   9   5   28.90    1.60
  -2  -9  -5   15.50    2.40
   2   9   5   16.90    1.50
   2   9   5   17.10    1.60
  -3  -9  -5    0.00    2.20
   3   9   5    4.30    1.10
   3   9   5    3.60    1.00
   5 -10  -5    2.40    1.80
  -5  10   5    6.50    1.60
   4 -10  -5   19.50    2.40
  -4  10   5   21.50    2.20
   3 -10  -5    3.10    1.60
  -3  10   5    5.40    1.00
  -3  10   5    3.80    1.30
   2 -10  -5    0.00    1.30
  -2  10   5    1.10    0.80
  -2  10   5    0.00    1.00
   1 -10  -5   42.50    2.60
   1 -10  -5   33.10    3.00
  -1  10   5   38.90    2.10
   0 -10  -5    0.30    1.20
   0 -10  -5    0.00    1.40
   0  10   5    0.00    0.60
   0  10   5    0.70    0.70
  -1 -10  -5    1.80    1.60
  -1 -10  -5    0.00    1.50
   1  10   5    3.30    0.90
   1  10   5    2.90    0.90
  -2 -10  -5    0.00    1.80
   2  10   5    2.00    0.90
   2  10   5    0.80    0.80
   3  10   5    0.00    0.90
   3  10   5    1.00    0.90
   4 -11  -5    0.00    1.80
  -4  11   5    4.30    1.50
   3 -11  -5    5.30    1.90
  -3  11   5    9.20    1.20
  -3  11   5    8.90    1.70
   2 -11  -5    0.00    1.40
  -2  11   5    0.00    1.00
  -2  11   5    1.70    0.90
   1 -11  -5   14.60    2.30
  -1  11   5   13.30    1.60
   0 -11  -5    7.50    1.80
   0 -11  -5    1.80    1.90
   0  11   5    7.20    1.00
   0  11   5    7.70    1.20
  -1 -11  -5    0.00    1.60
   1  11   5    1.30    0.90
   1  11   5    1.00    0.80
  -2 -11  -5    0.00    2.10
   2  11   5    3.80    1.10
   2  11   5    5.50    1.20
   3 -12  -5    4.80    2.30
  -3  12   5   11.50    1.90
  -3  12   5   17.00    1.80
   2 -12  -5    8.90    2.40
  -2  12   5   15.50    2.20
  -2  12   5   19.20    1.90
   1 -12  -5   22.70    2.60
  -1  12   5   24.00    2.00
   0 -12  -5   16.60    2.70
   0 -12  -5   22.30    2.80
  -1 -12  -5    0.00    1.80
   1  12   5    0.90    0.90
   1  13  -6    2.10    1.10
  -1 -13   6    2.80    1.50
   0  13  -6    0.60    1.10
   0 -13   6    2.30    1.60
  -1  13  -6    3.30    1.30
   1 -13   6    2.90    1.70
   3  12  -6    1.40    0.90
   3  12  -6    0.00    1.20
  -3 -12   6    1.60    1.30
   2  12  -6    9.80    1.20
   2  12  -6    9.10    1.30
  -2 -12   6   10.80    1.80
   1  12  -6    0.40    0.70
   1  12  -6    0.10    0.90
  -1 -12   6    0.90    1.20
   0  12  -6   48.10    2.60
   0 -12   6   50.49    3.30
   0 -12   6   47.30    2.20
  -1  12  -6    5.60    1.30
   1 -12   6    6.40    1.10
   1 -12   6    6.00    1.60
  -2  12  -6    8.00    1.60
   2 -12   6   10.10    1.30
   2 -12   6    6.70    1.90
  -3  12  -6    2.10    1.40
   3 -12   6    3.90    1.10
   4  11  -6    7.10    1.60
   4  11  -6    7.70    1.30
  -4 -11   6    9.00    1.70
   3  11  -6    1.30    0.80
   3  11  -6    0.00    0.80
  -3 -11   6    1.90    1.20
   2  11  -6   16.80    1.50
   2  11  -6   20.80    1.70
  -2 -11   6   22.10    2.40
   1  11  -6    8.00    1.20
   1  11  -6   10.30    1.30
  -1 -11   6    9.60    1.10
  -1 -11   6   14.60    2.20
   0  11  -6   40.60    2.30
   0 -11   6   40.80    2.00
   0 -11   6   40.80    2.90
  -1  11  -6   36.00    2.40
   1 -11   6   39.00    2.00
   1 -11   6   37.10    2.90
  -2  11  -6    0.10    1.20
   2 -11   6    0.00    1.30
   2 -11   6    1.00    0.80
  -3  11  -6    2.00    1.40
   3 -11   6    3.50    1.00
   4  10  -6   17.70    2.00
   4  10  -6   15.90    1.70
  -4 -10   6   23.20    2.30
   3  10  -6   17.10    1.40
   3  10  -6   13.70    1.40
  -3 -10   6   19.90    2.20
   2  10  -6    8.60    1.20
   2  10  -6    7.20    1.00
  -2 -10   6    8.00    1.50
   1  10  -6   11.80    1.20
   1  10  -6    9.10    1.20
  -1 -10   6   10.30    1.60
  -1 -10   6   10.20    1.20
   0  10  -6    3.00    1.00
   0 -10   6    3.20    1.30
   0 -10   6    2.80    0.80
  -1  10  -6    0.70    1.00
   1 -10   6    1.70    1.20
   1 -10   6    0.60    0.70
  -2  10  -6    9.10    1.50
   2 -10   6    8.60    1.50
   2 -10   6    7.70    1.10
  -3  10  -6    9.20    1.60
   3 -10   6   11.20    1.40
  -4  10  -6    4.80    1.50
   4 -10   6   10.00    1.40
   5   9  -6    6.00    1.30
   5   9  -6    6.80    1.50
  -5  -9   6    7.40    1.50
   4   9  -6    0.00    1.00
   4   9  -6    0.00    0.80
  -4  -9   6    2.10    1.10
   3   9  -6    2.80    0.70
   3   9  -6    1.80    0.80
  -3  -9   6    1.20    1.00
   2   9  -6   36.00    1.70
   2   9  -6   34.20    1.80
  -2  -9   6   36.00    2.40
   1   9  -6   48.60    2.20
   1   9  -6   50.79    1.90
  -1  -9   6   50.59    2.70
  -1  -9   6   52.19    1.90
   0   9  -6   10.80    1.30
   0  -9   6    8.90    1.40
   0  -9   6    9.00    1.10
  -1   9  -6  120.39    3.50
   1  -9   6  114.79    3.90
   1  -9   6  118.49    3.10
  -2   9  -6    4.20    1.30
   2  -9   6    4.80    1.30
   2  -9   6    5.20    1.00
  -3   9  -6    4.70    1.30
   3  -9   6    7.10    1.10
  -4   9  -6    9.10    1.60
   4  -9   6   10.60    1.40
   5   8  -6    0.00    0.90
   5   8  -6    0.00    1.00
  -5  -8   6    1.50    1.00
   4   8  -6    3.40    0.90
   4   8  -6    1.50    1.10
  -4  -8   6    3.80    1.10
   3   8  -6    1.50    0.70
   3   8  -6    1.60    0.70
  -3  -8   6    1.50    1.00
   2   8  -6  218.28    4.40
   2   8  -6  221.58    4.50
  -2  -8   6  221.88    5.50
   1   8  -6   30.00    1.70
  -1  -8   6   28.40    2.10
  -1  -8   6   29.70    1.50
   0   8  -6    6.70    1.20
   0  -8   6    7.60    0.90
   0  -8   6    6.40    1.20
  -1   8  -6   39.70    2.10
   1  -8   6   40.10    2.30
   1  -8   6   38.70    1.70
  -2   8  -6    3.00    1.00
   2  -8   6    2.70    0.80
   2  -8   6    4.10    1.10
  -3   8  -6   26.70    2.10
   3  -8   6   29.60    1.90
  -4   8  -6   11.10    1.60
   4  -8   6   16.00    1.80
  -5   8  -6    1.20    1.30
   5  -8   6    1.70    1.10
   6   7  -6    3.80    1.20
   6   7  -6    0.90    1.10
  -6  -7   6    4.40    1.20
   5   7  -6    3.30    1.10
   5   7  -6    3.10    1.00
  -5  -7   6    3.90    1.10
   4   7  -6    1.90    0.80
  -4  -7   6    3.50    1.00
   3   7  -6   21.20    1.30
   3   7  -6   20.80    1.40
  -3  -7   6   22.40    1.90
   2   7  -6  632.74    9.70
   2   7  -6  633.44    9.70
  -2  -7   6  622.44   11.60
   1   7  -6    0.00    0.80
  -1  -7   6    0.00    0.50
  -1  -7   6    0.30    0.80
   0   7  -6   56.99    2.20
   0  -7   6   55.59    2.50
   0  -7   6   56.59    1.90
  -1   7  -6   17.30    1.70
   1  -7   6   19.10    1.80
   1  -7   6   17.30    1.30
  -2   7  -6   30.30    2.00
   2  -7   6   30.80    1.60
   2  -7   6   31.70    2.00
  -3   7  -6   32.70    2.10
   3  -7   6   34.10    1.90
  -4   7  -6   91.89    3.20
   4  -7   6   96.09    3.10
  -5   7  -6    3.80    1.30
   5  -7   6    6.00    1.30
   6   6  -6   14.10    1.60
   6   6  -6   12.20    1.60
  -6  -6   6   16.20    1.90
   5   6  -6    1.30    0.80
   5   6  -6    0.70    0.90
  -5  -6   6    2.30    0.90
   4   6  -6   15.00    1.40
  -4  -6   6   16.60    1.70
   3   6  -6  130.19    2.80
   3   6  -6  127.49    3.10
  -3  -6   6  128.19    3.80
   2   6  -6   39.00    1.60
   2   6  -6   41.30    1.60
  -2  -6   6   37.90    2.00
   1   6  -6    3.00    0.80
  -1  -6   6    2.90    0.80
  -1  -6   6    4.10    0.70
   0   6  -6   88.29    2.50
   0  -6   6   90.39    2.30
   0  -6   6   91.49    2.80
  -1   6  -6   18.80    1.60
   1  -6   6   18.30    1.60
   1  -6   6   18.20    1.20
  -2   6  -6  122.19    3.30
  -2   6  -6  125.09    3.30
   2  -6   6  118.69    3.00
   2  -6   6  121.79    3.20
  -3   6  -6    0.50    1.00
  -3   6  -6    2.70    1.10
   3  -6   6    2.00    0.80
  -4   6  -6   39.40    2.20
  -4   6  -6   43.00    2.60
   4  -6   6   40.70    2.20
  -5   6  -6   17.00    2.30
   5  -6   6   11.80    1.60
   6   5  -6    0.50    1.00
   6   5  -6    3.50    1.00
  -6  -5   6    2.90    1.00
   5   5  -6    0.50    0.80
   5   5  -6    0.60    0.80
  -5  -5   6    1.40    0.80
   4   5  -6    6.20    1.00
  -4  -5   6    6.20    1.00
  -4  -5   6    4.20    0.90
   3   5  -6   97.59    2.30
   3   5  -6  103.09    2.60
  -3  -5   6   96.19    3.10
  -3  -5   6   99.29    2.50
   2   5  -6   12.30    1.10
   2   5  -6   11.30    1.00
  -2  -5   6    9.20    1.30
   1   5  -6  636.64    9.60
  -1  -5   6  634.84    9.40
  -1  -5   6  637.24   11.10
   0   5  -6  308.37    5.40
   0  -5   6  311.77    6.00
   0  -5   6  304.07    5.20
  -1   5  -6   47.50    1.80
  -1   5  -6   50.89    1.90
   1  -5   6   48.80    1.80
   1  -5   6   47.20    1.70
  -2   5  -6   19.00    1.60
  -2   5  -6   19.00    1.80
   2  -5   6   20.00    1.30
   2  -5   6   17.60    1.20
  -3   5  -6  139.29    3.50
  -3   5  -6  138.49    4.20
   3  -5   6  141.09    3.50
  -4   5  -6    5.90    1.60
  -4   5  -6    3.10    1.10
   4  -5   6    4.50    1.10
  -5   5  -6    6.20    1.30
   5  -5   6    9.80    1.40
   7   4  -6    2.70    1.30
  -7  -4   6    4.20    1.10
   6   4  -6    0.00    0.80
  -6  -4   6    2.80    1.00
  -6  -4   6    1.10    0.80
   5   4  -6    9.90    1.20
   5   4  -6   11.20    1.20
  -5  -4   6    9.90    1.50
  -5  -4   6   11.10    1.40
   4   4  -6   48.00    1.90
  -4  -4   6   46.90    1.90
   3   4  -6  172.28    3.10
   3   4  -6  178.38    3.60
  -3  -4   6  173.08    4.20
  -3  -4   6  168.98    3.80
   2   4  -6   99.29    2.40
   2   4  -6  100.19    2.30
  -2  -4   6  101.79    2.80
  -2  -4   6   95.49    2.20
   1   4  -6   15.20    1.00
   1   4  -6   15.40    0.70
  -1  -4   6   16.10    1.20
  -1  -4   6   16.40    1.00
   0   4  -6    5.20    0.80
   0   4  -6    3.40    0.70
   0  -4   6    4.50    0.60
   0  -4   6    3.70    0.70
  -1   4  -6   55.79    2.20
  -1   4  -6   58.29    1.90
   1  -4   6   57.19    1.70
   1  -4   6   55.19    1.70
  -2   4  -6   37.10    2.30
  -2   4  -6   39.00    1.80
   2  -4   6   36.80    1.30
   2  -4   6   37.30    1.60
  -3   4  -6  135.59    3.40
  -3   4  -6  131.59    4.20
   3  -4   6  135.09    3.30
  -4   4  -6    1.50    0.90
  -4   4  -6    2.90    1.50
   4  -4   6    2.20    0.90
  -5   4  -6    2.20    1.50
  -5   4  -6    0.00    0.90
   5  -4   6    0.60    1.00
   6  -4   6    1.60    1.20
   7   3  -6    0.00    1.10
  -7  -3   6    1.20    0.90
  -7  -3   6    2.60    1.10
   6   3  -6    0.00    0.90
  -6  -3   6    0.90    0.80
  -6  -3   6    2.40    1.00
   5   3  -6   64.59    2.40
   5   3  -6   64.89    2.00
  -5  -3   6   65.49    2.60
  -5  -3   6   68.29    2.70
   4   3  -6  722.63   10.90
  -4  -3   6  706.03   13.20
  -4  -3   6  714.73   12.70
   3   3  -6    4.40    0.70
   3   3  -6    4.20    0.50
  -3  -3   6    3.60    0.70
  -3  -3   6    3.90    0.70
   2   3  -6  131.69    2.50
   2   3  -6  126.29    2.70
  -2  -3   6  127.29    3.20
  -2  -3   6  127.89    2.80
   1   3  -6  107.59    2.30
  -1  -3   6  105.09    2.30
  -1  -3   6  105.59    2.30
  -1  -3   6  107.29    2.60
   0   3  -6    4.90    0.70
   0   3  -6    5.20    0.70
   0  -3   6    4.20    0.60
   0  -3   6    5.00    0.70
  -1   3  -6    0.60    1.00
  -1   3  -6    0.10    0.50
   1  -3   6    0.90    0.40
   1  -3   6    0.10    0.50
  -2   3  -6   64.09    2.00
  -2   3  -6   58.89    2.70
   2  -3   6   58.99    1.90
  -3   3  -6    0.60    0.80
  -3   3  -6    0.80    1.60
   3  -3   6    1.30    0.80
  -4   3  -6    9.30    2.00
  -4   3  -6    6.60    1.10
   4  -3   6    8.40    1.20
  -5   3  -6    2.00    1.70
  -5   3  -6    0.00    0.80
   5  -3   6    1.00    1.00
  -6   3  -6   14.90    2.50
   6  -3   6   12.20    1.70
   7   2  -6    0.00    1.00
  -7  -2   6    2.80    1.20
  -7  -2   6    1.10    0.90
   6   2  -6   17.60    1.70
  -6  -2   6   21.30    1.90
  -6  -2   6   20.60    1.70
   5   2  -6    9.50    1.00
   5   2  -6    7.60    1.00
  -5  -2   6   10.20    1.40
  -5  -2   6    9.60    1.40
   4   2  -6  133.99    3.10
  -4  -2   6  132.89    3.60
  -4  -2   6  131.29    3.60
   3   2  -6   46.40    1.20
   3   2  -6   47.80    1.60
  -3  -2   6   47.40    1.90
  -3  -2   6   46.00    1.70
   2   2  -6    1.40    0.40
   2   2  -6    1.10    0.40
  -2  -2   6    1.20    0.40
  -2  -2   6    1.10    0.50
   1   2  -6 1260.77   17.30
  -1  -2   6 1235.58   17.10
  -1  -2   6 1258.87   20.40
  -1  -2   6 1268.47   22.20
   0   2  -6  155.28    3.00
   0   2  -6  161.08    3.50
   0  -2   6  152.68    3.10
   0  -2   6  159.08    2.90
   0  -2   6  157.98    3.00
  -1   2  -6  185.08    4.40
  -1   2  -6  179.48    3.40
   1  -2   6  179.88    3.20
   1  -2   6  182.88    3.40
   1  -2   6  180.98    3.50
  -2   2  -6    2.30    0.70
  -2   2  -6    4.60    1.50
   2  -2   6    3.60    0.70
   2  -2   6    2.90    0.70
  -3   2  -6   33.10    1.70
  -3   2  -6   36.50    2.90
   3  -2   6   37.00    1.70
   3  -2   6   35.20    1.70
  -4   2  -6   18.70    1.50
  -4   2  -6   19.70    2.70
   4  -2   6   17.80    1.50
   4  -2   6   21.00    1.60
  -5   2  -6    1.80    1.70
  -5   2  -6    0.00    0.80
   5  -2   6    0.00    0.90
  -6   2  -6    1.80    2.00
   6  -2   6    1.10    1.10
   7   1  -6    4.00    1.00
   7   1  -6    1.80    1.20
  -7  -1   6    4.60    1.30
  -7  -1   6    3.40    1.10
   6   1  -6    5.30    1.10
  -6  -1   6    9.90    1.60
  -6  -1   6    6.80    1.10
   5   1  -6    0.00    0.70
  -5  -1   6    0.40    0.60
  -5  -1   6    0.30    0.70
   4   1  -6   18.90    1.30
  -4  -1   6   16.00    1.40
  -4  -1   6   19.40    1.50
   3   1  -6  169.28    3.30
   3   1  -6  169.58    2.70
  -3  -1   6  171.18    3.90
  -3  -1   6  169.88    4.00
   2   1  -6  626.44    8.80
   2   1  -6  600.04    8.90
  -2  -1   6  614.24   11.10
  -2  -1   6  627.94   10.60
  -2  -1   6  625.74    8.80
   1   1  -6  690.13    9.80
  -1  -1   6  697.03    9.90
  -1  -1   6  687.83   12.10
  -1  -1   6  675.53    9.70
  -1  -1   6  691.63   11.30
   0   1  -6  233.88    4.80
   0   1  -6  228.08    4.00
   0  -1   6  226.18    4.20
   0  -1   6  229.28    3.80
   0  -1   6  239.08    4.00
  -1   1  -6    2.10    0.50
  -1   1  -6    3.00    1.00
  -1   1  -6    3.80    0.30
   1  -1   6    3.70    0.30
   1  -1   6    4.40    0.60
   1  -1   6    3.10    0.60
  -2   1  -6  197.38    3.90
  -2   1  -6  204.48    5.30
   2  -1   6  199.08    3.80
   2  -1   6  198.58    3.90
  -3   1  -6   46.60    3.20
  -3   1  -6   44.30    1.80
   3  -1   6   44.00    1.90
   3  -1   6   45.40    1.90
  -4   1  -6    4.80    0.90
  -4   1  -6    5.10    2.00
   4  -1   6    5.20    1.00
   4  -1   6    4.50    1.00
  -5   1  -6    7.50    1.10
  -5   1  -6    9.50    2.30
   5  -1   6    5.60    1.10
   5  -1   6    8.30    1.30
  -6   1  -6    5.20    2.30
   6  -1   6    4.50    1.30
   7   0  -6    1.80    0.90
   7   0  -6    2.20    1.20
  -7   0   6    1.90    1.00
  -7   0   6    3.20    1.30
   6   0  -6    3.80    1.00
   6   0  -6    3.00    1.00
  -6   0   6    6.00    1.30
  -6   0   6    4.20    1.00
   5   0  -6   26.90    1.60
  -5   0   6   28.80    1.70
  -5   0   6   27.10    1.90
   4   0  -6    5.60    0.80
  -4   0   6    5.90    0.90
  -4   0   6    7.00    1.10
   3   0  -6    9.90    0.90
   3   0  -6    9.40    0.50
  -3   0   6    8.80    0.90
  -3   0   6    9.40    1.00
   2   0  -6  953.80   12.90
  -2   0   6  926.21   16.40
  -2   0   6  917.01   15.30
  -2   0   6  939.81   12.90
  -1   0   6   81.59    2.10
  -1   0   6   80.69    1.70
  -1   0   6   84.19    1.80
  -1   0   6   84.29    2.30
   0   0  -6  268.87    5.60
   0   0  -6  274.67    4.80
   0   0   6  273.17    4.30
   0   0   6  272.37    4.80
   0   0   6  272.37    4.50
  -1   0  -6  112.89    3.30
  -1   0  -6  108.49    2.00
   1   0   6  109.89    2.50
   1   0   6  108.69    2.30
  -2   0  -6   48.20    2.70
   2   0   6   48.00    1.70
   2   0   6   47.00    1.60
  -3   0  -6    5.00    2.00
   3   0   6    3.10    0.80
   3   0   6    2.30    0.80
  -4   0  -6    1.60    0.70
  -4   0  -6    1.30    1.90
   4   0   6    0.90    0.80
   4   0   6    1.90    0.90
  -5   0  -6    5.30    2.20
  -5   0  -6    3.60    0.90
   5   0   6    4.00    1.10
   5   0   6    2.20    1.00
   6   0   6    0.70    1.00
   7  -1  -6    8.40    1.40
   7  -1  -6    6.90    1.40
  -7   1   6    8.40    1.40
   6  -1  -6   17.40    1.60
   6  -1  -6   16.80    1.70
  -6   1   6   19.20    1.70
  -6   1   6   22.10    2.10
   5  -1  -6   50.19    2.00
   5  -1  -6   50.89    2.30
  -5   1   6   49.60    2.50
  -5   1   6   51.19    2.30
   4  -1  -6   35.80    1.80
   4  -1  -6   34.40    1.50
  -4   1   6   33.90    1.70
  -4   1   6   34.20    1.90
   3  -1  -6   34.40    1.60
   3  -1  -6   32.00    1.20
  -3   1   6   31.50    0.90
  -3   1   6   32.80    1.50
  -3   1   6   31.50    1.60
   2  -1  -6  280.87    4.40
   2  -1  -6  276.27    5.40
  -2   1   6  276.97    4.30
  -2   1   6  278.07    5.40
  -2   1   6  278.77    5.80
   1  -1  -6  147.09    3.10
  -1   1   6  142.39    2.70
  -1   1   6  146.29    3.10
  -1   1   6  146.09    2.50
  -1   1   6  147.69    3.50
   0  -1  -6   80.89    1.90
   0  -1  -6   77.69    2.40
   0   1   6   76.09    1.60
   0   1   6   80.09    1.90
  -1  -1  -6    0.50    0.30
  -1  -1  -6    0.90    1.00
   1   1   6    0.40    0.40
   1   1   6    0.50    0.50
  -2  -1  -6   63.69    3.10
   2   1   6   63.09    1.80
   2   1   6   62.89    1.90
  -3  -1  -6   27.70    3.00
   3   1   6   27.60    1.50
   3   1   6   26.60    1.50
  -4  -1  -6   53.39    3.70
   4   1   6   51.69    2.20
   4   1   6   51.79    2.10
  -5  -1  -6   33.20    3.70
  -5  -1  -6   37.90    1.90
   5   1   6   36.10    2.10
   5   1   6   31.10    2.00
   7  -2  -6    2.10    1.10
   7  -2  -6    2.60    1.20
  -7   2   6    2.10    1.10
  -7   2   6    4.60    1.50
   6  -2  -6   21.00    1.80
   6  -2  -6   22.50    1.90
  -6   2   6   25.10    2.20
  -6   2   6   21.20    1.90
   5  -2  -6    8.30    1.10
   5  -2  -6    7.30    1.10
  -5   2   6    8.70    1.30
  -5   2   6    7.40    1.10
   4  -2  -6   35.00    1.80
   4  -2  -6   34.90    1.50
  -4   2   6   35.90    1.80
  -4   2   6   33.20    1.80
   3  -2  -6   99.39    2.80
   3  -2  -6  105.09    2.30
  -3   2   6  102.59    1.90
  -3   2   6  102.39    2.80
  -3   2   6  103.19    3.00
   2  -2  -6   79.89    2.30
   2  -2  -6   81.19    1.70
  -2   2   6   82.09    2.50
  -2   2   6   79.09    1.80
  -2   2   6   82.99    2.30
   1  -2  -6  773.32   12.80
   1  -2  -6  791.02   10.60
  -1   2   6  777.22   11.10
  -1   2   6  777.32   14.00
  -1   2   6  762.42   10.50
   0  -2  -6   26.30    1.50
   0  -2  -6   28.80    1.10
   0   2   6   27.60    1.20
   0   2   6   28.20    0.90
  -1  -2  -6   15.60    1.70
  -1  -2  -6   15.30    1.00
   1   2   6   15.60    1.00
   1   2   6   14.30    0.80
  -2  -2  -6   49.90    2.80
   2   2   6   49.90    1.60
   2   2   6   50.69    1.80
  -3  -2  -6    0.50    1.70
   3   2   6    0.50    0.60
   3   2   6    0.60    0.60
  -4  -2  -6   48.50    3.80
   4   2   6   49.10    2.00
   4   2   6   47.20    2.10
  -5  -2  -6    0.00    2.20
   5   2   6    0.00    0.90
   5   2   6    1.50    0.90
   7  -3  -6    1.00    1.00
   7  -3  -6    2.10    1.20
  -7   3   6    2.10    1.30
   6  -3  -6    0.20    0.90
   6  -3  -6    0.00    0.80
  -6   3   6    2.10    1.10
   5  -3  -6    4.90    1.00
   5  -3  -6    4.60    0.90
  -5   3   6    5.20    1.20
  -5   3   6    4.20    0.90
   4  -3  -6   75.29    2.60
   4  -3  -6   78.09    2.20
  -4   3   6   75.39    2.80
  -4   3   6   74.39    2.60
   3  -3  -6   77.39    2.50
   3  -3  -6   77.59    1.90
  -3   3   6   74.79    2.60
  -3   3   6   73.79    1.70
   2  -3  -6  558.54    9.80
   2  -3  -6  565.64    7.80
  -2   3   6  551.94   10.60
  -2   3   6  551.94    8.20
   1  -3  -6   34.00    1.40
   1  -3  -6   32.80    0.90
  -1   3   6   33.30    1.20
  -1   3   6   32.00    1.60
   0  -3  -6   91.99    2.30
   0  -3  -6   83.59    2.70
   0   3   6   87.49    1.60
   0   3   6   88.19    2.20
  -1  -3  -6    3.20    1.20
  -1  -3  -6    3.00    0.70
   1   3   6    3.20    0.50
   1   3   6    2.40    0.60
  -2  -3  -6   61.99    3.20
   2   3   6   56.09    1.70
   2   3   6   58.19    2.00
  -3  -3  -6   28.90    3.00
   3   3   6   30.60    1.50
   3   3   6   29.60    1.60
  -4  -3  -6    1.60    2.10
   4   3   6    2.40    0.90
   4   3   6    2.80    0.80
  -5  -3  -6    1.70    2.40
   5   3   6    4.80    1.10
   5   3   6    5.00    1.10
   7  -4  -6    0.00    1.10
   7  -4  -6    0.00    1.00
  -7   4   6    1.40    1.30
   6  -4  -6    1.80    1.00
   6  -4  -6    2.40    1.10
  -6   4   6    3.40    1.30
   5  -4  -6   15.90    1.40
   5  -4  -6   16.80    1.70
  -5   4   6   17.50    1.80
   4  -4  -6   34.50    1.50
   4  -4  -6   36.10    2.00
  -4   4   6   33.20    2.00
   3  -4  -6    9.30    0.80
   3  -4  -6    9.60    1.20
  -3   4   6    8.50    0.70
  -3   4   6    9.40    1.20
   2  -4  -6   53.69    1.20
   2  -4  -6   49.40    1.90
  -2   4   6   51.89    1.60
  -2   4   6   54.69    2.20
   1  -4  -6  209.48    3.00
   1  -4  -6  210.68    4.50
  -1   4   6  210.78    5.00
  -1   4   6  215.18    3.90
   0  -4  -6  221.48    4.50
   0  -4  -6  216.38    5.20
   0   4   6  209.28    3.10
   0   4   6  217.48    4.10
  -1  -4  -6   18.00    2.00
  -1  -4  -6   20.50    1.50
   1   4   6   19.30    0.80
   1   4   6   17.20    1.10
   1   4   6   19.50    1.20
  -2  -4  -6   10.00    1.90
   2   4   6    8.90    1.10
   2   4   6    8.40    1.10
   2   4   6    9.10    0.90
  -3  -4  -6    3.40    1.90
   3   4   6    4.10    0.90
   3   4   6    4.80    0.80
  -4  -4  -6    1.20    2.10
   4   4   6    2.30    0.90
  -5  -4  -6   17.20    3.30
   5   4   6   15.40    1.70
   7  -5  -6   10.40    1.60
   7  -5  -6    9.40    1.70
  -7   5   6   15.10    2.30
   6  -5  -6    0.00    0.90
   6  -5  -6    0.00    0.80
  -6   5   6    0.80    1.10
   5  -5  -6   31.10    2.10
   5  -5  -6   28.80    1.60
  -5   5   6   31.10    2.30
   4  -5  -6   31.00    1.90
   4  -5  -6   28.10    1.40
  -4   5   6   28.60    1.90
   3  -5  -6   25.50    1.10
   3  -5  -6   27.70    1.70
  -3   5   6   25.80    1.20
  -3   5   6   26.90    1.80
   2  -5  -6  152.08    3.80
  -2   5   6  147.79    3.10
  -2   5   6  149.29    4.10
   1  -5  -6    2.10    0.70
  -1   5   6    1.70    0.50
  -1   5   6    2.30    0.90
   0  -5  -6    0.00    0.90
   0  -5  -6    1.60    0.80
   0   5   6    0.00    0.50
   0   5   6    0.00    0.50
  -1  -5  -6    0.00    1.20
  -1  -5  -6    1.10    1.00
   1   5   6    0.60    0.50
   1   5   6    0.60    0.60
  -2  -5  -6   19.60    2.40
   2   5   6   21.30    1.40
   2   5   6   21.60    1.40
  -3  -5  -6   27.80    3.10
   3   5   6   26.10    1.70
   3   5   6   28.40    1.60
  -4  -5  -6    2.00    2.20
   4   5   6    4.60    1.00
   5   5   6    0.00    0.90
   6  -6  -6    0.00    1.00
  -6   6   6    1.50    1.10
   5  -6  -6   25.40    2.00
  -5   6   6   25.70    2.20
   4  -6  -6   11.90    1.60
  -4   6   6   11.90    1.60
   3  -6  -6    2.70    0.90
  -3   6   6    3.20    1.00
  -3   6   6    2.90    0.60
   2  -6  -6  325.47    6.80
  -2   6   6  324.27    7.30
  -2   6   6  310.17    5.50
   1  -6  -6   62.69    2.50
  -1   6   6   58.49    1.60
  -1   6   6   61.99    2.00
  -1   6   6   61.69    2.60
   0  -6  -6   58.49    2.50
   0  -6  -6   57.39    2.70
   0   6   6   56.69    1.80
   0   6   6   55.69    1.90
  -1  -6  -6    8.50    1.30
  -1  -6  -6    9.30    1.70
   1   6   6    9.00    1.00
   1   6   6    9.20    1.00
  -2  -6  -6   11.00    2.10
   2   6   6    9.30    1.10
   2   6   6    8.80    1.10
  -3  -6  -6    0.90    1.90
   3   6   6    2.00    0.80
   3   6   6    2.70    0.90
  -4  -6  -6    0.00    2.20
   4   6   6    1.20    0.90
   4   6   6    0.00    0.80
   6  -7  -6    4.50    1.50
  -6   7   6    7.60    1.70
   5  -7  -6    0.00    1.00
  -5   7   6    1.10    1.10
   4  -7  -6   67.49    3.10
  -4   7   6   67.09    3.00
   3  -7  -6   31.00    2.20
  -3   7   6   28.70    2.00
  -3   7   6   28.60    1.40
   2  -7  -6    2.90    1.00
  -2   7   6    4.50    1.20
  -2   7   6    3.50    0.70
   1  -7  -6  179.38    4.70
  -1   7   6  176.78    4.90
  -1   7   6  175.28    3.80
  -1   7   6  171.48    3.30
   0  -7  -6   60.59    2.90
   0  -7  -6   61.39    2.70
   0   7   6   57.39    2.10
   0   7   6   57.39    1.90
  -1  -7  -6   73.59    3.00
  -1  -7  -6   72.69    3.50
   1   7   6   74.09    2.30
   1   7   6   74.09    2.50
  -2  -7  -6    9.50    2.00
   2   7   6   10.20    1.20
   2   7   6   10.70    1.20
  -3  -7  -6    0.00    1.90
   3   7   6    2.30    0.90
   3   7   6    1.70    0.80
  -4  -7  -6    7.60    3.00
   4   7   6   14.40    1.60
   4   7   6   11.50    1.50
   6  -8  -6    0.00    1.30
  -6   8   6    2.30    1.30
   5  -8  -6    0.50    1.30
  -5   8   6    1.70    1.20
   4  -8  -6   22.80    2.30
  -4   8   6   23.30    2.20
   3  -8  -6    0.00    1.00
  -3   8   6    0.40    1.00
  -3   8   6    0.00    0.60
   2  -8  -6    4.30    1.30
  -2   8   6    4.60    0.90
  -2   8   6    4.50    1.20
   1  -8  -6    2.40    1.20
   1  -8  -6    3.20    1.20
  -1   8   6    2.80    0.60
  -1   8   6    2.40    1.20
  -1   8   6    2.80    0.80
   0  -8  -6   16.50    2.10
   0  -8  -6   16.50    2.20
   0   8   6   16.80    1.40
   0   8   6   17.20    1.20
  -1  -8  -6   20.90    2.30
  -1  -8  -6   22.70    2.50
   1   8   6   25.70    1.70
   1   8   6   25.30    1.50
  -2  -8  -6    2.00    1.80
   2   8   6    4.40    1.00
   2   8   6    4.30    1.00
  -3  -8  -6    5.20    2.40
   3   8   6    9.80    1.30
   3   8   6   10.40    1.30
   5  -9  -6    4.10    1.60
  -5   9   6    7.00    1.60
   4  -9  -6    2.90    1.40
  -4   9   6    5.50    1.40
   3  -9  -6    8.70    1.60
  -3   9   6   12.70    1.30
  -3   9   6   11.10    1.80
   2  -9  -6   10.60    1.70
  -2   9   6   11.90    1.30
  -2   9   6   11.90    1.80
   1  -9  -6   15.50    2.00
   1  -9  -6   12.00    1.80
  -1   9   6   12.80    1.30
   0  -9  -6    0.00    1.20
   0  -9  -6    0.00    1.40
   0   9   6    0.20    0.70
   0   9   6    0.50    0.60
  -1  -9  -6    0.00    1.40
  -1  -9  -6    3.70    1.70
   1   9   6    3.90    0.90
   1   9   6    4.30    1.00
  -2  -9  -6    6.20    2.20
   2   9   6    9.10    1.20
   2   9   6    7.80    1.20
  -3  -9  -6    0.20    2.40
   3   9   6    6.00    1.20
   3   9   6    7.60    1.30
   5 -10  -6    0.90    1.80
  -5  10   6    6.60    1.70
   4 -10  -6    2.90    1.60
  -4  10   6    6.20    1.50
   3 -10  -6   19.40    2.80
  -3  10   6   22.00    2.30
  -3  10   6   22.90    1.60
   2 -10  -6   17.30    2.60
  -2  10   6   24.60    1.70
  -2  10   6   22.50    2.30
   1 -10  -6    0.10    1.60
   1 -10  -6    5.40    1.50
  -1  10   6    5.00    1.00
   0 -10  -6   10.60    2.00
   0  10   6   10.00    1.30
   0  10   6   12.20    1.20
  -1 -10  -6    0.00    1.50
   1  10   6    0.80    0.80
   1  10   6    0.40    0.70
  -2 -10  -6    0.00    2.00
   2  10   6    0.60    0.90
   2  10   6    1.40    0.80
  -4  11   6    0.00    1.20
   3 -11  -6    2.50    1.90
  -3  11   6    8.60    1.20
  -3  11   6    8.50    1.70
   2 -11  -6    1.40    1.80
  -2  11   6    6.50    1.20
  -2  11   6    4.40    1.60
   1 -11  -6   52.59    3.30
  -1  11   6   53.39    2.50
   0 -11  -6    2.80    2.10
   0 -11  -6    7.70    2.00
   0  11   6   11.30    1.40
  -1 -11  -6    9.50    2.40
   1  11   6   10.70    1.30
   1  11   6   13.50    1.70
  -2  12   6    1.70    1.00
   1 -12  -6    1.70    1.50
  -1  12   6    0.90    0.90
   0 -12  -6   24.60    3.20
   0  12   6   33.30    2.30
   1  13  -7    3.90    1.20
  -1 -13   7    3.70    1.50
   0  13  -7    1.60    1.20
   0 -13   7    0.00    0.80
   0 -13   7    1.30    1.40
   2  12  -7    0.00    0.70
   2  12  -7    1.00    0.90
  -2 -12   7    2.60    1.40
   1  12  -7    3.60    1.10
   1  12  -7    3.50    0.90
  -1 -12   7    5.70    1.50
  -1 -12   7    2.30    0.90
   0  12  -7    7.80    1.50
   0 -12   7    7.70    1.60
   0 -12   7    7.70    1.20
  -1  12  -7    0.20    1.10
   1 -12   7    0.80    0.80
   1 -12   7    0.60    1.30
  -2  12  -7    3.50    1.40
   2 -12   7    4.60    1.10
   3  11  -7   56.79    2.50
  -3 -11   7   65.79    3.50
   2  11  -7   37.40    2.20
   2  11  -7   37.00    2.00
  -2 -11   7   40.80    2.90
   1  11  -7    3.90    0.90
   1  11  -7    3.20    1.00
  -1 -11   7    4.20    1.30
  -1 -11   7    3.50    0.90
   0  11  -7    0.50    1.00
   0 -11   7    1.80    1.20
   0 -11   7    1.60    0.80
  -1  11  -7    2.00    1.20
   1 -11   7    3.30    0.90
   1 -11   7    4.80    1.40
  -2  11  -7    0.00    1.20
   2 -11   7    1.10    0.80
  -3  11  -7    0.00    1.30
   3 -11   7    0.80    0.90
   4  10  -7    2.00    1.00
   4  10  -7    2.00    1.20
  -4 -10   7    3.80    1.30
   3  10  -7   14.70    1.40
   3  10  -7   11.60    1.30
  -3 -10   7   15.70    2.10
   2  10  -7   16.50    1.60
   2  10  -7   16.60    1.50
  -2 -10   7   17.00    2.10
   1  10  -7    6.00    1.20
   1  10  -7    7.50    1.00
  -1 -10   7    7.00    1.40
  -1 -10   7    7.90    1.10
   0  10  -7    7.40    1.30
   0 -10   7    6.20    1.30
   0 -10   7    6.00    1.00
  -1  10  -7   28.70    2.20
   1 -10   7   31.20    1.80
   1 -10   7   33.30    2.50
  -2  10  -7    0.30    1.20
   2 -10   7    0.00    0.80
  -3  10  -7    0.60    1.30
   3 -10   7    1.70    1.00
  -4  10  -7    1.00    1.40
   4 -10   7    0.50    0.90
   5   9  -7    0.20    1.20
   5   9  -7    0.00    1.00
  -5  -9   7    2.00    1.10
   4   9  -7   13.60    1.60
  -4  -9   7   17.50    2.10
   3   9  -7    3.10    0.80
   3   9  -7    2.20    0.80
  -3  -9   7    2.80    1.00
   2   9  -7    9.50    1.20
   2   9  -7    9.50    1.10
  -2  -9   7    9.40    1.50
   1   9  -7  300.67    5.90
  -1  -9   7  301.77    5.70
  -1  -9   7  297.67    6.90
   0   9  -7   19.80    1.90
   0  -9   7   19.90    1.50
   0  -9   7   20.50    1.90
  -1   9  -7    0.00    1.00
   1  -9   7    0.40    1.00
   1  -9   7    0.10    0.70
  -2   9  -7   51.99    2.50
   2  -9   7   52.99    2.30
  -3   9  -7    1.40    1.20
   3  -9   7    1.40    0.90
  -4   9  -7   19.70    2.50
   4  -9   7   23.50    2.00
   5   8  -7    6.70    1.30
   5   8  -7    8.40    1.40
  -5  -8   7    7.20    1.40
   4   8  -7    0.30    0.80
  -4  -8   7    1.70    1.00
   3   8  -7   87.09    2.50
   3   8  -7   86.89    2.70
  -3  -8   7   87.39    3.40
   2   8  -7    4.70    0.90
   2   8  -7    5.20    0.90
  -2  -8   7    3.90    1.10
   1   8  -7   74.79    2.60
  -1  -8   7   75.99    3.00
  -1  -8   7   78.59    2.40
   0   8  -7   19.70    1.60
   0  -8   7   23.10    1.80
   0  -8   7   20.30    1.40
  -1   8  -7   50.79    2.40
   1  -8   7   53.29    2.50
   1  -8   7   50.89    2.00
  -2   8  -7    2.80    1.20
   2  -8   7    3.10    0.90
  -3   8  -7   39.00    2.50
   3  -8   7   40.70    2.10
  -4   8  -7    0.00    1.20
   4  -8   7    1.70    1.00
   6   7  -7    4.60    1.20
   6   7  -7    4.10    1.30
  -6  -7   7    6.20    1.30
   5   7  -7   47.40    2.30
   5   7  -7   44.70    2.40
  -5  -7   7   51.89    2.80
   4   7  -7   43.40    2.10
  -4  -7   7   44.70    2.50
   3   7  -7    5.10    0.80
   3   7  -7    4.50    0.90
  -3  -7   7    5.10    1.10
   2   7  -7   40.40    1.70
   2   7  -7   38.00    1.80
  -2  -7   7   38.90    2.20
  -2  -7   7   39.30    1.70
   1   7  -7    2.70    1.00
  -1  -7   7    1.40    0.70
  -1  -7   7    1.60    0.90
   0   7  -7   32.60    2.00
   0  -7   7   31.90    1.90
   0  -7   7   33.10    1.60
  -1   7  -7   27.30    1.70
   1  -7   7   27.80    1.50
   1  -7   7   28.80    1.80
  -2   7  -7   21.20    1.90
   2  -7   7   23.20    1.60
  -3   7  -7    4.80    1.20
   3  -7   7    7.30    1.20
  -4   7  -7    4.40    1.30
   4  -7   7    9.00    1.40
  -5   7  -7    8.00    1.60
   5  -7   7   10.70    1.60
   6   6  -7   40.60    2.10
   6   6  -7   43.70    2.50
  -6  -6   7   42.00    2.60
   5   6  -7    0.00    0.80
   5   6  -7    0.00    0.80
  -5  -6   7    1.20    0.80
   4   6  -7    0.70    0.70
  -4  -6   7    1.10    0.80
   3   6  -7    2.90    0.80
   3   6  -7    3.60    0.70
  -3  -6   7    2.40    0.90
   2   6  -7  173.78    3.70
   2   6  -7  175.18    3.70
  -2  -6   7  174.98    3.70
  -2  -6   7  170.48    4.40
   1   6  -7    0.20    0.80
  -1  -6   7    1.00    0.60
  -1  -6   7    0.30    0.80
   0   6  -7   15.10    1.50
   0  -6   7   15.30    1.20
   0  -6   7   13.30    1.40
  -1   6  -7   87.39    2.80
   1  -6   7   85.69    2.70
   1  -6   7   86.99    2.50
  -2   6  -7   17.60    1.70
   2  -6   7   16.10    1.40
  -3   6  -7   68.39    2.70
   3  -6   7   64.49    2.50
  -4   6  -7   20.70    2.00
   4  -6   7   25.70    1.90
  -5   6  -7    0.00    1.10
   5  -6   7    0.60    1.00
   6   5  -7   28.50    2.20
  -6  -5   7   30.50    2.20
   5   5  -7    1.10    0.80
   5   5  -7    0.10    0.80
  -5  -5   7    0.80    0.80
   4   5  -7    9.00    1.10
  -4  -5   7    6.90    1.10
   3   5  -7  423.26    7.10
   3   5  -7  416.26    6.60
  -3  -5   7  414.66    8.30
   2   5  -7    6.10    0.80
   2   5  -7    7.30    0.90
  -2  -5   7    6.30    1.00
  -2  -5   7    7.70    0.90
   1   5  -7  102.19    2.60
  -1  -5   7  104.49    2.50
  -1  -5   7  100.49    2.90
   0   5  -7    2.80    0.90
   0  -5   7    3.30    0.70
   0  -5   7    1.80    0.70
  -1   5  -7   15.20    1.60
  -1   5  -7   14.50    1.40
   1  -5   7   12.70    1.20
   1  -5   7   14.40    1.20
  -2   5  -7  203.78    5.10
  -2   5  -7  212.48    4.50
   2  -5   7  206.48    4.30
  -3   5  -7  118.69    3.30
  -3   5  -7  122.39    4.00
   3  -5   7  117.89    3.20
  -4   5  -7   45.90    2.40
  -4   5  -7   48.70    2.90
   4  -5   7   49.90    2.40
  -5   5  -7    4.00    1.70
  -5   5  -7    0.00    1.00
   5  -5   7    1.10    1.10
   6   4  -7   17.50    1.80
  -6  -4   7   17.10    1.90
   5   4  -7    4.70    1.00
   5   4  -7    5.60    1.00
  -5  -4   7    7.90    1.10
  -5  -4   7    4.70    1.10
   4   4  -7    0.00    0.60
  -4  -4   7    0.30    0.50
  -4  -4   7    0.00    0.70
   3   4  -7 1404.06   19.20
   3   4  -7 1388.36   18.90
  -3  -4   7 1347.47   22.50
  -3  -4   7 1327.67   23.30
   2   4  -7    1.00    0.50
   2   4  -7    0.70    0.60
  -2  -4   7    0.50    0.40
  -2  -4   7    0.20    0.60
  -2  -4   7    0.50    0.50
   1   4  -7   43.70    1.40
   1   4  -7   46.40    1.60
  -1  -4   7   45.30    1.60
  -1  -4   7   44.40    1.80
   0   4  -7   23.70    1.30
   0   4  -7   24.70    1.40
   0  -4   7   24.00    1.30
   0  -4   7   23.20    1.20
  -1   4  -7   69.09    2.20
  -1   4  -7   71.49    2.60
   1  -4   7   69.09    2.10
   1  -4   7   68.89    1.90
  -2   4  -7  102.59    3.60
  -2   4  -7  100.09    2.80
   2  -4   7   99.09    2.70
  -3   4  -7    1.90    1.50
  -3   4  -7    0.90    0.90
   3  -4   7    2.00    0.80
  -4   4  -7    2.00    1.60
  -4   4  -7    0.20    1.00
   4  -4   7    1.50    0.90
  -5   4  -7    6.60    1.30
  -5   4  -7   12.00    2.20
   5  -4   7   11.40    1.60
   7   3  -7    0.00    1.20
  -7  -3   7    1.30    0.90
  -7  -3   7    3.80    1.20
   6   3  -7   17.70    1.80
  -6  -3   7   20.70    1.90
  -6  -3   7   22.40    1.90
   5   3  -7   48.40    2.10
   5   3  -7   46.20    1.70
  -5  -3   7   46.90    2.30
  -5  -3   7   46.90    2.20
   4   3  -7    0.40    0.70
  -4  -3   7    1.00    0.60
  -4  -3   7    0.80    0.70
   3   3  -7  195.58    3.40
   3   3  -7  195.68    3.90
  -3  -3   7  190.78    4.50
  -3  -3   7  194.48    4.30
   2   3  -7   42.70    1.40
  -2  -3   7   42.80    1.40
  -2  -3   7   42.30    1.80
  -2  -3   7   41.90    1.50
   1   3  -7   11.00    0.90
   1   3  -7   11.70    1.00
  -1  -3   7   10.80    1.00
  -1  -3   7   10.80    0.90
   0   3  -7    2.20    0.60
   0   3  -7    2.40    0.80
   0  -3   7    2.30    0.60
   0  -3   7    2.40    0.50
  -1   3  -7   17.10    1.80
  -1   3  -7   18.30    1.20
   1  -3   7   18.70    1.20
   1  -3   7   17.80    1.10
   1  -3   7   17.90    0.90
  -2   3  -7   87.39    3.60
  -2   3  -7   93.59    2.60
   2  -3   7   87.29    2.40
   2  -3   7   94.29    2.70
  -3   3  -7    0.00    0.70
  -3   3  -7    0.00    1.40
   3  -3   7    0.70    0.70
  -4   3  -7   40.30    2.10
  -4   3  -7   39.60    3.10
   4  -3   7   42.50    2.20
  -5   3  -7    0.00    1.00
  -5   3  -7    2.70    1.90
   5  -3   7    2.40    1.10
   7   2  -7    0.50    1.10
  -7  -2   7    1.70    0.90
  -7  -2   7    3.60    1.20
   6   2  -7    2.20    0.90
  -6  -2   7    3.80    1.10
  -6  -2   7    3.30    0.90
   5   2  -7   31.60    1.80
  -5  -2   7   31.90    2.00
  -5  -2   7   32.80    1.90
   4   2  -7  153.98    3.50
  -4  -2   7  148.29    3.90
  -4  -2   7  146.29    4.00
   3   2  -7    4.80    0.60
   3   2  -7    4.20    0.70
  -3  -2   7    3.80    0.70
  -3  -2   7    3.60    0.80
   2   2  -7  735.23   10.30
   2   2  -7  716.13   10.40
  -2  -2   7  708.33   12.70
  -2  -2   7  708.93   12.20
  -2  -2   7  716.73   10.40
   1   2  -7  852.71   12.30
  -1  -2   7  851.11   12.10
  -1  -2   7  847.82   14.10
  -1  -2   7  876.61   12.30
  -1  -2   7  859.31   14.90
   0   2  -7  395.46    7.60
   0   2  -7  386.06    6.30
   0  -2   7  388.66    6.80
   0  -2   7  399.56    6.30
   0  -2   7  390.66    6.10
  -1   2  -7   28.10    2.00
  -1   2  -7   27.70    1.40
   1  -2   7   25.30    1.20
   1  -2   7   28.90    1.40
   1  -2   7   25.40    0.90
  -2   2  -7    1.00    1.50
  -2   2  -7    0.00    0.60
   2  -2   7    0.20    0.70
   2  -2   7    0.00    0.60
  -3   2  -7  134.39    4.80
  -3   2  -7  139.19    3.40
   3  -2   7  142.29    3.50
   3  -2   7  139.19    3.40
  -4   2  -7   21.10    1.70
  -4   2  -7   24.40    3.00
   4  -2   7   21.00    1.70
   4  -2   7   24.50    1.80
  -5   2  -7    0.00    1.00
  -5   2  -7    0.20    1.90
   5  -2   7    2.00    1.00
   7   1  -7    0.00    1.10
   7   1  -7    2.70    1.00
  -7  -1   7    0.40    0.90
  -7  -1   7    2.50    1.10
   6   1  -7    0.70    0.90
  -6  -1   7    2.70    1.00
  -6  -1   7    1.70    0.80
   5   1  -7   51.79    2.10
  -5  -1   7   54.79    2.40
  -5  -1   7   53.29    2.50
   4   1  -7   46.80    1.80
  -4  -1   7   43.30    2.00
  -4  -1   7   40.80    2.00
   3   1  -7   56.59    1.40
   3   1  -7   59.29    1.80
  -3  -1   7   56.79    2.00
  -3  -1   7   55.89    2.10
   2   1  -7    8.10    0.70
   2   1  -7    8.10    0.70
  -2  -1   7    7.80    0.70
  -2  -1   7    7.30    0.80
  -2  -1   7    6.20    0.90
   1   1  -7   27.90    1.10
  -1  -1   7   29.20    1.20
  -1  -1   7   29.40    1.10
  -1  -1   7   29.30    1.20
  -1  -1   7   29.90    1.30
   0   1  -7  126.19    2.70
   0   1  -7  131.09    3.30
   0  -1   7  131.09    2.60
   0  -1   7  122.99    2.60
   0  -1   7  133.69    2.80
  -1   1  -7    0.00    1.00
  -1   1  -7    0.10    0.60
  -1   1  -7    0.20    0.20
   1  -1   7    0.30    0.20
   1  -1   7    1.40    0.60
   1  -1   7    0.00    0.40
  -2   1  -7   45.40    2.90
  -2   1  -7   41.70    1.80
   2  -1   7   40.60    1.60
   2  -1   7   43.00    1.80
  -3   1  -7   20.30    2.70
  -3   1  -7   21.80    1.50
   3  -1   7   22.80    1.60
   3  -1   7   24.30    1.50
  -4   1  -7    0.40    1.80
  -4   1  -7    1.40    0.80
   4  -1   7    1.30    0.90
   4  -1   7    0.20    0.80
  -5   1  -7    4.40    2.30
  -5   1  -7    4.40    1.10
   5  -1   7    3.20    1.10
   5  -1   7    5.60    1.20
   7   0  -7    2.10    1.30
   7   0  -7    3.70    1.10
  -7   0   7    3.80    1.30
  -7   0   7    2.00    1.00
   6   0  -7   30.10    2.00
   6   0  -7   25.30    1.90
  -6   0   7   29.10    2.00
  -6   0   7   28.00    2.10
   5   0  -7   48.60    2.10
   5   0  -7   48.00    2.20
  -5   0   7   49.99    2.40
  -5   0   7   48.60    2.30
   4   0  -7   81.59    2.30
  -4   0   7   80.19    2.70
  -4   0   7   80.99    2.80
   3   0  -7  193.08    3.10
   3   0  -7  192.38    3.60
  -3   0   7  195.68    4.40
  -3   0   7  194.18    4.50
  -3   0   7  191.48    3.20
   2   0  -7   76.59    1.80
  -2   0   7   74.09    2.30
  -2   0   7   75.09    1.70
  -2   0   7   72.59    2.20
  -1   0   7  290.97    4.80
  -1   0   7  283.77    5.30
  -1   0   7  286.07    4.60
  -1   0   7  289.77    5.90
   0   0  -7    0.10    0.30
   0   0  -7    0.60    0.70
   0   0   7    0.50    0.30
   0   0   7    0.30    0.40
   0   0   7    1.00    0.50
  -1   0  -7   36.70    1.00
  -1   0  -7   41.60    2.30
   1   0   7   39.80    1.60
   1   0   7   38.40    1.30
  -2   0  -7   42.80    2.90
   2   0   7   43.30    1.80
   2   0   7   43.00    1.60
  -3   0  -7   56.59    2.10
  -3   0  -7   59.39    3.60
   3   0   7   57.99    2.00
   3   0   7   57.39    2.20
  -4   0  -7    2.90    0.80
  -4   0  -7    2.30    2.00
   4   0   7    2.10    0.90
   4   0   7    2.00    0.90
  -5   0  -7   13.00    1.50
  -5   0  -7   11.40    2.70
   5   0   7   14.70    1.70
   5   0   7   11.60    1.50
   7  -1  -7   29.60    2.30
   7  -1  -7   32.70    2.50
  -7   1   7   31.00    2.50
  -7   1   7   38.80    2.90
   6  -1  -7    2.20    1.00
   6  -1  -7    4.40    1.00
  -6   1   7    3.60    1.00
  -6   1   7    6.00    1.30
   5  -1  -7    9.20    1.10
   5  -1  -7    9.40    1.30
  -5   1   7    9.00    1.40
  -5   1   7    8.80    1.20
   4  -1  -7  100.29    3.10
   4  -1  -7   98.19    2.50
  -4   1   7   97.09    3.20
  -4   1   7   98.39    3.00
   3  -1  -7   22.50    1.30
   3  -1  -7   22.60    1.10
  -3   1   7   23.60    1.30
  -3   1   7   23.10    1.40
  -3   1   7   21.80    0.90
   2  -1  -7  206.58    3.60
   2  -1  -7  205.78    4.40
  -2   1   7  202.48    3.50
  -2   1   7  208.78    4.40
  -2   1   7  205.78    4.70
   1  -1  -7    0.00    0.30
  -1   1   7    0.10    0.60
  -1   1   7    0.00    0.40
  -1   1   7    0.50    0.40
  -1   1   7    0.20    0.30
   0  -1  -7   52.19    2.10
   0  -1  -7   54.69    1.60
   0   1   7   52.49    1.40
   0   1   7   54.09    1.70
  -1  -1  -7   10.70    0.80
  -1  -1  -7   12.60    1.80
   1   1   7   10.80    1.10
   1   1   7   11.10    0.80
  -2  -1  -7   13.10    2.00
   2   1   7   12.90    1.20
   2   1   7   14.70    1.10
  -3  -1  -7   30.40    3.10
   3   1   7   31.30    1.70
   3   1   7   31.30    1.60
  -4  -1  -7    0.30    2.00
   4   1   7    0.30    0.90
   4   1   7    1.40    0.80
  -5  -1  -7    6.10    2.60
  -5  -1  -7   11.40    1.50
   5   1   7    7.30    1.30
   5   1   7    8.50    1.30
   7  -2  -7    0.50    1.10
   7  -2  -7    1.60    1.10
  -7   2   7    2.90    1.30
  -7   2   7    0.00    1.00
   6  -2  -7    0.10    0.80
   6  -2  -7    0.00    0.90
  -6   2   7    1.10    1.00
  -6   2   7    0.00    0.80
   5  -2  -7    0.10    0.60
   5  -2  -7    0.00    0.70
  -5   2   7    0.70    0.80
  -5   2   7    0.10    0.60
   4  -2  -7  109.89    3.30
   4  -2  -7  110.89    2.70
  -4   2   7  111.39    3.20
  -4   2   7  110.29    3.50
   3  -2  -7  330.27    6.60
   3  -2  -7  327.77    5.30
  -3   2   7  335.17    6.60
  -3   2   7  327.77    7.10
  -3   2   7  317.67    5.00
   2  -2  -7   60.59    1.50
   2  -2  -7   63.09    2.10
  -2   2   7   62.19    2.10
  -2   2   7   60.39    2.20
  -2   2   7   61.89    1.60
   1  -2  -7  249.78    3.90
   1  -2  -7  254.37    5.00
  -1   2   7  254.77    5.60
  -1   2   7  250.37    4.40
  -1   2   7  249.68    3.90
   0  -2  -7   18.60    1.00
   0  -2  -7   15.60    1.50
   0   2   7   16.90    1.10
   0   2   7   17.50    0.80
  -1  -2  -7  226.78    5.70
  -1  -2  -7  226.38    4.20
   1   2   7  218.38    3.80
  -2  -2  -7   83.89    3.70
   2   2   7   82.39    2.50
   2   2   7   80.79    2.10
  -3  -2  -7    0.00    1.70
   3   2   7    0.30    0.60
   3   2   7    0.00    0.70
  -4  -2  -7    5.50    2.30
   4   2   7    6.40    1.00
   4   2   7    4.40    1.00
  -5  -2  -7    4.10    2.60
   5   2   7    8.30    1.30
   5   2   7    7.40    1.30
   7  -3  -7    2.80    1.20
   7  -3  -7    3.00    1.30
  -7   3   7    5.10    1.50
   6  -3  -7    1.30    0.90
   6  -3  -7    2.60    1.00
  -6   3   7    2.40    1.20
   5  -3  -7    0.30    0.80
   5  -3  -7    0.00    0.70
  -5   3   7    0.00    0.70
  -5   3   7    0.00    0.80
   4  -3  -7    1.30    0.70
   4  -3  -7    0.50    0.60
  -4   3   7    0.70    0.70
  -4   3   7    1.20    0.80
   3  -3  -7   19.80    1.40
   3  -3  -7   20.90    1.00
  -3   3   7   18.90    1.50
  -3   3   7   18.90    0.90
   2  -3  -7   24.20    0.90
   2  -3  -7   24.60    1.40
  -2   3   7   25.40    1.50
  -2   3   7   23.70    1.10
   1  -3  -7  438.06    6.30
   1  -3  -7  444.36    8.00
  -1   3   7  434.06    8.80
  -1   3   7  438.86    7.00
   0  -3  -7  101.49    2.60
   0  -3  -7   98.29    3.30
   0   3   7   96.49    1.80
   0   3   7   95.89    2.40
  -1  -3  -7   95.19    3.60
  -1  -3  -7   93.79    2.50
   1   3   7   90.09    2.00
   1   3   7   91.09    2.50
  -2  -3  -7    4.60    1.50
   2   3   7    3.80    0.80
   2   3   7    5.80    0.70
  -3  -3  -7    8.90    2.10
   3   3   7   10.40    1.30
   3   3   7   12.40    1.10
  -4  -3  -7    3.20    2.30
   4   3   7    3.80    1.00
   4   3   7    3.80    1.00
  -5  -3  -7   19.40    3.50
   5   3   7   21.00    2.00
   7  -4  -7    1.70    1.20
   7  -4  -7    1.40    1.20
  -7   4   7    3.90    1.40
   6  -4  -7   20.10    1.80
   6  -4  -7   21.50    2.10
  -6   4   7   25.00    2.30
   5  -4  -7   12.50    1.30
   5  -4  -7   15.10    1.60
  -5   4   7   16.90    1.80
   4  -4  -7    8.60    0.90
   4  -4  -7    6.40    1.00
  -4   4   7    8.60    1.30
   3  -4  -7   55.99    2.30
   3  -4  -7   53.49    1.50
  -3   4   7   50.49    2.30
  -3   4   7   51.79    1.60
   2  -4  -7  136.49    2.40
   2  -4  -7  138.29    3.60
  -2   4   7  140.89    4.00
  -2   4   7  136.79    2.90
   1  -4  -7    1.90    0.70
  -1   4   7    1.20    0.90
  -1   4   7    1.80    0.60
   0  -4  -7    0.00    0.60
   0  -4  -7    0.10    0.90
   0   4   7    0.20    0.50
  -1  -4  -7   16.10    1.60
  -1  -4  -7   16.50    2.20
   1   4   7   13.90    1.10
  -2  -4  -7   41.50    3.00
   2   4   7   43.40    1.90
  -3  -4  -7   44.90    3.60
   3   4   7   47.70    2.10
  -4  -4  -7    0.00    2.10
   4   4   7    0.10    0.80
   6  -5  -7   23.40    2.30
  -6   5   7   25.50    2.40
   5  -5  -7    4.90    1.10
  -5   5   7    8.00    1.50
   4  -5  -7   28.60    1.90
  -4   5   7   31.80    2.10
   3  -5  -7   21.80    1.70
  -3   5   7   20.90    1.10
  -3   5   7   21.80    1.70
   2  -5  -7  488.95    9.20
  -2   5   7  483.75    7.80
  -2   5   7  492.15   10.10
   1  -5  -7   68.09    2.50
  -1   5   7   68.49    2.80
  -1   5   7   69.89    2.10
   0  -5  -7    7.50    1.10
   0  -5  -7    6.80    1.40
   0   5   7    7.30    0.90
  -1  -5  -7    5.10    1.60
  -1  -5  -7    5.40    1.10
   1   5   7    5.20    0.90
  -2  -5  -7   32.00    3.00
   2   5   7   31.70    1.70
  -3  -5  -7   18.60    2.80
   3   5   7   18.60    1.60
  -4  -5  -7    0.00    2.30
   4   5   7    0.80    0.90
   6  -6  -7    2.10    1.20
  -6   6   7    3.30    1.30
   5  -6  -7   16.70    2.00
  -5   6   7   23.50    2.20
   4  -6  -7   11.80    1.70
  -4   6   7   15.20    1.80
   3  -6  -7    1.20    0.90
  -3   6   7    2.00    1.00
  -3   6   7    1.90    0.60
   2  -6  -7   18.00    1.70
  -2   6   7   18.20    1.80
  -2   6   7   17.60    1.20
   1  -6  -7   87.59    3.00
   1  -6  -7   86.09    3.30
  -1   6   7   88.79    3.30
  -1   6   7   84.89    2.50
   0  -6  -7   88.69    3.50
   0  -6  -7   85.49    3.10
   0   6   7   85.29    2.60
  -1  -6  -7  121.79    4.50
  -1  -6  -7  122.79    3.70
   1   6   7  124.49    3.30
   1   6   7  126.29    3.10
  -2  -6  -7    2.80    1.70
   2   6   7    4.90    0.90
   2   6   7    5.90    1.00
  -3  -6  -7    0.00    1.80
   3   6   7    0.00    0.80
   4   6   7    0.30    0.90
   6  -7  -7    0.00    1.20
  -6   7   7    0.40    1.10
   5  -7  -7    0.00    1.00
  -5   7   7    0.00    1.00
   4  -7  -7    1.30    1.10
  -4   7   7    2.10    1.10
   3  -7  -7   15.30    1.90
  -3   7   7   16.70    1.90
  -3   7   7   18.90    1.30
   2  -7  -7    5.10    1.20
  -2   7   7    6.30    1.30
  -2   7   7    6.10    0.80
   1  -7  -7   20.70    1.90
   1  -7  -7   23.80    2.10
  -1   7   7   21.20    2.00
  -1   7   7   21.20    1.40
   0  -7  -7    0.00    1.00
   0  -7  -7    0.30    1.10
   0   7   7    0.30    0.70
   0   7   7    1.20    0.60
  -1  -7  -7   42.30    3.00
   1   7   7   41.10    1.80
   1   7   7   39.00    1.90
  -2  -7  -7    8.30    2.20
   2   7   7    8.20    1.10
   2   7   7    7.50    1.10
  -3  -7  -7    0.00    2.00
   3   7   7    0.00    0.80
   3   7   7    1.10    0.80
   6  -8  -7    9.60    2.00
  -6   8   7   12.40    2.00
   5  -8  -7    6.90    1.70
  -5   8   7   11.20    1.80
   4  -8  -7    8.70    1.60
  -4   8   7   10.80    1.70
   3  -8  -7   13.00    1.70
  -3   8   7   13.60    1.90
  -3   8   7   13.10    1.20
   2  -8  -7    2.00    1.20
  -2   8   7    2.10    0.70
  -2   8   7    1.20    1.10
   1  -8  -7    1.20    1.20
   1  -8  -7    2.20    1.20
  -1   8   7    2.50    0.80
   0  -8  -7   20.10    2.30
   0  -8  -7   23.80    2.40
   0   8   7   23.60    1.40
   0   8   7   21.90    1.60
  -1  -8  -7   16.70    2.60
   1   8   7   18.40    1.60
   1   8   7   18.60    1.40
  -2  -8  -7   10.90    2.50
   2   8   7   11.70    1.40
   2   8   7   11.70    1.40
  -3  -8  -7    0.00    2.10
   3   8   7    0.90    0.90
   3   8   7    1.10    0.90
   5  -9  -7    0.50    1.50
  -5   9   7    5.00    1.50
   4  -9  -7   14.70    2.10
  -4   9   7   18.30    2.20
   3  -9  -7   28.10    2.70
  -3   9   7   31.70    2.50
  -3   9   7   33.50    1.80
   2  -9  -7    7.30    1.60
  -2   9   7   10.80    1.30
  -2   9   7   11.00    1.80
   1  -9  -7    0.10    1.30
   1  -9  -7    3.00    1.40
  -1   9   7    2.50    0.90
   0  -9  -7    0.00    1.40
   0  -9  -7    0.80    1.40
   0   9   7    2.30    0.70
   0   9   7    1.40    0.80
  -1  -9  -7    6.60    2.10
   1   9   7    8.00    1.20
   1   9   7    8.10    1.10
  -2  -9  -7    0.00    1.90
   2   9   7    0.30    0.80
   2   9   7    0.00    0.80
   4 -10  -7    0.00    1.40
  -4  10   7    0.00    1.10
   3 -10  -7    0.00    1.40
  -3  10   7    0.20    1.20
  -3  10   7    1.00    0.80
   2 -10  -7   41.30    3.20
  -2  10   7   50.29    2.30
  -2  10   7   45.10    3.00
   1 -10  -7   13.90    2.20
   1 -10  -7    3.60    1.90
  -1  10   7    9.20    1.30
   0 -10  -7   35.80    3.30
   0  10   7   37.90    2.20
   0  10   7   36.30    1.80
  -1 -10  -7    0.50    1.90
   1  10   7    3.70    0.90
   1  10   7    4.10    1.10
  -3  11   7    1.30    0.80
  -3  11   7    0.00    1.20
  -2  11   7    1.00    0.80
  -2  11   7    0.00    1.40
   1 -11  -7    1.30    1.50
  -1  11   7    0.70    0.90
   0 -11  -7   16.70    2.50
   0  11   7   17.10    1.80
   2  12  -8   24.50    1.90
   2  12  -8   28.80    2.20
  -2 -12   8   32.10    2.80
   1  12  -8    6.90    1.30
   1  12  -8    7.40    1.20
  -1 -12   8    6.50    1.20
  -1 -12   8    7.00    1.60
   0  12  -8    0.90    1.20
   0 -12   8    0.00    0.80
   0 -12   8    2.70    1.30
  -1  12  -8    4.20    1.40
   1 -12   8    4.00    1.10
   1 -12   8    4.10    1.40
   3  11  -8   17.30    1.80
  -3 -11   8   22.50    2.50
   2  11  -8    0.90    0.90
   2  11  -8    0.00    0.80
  -2 -11   8    2.10    1.20
   1  11  -8    2.80    1.00
   1  11  -8    3.30    0.90
  -1 -11   8    3.60    1.20
  -1 -11   8    2.10    0.90
   0  11  -8    0.50    1.10
   0 -11   8    2.20    1.20
   0 -11   8    0.50    0.80
  -1  11  -8   10.40    1.60
   1 -11   8    8.90    1.30
   1 -11   8    9.40    1.50
  -2  11  -8   20.80    2.50
   2 -11   8   22.10    2.00
   4  10  -8    0.00    0.90
  -4 -10   8    1.40    1.10
   3  10  -8    0.00    0.80
  -3 -10   8    1.00    1.10
   2  10  -8    3.40    1.00
   2  10  -8    2.40    0.80
  -2 -10   8    3.10    1.10
   1  10  -8   38.10    2.20
   1  10  -8   38.30    1.90
  -1 -10   8   37.30    2.00
  -1 -10   8   37.70    2.50
   0  10  -8    6.20    1.30
   0 -10   8    6.20    1.10
   0 -10   8    7.10    1.40
  -1  10  -8   17.00    2.10
   1 -10   8   19.70    2.10
   1 -10   8   19.00    1.60
  -2  10  -8   18.20    2.30
   2 -10   8   21.40    1.80
  -3  10  -8    7.40    1.70
   3 -10   8    9.40    1.40
   5   9  -8    0.00    0.90
   4   9  -8   15.70    1.70
  -4  -9   8   16.80    2.20
   3   9  -8    1.40    0.70
   3   9  -8    1.50    0.80
  -3  -9   8    2.10    1.00
   2   9  -8   31.20    1.80
   2   9  -8   32.20    1.90
  -2  -9   8   31.10    2.30
   1   9  -8    4.20    1.10
  -1  -9   8    1.40    0.70
  -1  -9   8    2.70    1.10
   0   9  -8    0.10    1.10
   0  -9   8    0.20    0.70
   0  -9   8    2.00    0.90
  -1   9  -8    0.90    1.10
   1  -9   8    1.70    0.90
   1  -9   8    1.00    0.80
  -2   9  -8    0.00    1.20
   2  -9   8    0.10    0.80
  -3   9  -8    0.00    1.30
   3  -9   8    1.50    0.90
  -4   9  -8    0.00    1.30
   4  -9   8    0.80    1.00
   5   8  -8   23.40    2.20
   5   8  -8   23.20    2.10
  -5  -8   8   28.50    2.40
   4   8  -8   97.49    3.20
  -4  -8   8   98.39    3.80
   3   8  -8   39.70    1.80
   3   8  -8   38.40    1.90
  -3  -8   8   39.30    2.40
   2   8  -8   31.80    1.70
   2   8  -8   31.30    1.80
  -2  -8   8   33.60    1.70
  -2  -8   8   31.10    2.20
   1   8  -8    5.70    1.20
  -1  -8   8    7.10    1.20
  -1  -8   8    5.50    0.90
   0   8  -8    0.80    1.00
   0  -8   8    0.70    0.90
   0  -8   8    0.20    0.60
  -1   8  -8   17.40    1.90
   1  -8   8   19.60    1.70
   1  -8   8   18.30    1.50
  -2   8  -8    1.60    1.10
   2  -8   8    2.60    0.90
  -3   8  -8    0.00    1.10
   3  -8   8    0.00    0.80
  -4   8  -8    0.00    1.20
   4  -8   8    1.40    1.00
   5   7  -8   21.30    1.90
   5   7  -8   22.50    1.90
  -5  -7   8   27.10    2.30
   4   7  -8    8.40    1.10
  -4  -7   8    8.30    1.30
   3   7  -8    0.70    0.60
   3   7  -8    0.70    0.70
  -3  -7   8    0.80    0.90
   2   7  -8    2.70    0.70
   2   7  -8    2.60    0.90
  -2  -7   8    6.10    1.10
  -2  -7   8    2.70    0.70
   1   7  -8    0.00    0.80
  -1  -7   8    0.00    0.60
  -1  -7   8    0.70    0.80
   0   7  -8   84.39    2.80
   0  -7   8   80.99    2.80
   0  -7   8   84.69    2.50
  -1   7  -8   24.30    1.80
   1  -7   8   22.10    1.50
   1  -7   8   27.70    1.70
  -2   7  -8    4.90    1.20
   2  -7   8    3.90    0.90
  -3   7  -8    3.80    1.30
   3  -7   8    4.10    1.00
  -4   7  -8   31.80    2.40
   4  -7   8   34.60    2.30
   6   6  -8    0.00    1.00
  -6  -6   8    1.00    1.00
   5   6  -8   16.00    1.70
   5   6  -8   19.00    1.80
  -5  -6   8   20.40    1.90
   4   6  -8    0.50    0.70
  -4  -6   8    0.70    0.70
   3   6  -8   18.50    1.40
   3   6  -8   19.00    1.30
  -3  -6   8   19.70    1.70
   2   6  -8  781.22   11.80
   2   6  -8  787.42   11.80
  -2  -6   8  758.42   13.70
  -2  -6   8  778.62   11.80
   1   6  -8   67.39    2.40
  -1  -6   8   68.69    2.20
  -1  -6   8   64.19    2.50
   0   6  -8   41.10    1.90
   0  -6   8   44.90    1.80
   0  -6   8   42.10    2.00
  -1   6  -8   43.30    2.00
   1  -6   8   43.00    1.80
   1  -6   8   45.90    1.90
  -2   6  -8    8.20    1.30
   2  -6   8    7.70    1.10
  -3   6  -8   74.89    2.90
   3  -6   8   76.79    2.80
  -4   6  -8   11.30    1.60
   4  -6   8   17.30    1.80
   6   5  -8    1.20    1.10
  -6  -5   8    3.40    1.10
   5   5  -8    0.30    0.80
   5   5  -8    0.00    0.80
  -5  -5   8    1.50    0.90
   4   5  -8   57.59    2.20
  -4  -5   8   57.09    2.60
   3   5  -8   62.79    2.20
   3   5  -8   62.29    2.00
  -3  -5   8   63.29    2.60
   2   5  -8   14.10    1.30
   2   5  -8   10.80    1.20
  -2  -5   8   14.90    1.50
  -2  -5   8   14.30    1.20
   1   5  -8    9.30    1.10
  -1  -5   8    7.30    1.00
  -1  -5   8    8.60    1.00
   0   5  -8   12.90    1.40
   0  -5   8   11.70    1.20
   0  -5   8   10.50    1.10
  -1   5  -8   15.70    1.60
   1  -5   8   16.50    1.20
   1  -5   8   13.70    1.20
  -2   5  -8    8.10    1.20
  -2   5  -8   10.40    1.60
   2  -5   8    7.50    1.00
  -3   5  -8   36.50    2.20
  -3   5  -8   37.80    2.70
   3  -5   8   36.30    2.00
  -4   5  -8    4.00    1.60
  -4   5  -8    2.20    1.20
   4  -5   8    4.20    1.10
  -5   5  -8    0.00    1.20
   5  -5   8    1.50    1.10
   6   4  -8    5.60    1.30
  -6  -4   8    6.70    1.30
   5   4  -8   16.70    1.60
  -5  -4   8   19.50    1.70
   4   4  -8   12.60    1.30
  -4  -4   8   11.50    1.50
   3   4  -8  242.48    4.70
   3   4  -8  246.78    4.40
  -3  -4   8  243.28    5.60
   2   4  -8  192.88    3.70
   2   4  -8  189.58    3.90
  -2  -4   8  190.08    4.50
  -2  -4   8  186.28    3.80
   1   4  -8   18.30    1.30
   1   4  -8   17.50    1.10
  -1  -4   8   17.20    1.10
  -1  -4   8   17.20    1.30
   0   4  -8    9.20    1.10
   0   4  -8   10.00    1.40
   0  -4   8    9.90    1.10
   0  -4   8   11.00    1.00
  -1   4  -8   95.89    3.30
  -1   4  -8   97.49    2.80
   1  -4   8   91.39    2.50
   1  -4   8   91.69    2.30
  -2   4  -8    1.10    1.40
  -2   4  -8    0.70    0.90
   2  -4   8    1.30    0.70
  -3   4  -8    7.30    1.80
  -3   4  -8    5.60    1.10
   3  -4   8    6.80    1.10
  -4   4  -8   13.70    2.20
  -4   4  -8   10.40    1.50
   4  -4   8   16.00    1.70
  -5   4  -8    4.00    2.00
  -5   4  -8    1.10    1.20
   5  -4   8    2.90    1.20
   6   3  -8    1.00    1.00
  -6  -3   8    2.20    0.90
  -6  -3   8    1.10    0.90
   5   3  -8    2.30    0.90
  -5  -3   8    3.30    0.90
  -5  -3   8    2.60    0.90
   4   3  -8   17.30    1.40
  -4  -3   8   19.30    1.60
  -4  -3   8   17.80    1.30
   3   3  -8  152.78    3.40
   3   3  -8  157.78    3.00
  -3  -3   8  144.89    3.60
  -3  -3   8  149.49    4.00
   2   3  -8    0.30    0.50
   2   3  -8    1.10    0.60
  -2  -3   8    0.70    0.50
  -2  -3   8    0.70    0.50
  -2  -3   8    0.90    0.60
   1   3  -8   60.19    1.90
   1   3  -8   61.89    2.00
  -1  -3   8   62.09    1.80
  -1  -3   8   60.19    2.00
   0   3  -8  235.58    5.20
   0   3  -8  242.08    4.50
   0  -3   8  233.58    4.60
   0  -3   8  232.28    4.30
  -1   3  -8   30.00    1.60
  -1   3  -8   30.50    2.30
   1  -3   8   29.20    1.50
  -2   3  -8  168.28    3.90
  -2   3  -8  170.98    5.00
   2  -3   8  174.18    4.00
   2  -3   8  166.98    3.70
  -3   3  -8    0.00    0.90
  -3   3  -8    1.10    1.70
   3  -3   8    1.40    0.80
  -4   3  -8    5.70    2.10
  -4   3  -8    4.50    1.10
   4  -3   8    7.30    1.20
  -5   3  -8    0.00    2.00
  -5   3  -8    0.00    1.10
   5  -3   8    2.40    1.10
   7   2  -8    4.80    1.10
   7   2  -8    3.40    1.40
  -7  -2   8    5.10    1.30
  -7  -2   8    3.80    1.10
   6   2  -8    0.00    0.80
  -6  -2   8    0.70    0.80
  -6  -2   8    1.40    0.90
   5   2  -8    3.50    0.90
  -5  -2   8    3.30    0.90
  -5  -2   8    3.90    1.00
   4   2  -8  435.06    7.30
  -4  -2   8  418.86    8.60
  -4  -2   8  431.46    8.60
   3   2  -8   11.90    1.10
   3   2  -8   10.90    0.90
  -3  -2   8   10.30    1.00
  -3  -2   8   10.40    1.30
   2   2  -8   44.10    1.60
   2   2  -8   45.80    1.50
  -2  -2   8   45.50    1.60
  -2  -2   8   46.40    1.70
  -2  -2   8   44.30    1.80
   1   2  -8    0.00    0.60
   1   2  -8    0.00    0.50
  -1  -2   8    0.00    0.50
  -1  -2   8    0.30    0.50
  -1  -2   8    0.00    0.40
   0   2  -8  260.27    5.60
   0   2  -8  248.88    4.60
   0  -2   8  254.57    4.80
   0  -2   8  258.47    4.50
   0  -2   8  260.27    4.70
  -1   2  -8  810.12   15.20
  -1   2  -8  802.72   12.20
   1  -2   8  807.62   11.90
   1  -2   8  831.72   12.30
  -2   2  -8   24.60    1.50
  -2   2  -8   23.30    2.70
   2  -2   8   24.10    1.50
   2  -2   8   24.00    1.50
  -3   2  -8   42.00    2.00
  -3   2  -8   41.40    3.20
   3  -2   8   42.00    2.00
   3  -2   8   42.60    2.00
  -4   2  -8    0.00    0.90
  -4   2  -8    0.00    1.80
   4  -2   8    0.00    0.80
   4  -2   8    0.00    0.90
  -5   2  -8    0.30    2.10
  -5   2  -8    0.60    1.10
   5  -2   8    2.50    1.10
   7   1  -8    7.30    1.30
   7   1  -8    7.10    1.40
  -7  -1   8   13.10    2.10
  -7  -1   8    7.40    1.40
   6   1  -8    0.30    0.90
  -6  -1   8    1.50    0.90
  -6  -1   8    3.00    1.10
   5   1  -8    9.00    1.20
  -5  -1   8   10.10    1.40
  -5  -1   8   10.40    1.40
   4   1  -8  175.08    3.80
  -4  -1   8  174.08    4.40
  -4  -1   8  168.78    4.30
   3   1  -8    2.10    0.50
   3   1  -8    1.90    0.60
  -3  -1   8    1.70    0.70
  -3  -1   8    2.00    0.70
   2   1  -8   51.79    1.60
   2   1  -8   54.19    1.50
  -2  -1   8   52.89    1.60
  -2  -1   8   49.90    1.90
  -2  -1   8   52.49    1.50
  -2  -1   8   48.70    1.90
   1   1  -8   63.79    2.20
   1   1  -8   63.39    1.80
  -1  -1   8   60.09    1.90
  -1  -1   8   62.29    1.70
  -1  -1   8   66.09    2.20
  -1  -1   8   64.59    1.90
   0   1  -8   32.80    1.40
   0   1  -8   34.80    1.80
   0  -1   8   33.20    1.20
   0  -1   8   33.90    1.30
   0  -1   8   34.10    1.40
  -1   1  -8  195.28    5.20
  -1   1  -8  194.48    4.00
   1  -1   8  201.28    4.10
   1  -1   8  192.68    3.80
  -2   1  -8    0.90    1.70
  -2   1  -8    1.20    0.80
   2  -1   8    1.60    0.60
   2  -1   8    1.30    0.80
  -3   1  -8   42.90    3.30
  -3   1  -8   44.00    2.00
   3  -1   8   42.90    2.10
   3  -1   8   43.90    1.90
  -4   1  -8   23.20    1.80
  -4   1  -8   24.70    3.30
   4  -1   8   26.20    1.80
   4  -1   8   22.70    1.80
  -5   1  -8   13.00    1.60
  -5   1  -8   11.40    2.70
   5  -1   8   16.30    1.80
   5  -1   8   12.90    1.60
   7   0  -8   12.90    1.80
   7   0  -8   15.20    1.90
  -7   0   8   13.40    1.90
  -7   0   8   17.70    2.20
   6   0  -8   43.80    2.40
   6   0  -8   47.10    2.50
  -6   0   8   48.00    2.60
  -6   0   8   49.20    2.60
   5   0  -8  102.59    3.00
   5   0  -8   98.79    3.40
  -5   0   8  100.79    3.40
  -5   0   8   98.39    3.50
   4   0  -8   52.29    1.90
  -4   0   8   52.49    2.30
  -4   0   8   52.79    2.30
   3   0  -8   12.00    1.00
   3   0  -8   11.40    0.80
  -3   0   8   11.10    1.20
  -3   0   8   12.30    0.80
  -3   0   8   11.70    1.20
   2   0  -8    4.70    0.60
   2   0  -8    4.60    0.60
  -2   0   8    5.40    0.80
  -2   0   8    4.70    0.70
  -2   0   8    5.50    0.60
   1   0  -8  113.39    3.20
   1   0  -8  115.39    2.80
  -1   0   8  116.09    2.40
  -1   0   8  116.39    3.20
  -1   0   8  117.69    2.80
  -1   0   8  117.09    2.60
   0   0  -8   47.10    2.20
   0   0  -8   45.90    1.50
   0   0   8   45.70    1.50
   0   0   8   47.90    1.50
   0   0   8   48.10    1.70
  -1   0  -8   37.20    2.40
   1   0   8   39.00    1.70
   1   0   8   36.60    1.40
  -2   0  -8   97.19    4.00
   2   0   8   96.19    2.50
   2   0   8   99.09    2.80
  -3   0  -8   15.80    1.50
  -3   0  -8   15.60    2.50
   3   0   8   16.40    1.40
   3   0   8   15.10    1.50
  -4   0  -8    0.00    1.90
  -4   0  -8    0.70    0.80
   4   0   8    0.50    0.80
   4   0   8    0.00    0.90
  -5   0  -8    3.20    1.10
  -5   0  -8    2.30    2.50
   5   0   8    3.90    1.20
   5   0   8    2.60    1.20
   7  -1  -8    0.00    1.20
   7  -1  -8    0.40    1.00
  -7   1   8    1.60    1.20
  -7   1   8    0.00    1.00
   6  -1  -8    7.30    1.30
   6  -1  -8    7.60    1.30
  -6   1   8    7.80    1.30
  -6   1   8    8.30    1.50
   5  -1  -8   10.50    1.50
   5  -1  -8    8.80    1.10
  -5   1   8   10.60    1.40
  -5   1   8    8.60    1.40
   4  -1  -8   23.50    1.60
   4  -1  -8   23.30    1.30
  -4   1   8   22.20    1.50
  -4   1   8   24.80    1.70
   3  -1  -8  157.08    4.00
   3  -1  -8  160.38    3.20
  -3   1   8  162.38    4.20
  -3   1   8  157.68    2.90
  -3   1   8  158.58    3.90
   2  -1  -8  178.68    4.10
   2  -1  -8  188.18    3.40
  -2   1   8  180.88    3.40
  -2   1   8  183.68    4.10
  -2   1   8  185.28    4.50
   1  -1  -8  258.37    5.10
  -1   1   8  255.67    4.50
  -1   1   8  250.77    4.20
  -1   1   8  254.17    5.70
  -1   1   8  254.47    5.00
   0  -1  -8   71.19    2.80
   0  -1  -8   76.59    2.00
   0   1   8   72.79    1.80
   0   1   8   76.19    2.20
  -1  -1  -8    0.50    1.30
   1   1   8    0.20    0.50
   1   1   8    0.30    0.60
  -2  -1  -8   39.90    3.00
   2   1   8   42.20    1.90
   2   1   8   40.30    1.60
  -3  -1  -8   55.79    3.80
   3   1   8   59.59    2.30
   3   1   8   62.49    2.10
  -4  -1  -8   23.00    1.60
  -4  -1  -8   15.50    2.80
   4   1   8   16.80    1.70
   4   1   8   18.80    1.60
  -5  -1  -8    9.90    1.40
  -5  -1  -8    4.60    2.90
   5   1   8   11.00    1.50
   5   1   8    6.80    1.40
   7  -2  -8    3.00    1.20
   7  -2  -8    1.30    1.20
  -7   2   8    4.40    1.40
  -7   2   8    1.50    1.20
   6  -2  -8    1.00    0.90
   6  -2  -8    0.40    0.90
  -6   2   8    0.60    1.00
  -6   2   8    0.10    0.90
   5  -2  -8    0.30    0.70
   5  -2  -8    0.30    0.80
  -5   2   8    0.10    0.70
  -5   2   8    1.00    0.90
   4  -2  -8    0.90    0.70
   4  -2  -8    1.10    0.60
  -4   2   8    0.90    0.70
  -4   2   8    1.30    0.80
   3  -2  -8    0.00    0.60
   3  -2  -8    0.00    0.50
  -3   2   8    0.00    0.70
  -3   2   8    0.00    0.40
  -3   2   8    0.00    0.60
   2  -2  -8   89.09    2.60
   2  -2  -8   88.59    2.00
  -2   2   8   87.29    2.90
  -2   2   8   86.89    2.10
  -2   2   8   89.89    2.60
   1  -2  -8  271.47    5.30
   1  -2  -8  262.47    4.30
  -1   2   8  266.97    6.10
  -1   2   8  272.17    4.30
  -1   2   8  269.97    4.80
   0  -2  -8   96.79    2.50
   0  -2  -8   99.69    3.40
   0   2   8   95.39    2.10
   0   2   8  100.09    2.60
  -1  -2  -8  172.68    5.10
   1   2   8  162.28    3.10
   1   2   8  170.48    3.70
  -2  -2  -8    4.90    1.70
   2   2   8    5.70    0.80
   2   2   8    4.70    0.90
  -3  -2  -8    0.00    1.80
   3   2   8    1.80    0.70
   3   2   8    0.50    0.80
  -4  -2  -8    1.80    2.40
   4   2   8    6.00    1.00
   4   2   8    4.50    1.10
   7  -3  -8    6.30    1.40
   7  -3  -8    6.40    1.50
  -7   3   8   10.60    1.90
   6  -3  -8   27.60    2.00
   6  -3  -8   27.70    2.20
  -6   3   8   30.00    2.40
   5  -3  -8    0.70    0.70
   5  -3  -8    1.00    0.80
  -5   3   8    1.00    0.90
  -5   3   8    0.60    0.70
   4  -3  -8   89.19    3.10
   4  -3  -8   89.49    2.40
  -4   3   8   86.59    3.20
   3  -3  -8    0.00    0.50
   3  -3  -8    0.40    0.60
  -3   3   8    0.00    0.40
  -3   3   8    0.00    0.70
   2  -3  -8  183.58    4.30
   2  -3  -8  179.18    3.20
  -2   3   8  179.98    3.50
  -2   3   8  180.68    4.70
   1  -3  -8  101.69    2.00
   1  -3  -8  104.49    2.90
  -1   3   8  104.29    3.40
  -1   3   8  104.39    2.60
   0  -3  -8   38.00    2.30
   0  -3  -8   37.40    1.70
   0   3   8   38.70    1.70
   0   3   8   36.70    1.10
  -1  -3  -8    0.50    1.40
   1   3   8    1.00    0.70
   1   3   8    1.60    0.40
  -2  -3  -8   51.29    3.30
   2   3   8   50.49    2.10
  -3  -3  -8    0.00    1.90
   3   3   8    0.00    0.70
  -4  -3  -8    7.90    2.80
   4   3   8    9.80    1.30
   6  -4  -8   15.00    2.00
   6  -4  -8   16.20    1.70
  -6   4   8   17.80    2.20
   5  -4  -8    7.20    1.20
   5  -4  -8    8.80    1.10
  -5   4   8   10.50    1.60
   4  -4  -8   32.10    2.00
   4  -4  -8   32.50    1.50
  -4   4   8   31.70    2.10
   3  -4  -8  111.39    3.40
  -3   4   8  114.09    3.70
  -3   4   8  114.79    2.60
   2  -4  -8    1.90    0.70
  -2   4   8    0.60    0.60
  -2   4   8    1.60    0.90
   1  -4  -8  234.78    5.10
   1  -4  -8  240.28    5.90
  -1   4   8  238.58    4.60
  -1   4   8  240.48    5.90
   0  -4  -8    3.60    0.90
   0  -4  -8    3.60    1.30
   0   4   8    2.50    0.70
  -1  -4  -8   24.40    2.50
   1   4   8   24.90    1.50
  -2  -4  -8    0.00    1.60
   2   4   8    0.70    0.80
  -3  -4  -8    7.70    2.40
   3   4   8    9.60    1.30
  -4  -4  -8    0.00    2.30
   4   4   8    0.00    0.90
   6  -5  -8    0.60    1.10
  -6   5   8    0.50    1.10
   5  -5  -8   14.00    1.90
  -5   5   8   16.40    2.00
   4  -5  -8   46.70    2.40
  -4   5   8   49.00    2.70
   3  -5  -8   61.79    2.60
  -3   5   8   61.89    2.80
  -3   5   8   60.99    1.90
   2  -5  -8   41.00    2.10
  -2   5   8   39.20    2.30
  -2   5   8   37.70    1.60
   1  -5  -8   63.99    2.50
   1  -5  -8   65.09    2.90
  -1   5   8   67.69    2.90
  -1   5   8   67.19    2.20
   0  -5  -8  185.48    5.40
   0  -5  -8  189.78    4.50
   0   5   8  192.38    4.10
  -1  -5  -8  149.79    5.10
   1   5   8  156.38    3.80
  -2  -5  -8   21.00    2.70
   2   5   8   18.30    1.50
  -3  -5  -8    0.00    2.00
   3   5   8    1.80    0.90
  -4  -5  -8    0.00    2.70
   4   5   8    2.00    1.10
   6  -6  -8    0.00    1.10
  -6   6   8    1.60    1.30
   5  -6  -8    0.00    0.90
  -5   6   8    0.00    1.00
   4  -6  -8    1.00    1.00
  -4   6   8    1.70    1.10
   3  -6  -8   59.99    2.70
  -3   6   8   59.79    2.90
  -3   6   8   58.09    1.90
   2  -6  -8    8.20    1.20
  -2   6   8    9.40    1.10
  -2   6   8    9.50    1.50
   1  -6  -8   21.20    1.90
   1  -6  -8   21.80    2.10
  -1   6   8   23.70    1.50
   0  -6  -8   13.50    1.80
   0  -6  -8   19.80    2.30
   0   6   8   18.00    1.40
  -1  -6  -8    3.40    1.70
   1   6   8    1.80    0.80
  -2  -6  -8    0.00    1.70
   2   6   8    1.80    0.90
  -3  -6  -8    0.00    2.10
   3   6   8    1.60    0.90
   6  -7  -8   14.10    2.10
  -6   7   8   17.00    2.40
   5  -7  -8    6.20    1.50
  -5   7   8    9.10    1.80
   4  -7  -8   30.30    2.40
  -4   7   8   32.70    2.50
   3  -7  -8    2.90    1.10
  -3   7   8    4.10    0.80
  -3   7   8    3.60    1.30
   2  -7  -8   10.60    1.50
  -2   7   8   11.80    1.20
  -2   7   8   11.40    1.70
   1  -7  -8    2.50    1.20
   1  -7  -8    5.90    1.50
  -1   7   8    3.40    0.80
   0  -7  -8    0.00    1.10
   0  -7  -8    1.20    1.40
   0   7   8    1.50    0.70
  -1  -7  -8    0.40    1.60
   1   7   8    1.30    0.80
  -2  -7  -8   47.10    3.80
   2   7   8   48.20    2.30
  -3  -7  -8    0.80    2.40
   3   7   8    3.40    1.10
   5  -8  -8   32.70    2.90
  -5   8   8   33.20    2.80
   4  -8  -8    3.90    1.40
  -4   8   8    6.70    1.50
   3  -8  -8   22.20    2.30
  -3   8   8   26.10    1.60
  -3   8   8   24.60    2.30
   2  -8  -8   24.80    2.30
  -2   8   8   27.90    1.70
  -2   8   8   24.70    2.30
   1  -8  -8    0.10    1.20
   1  -8  -8    1.60    1.30
  -1   8   8    2.10    0.80
   0  -8  -8    0.00    1.30
   0   8   8    0.30    0.80
  -1  -8  -8    0.00    1.60
   1   8   8    1.20    0.80
  -2  -8  -8    0.90    2.20
   2   8   8    3.60    1.10
   5  -9  -8    0.00    1.50
  -5   9   8    1.70    1.40
   4  -9  -8    4.70    1.80
  -4   9   8    6.70    1.70
   3  -9  -8    0.00    1.20
  -3   9   8    0.60    1.20
  -3   9   8    1.10    0.70
   2  -9  -8   19.90    2.60
  -2   9   8   25.80    2.40
  -2   9   8   24.30    1.70
   1  -9  -8   43.60    3.10
   1  -9  -8   53.79    3.30
  -1   9   8   50.99    2.40
   0  -9  -8   15.40    2.40
   0   9   8   16.20    1.70
  -1  -9  -8   10.70    2.50
   1   9   8   11.90    1.50
  -2  -9  -8    0.00    2.00
   2   9   8    0.30    0.90
   4 -10  -8    6.30    2.00
  -4  10   8    9.20    1.90
  -3  10   8    0.30    0.70
  -3  10   8    0.00    1.20
   2 -10  -8    0.00    1.60
  -2  10   8    0.40    1.40
  -2  10   8    1.70    0.90
   1 -10  -8    4.60    1.80
  -1  10   8    3.90    1.00
   0 -10  -8    1.70    1.90
   0  10   8    2.90    1.00
  -1 -10  -8   21.70    3.40
   1  10   8   28.00    2.10
   1  10   8   28.20    1.90
  -2  11   8    0.40    0.90
   1 -11  -8    3.60    1.70
  -1  11   8    2.80    1.10
   1  12  -9    7.20    1.40
   1  12  -9    6.70    1.20
  -1 -12   9    9.80    1.70
  -1 -12   9    8.60    1.40
   0  12  -9    0.90    1.30
   0 -12   9    1.40    1.00
   3  11  -9    6.80    1.20
  -3 -11   9    9.30    1.60
   2  11  -9    0.20    0.80
   2  11  -9    0.60    0.90
  -2 -11   9    1.80    1.10
   1  11  -9    8.30    1.20
   1  11  -9    8.10    1.40
  -1 -11   9    7.60    1.50
  -1 -11   9    6.70    1.20
   0  11  -9   20.20    2.20
   0 -11   9   19.70    1.80
   0 -11   9   19.50    2.10
  -1  11  -9    0.30    1.30
   1 -11   9    0.40    0.90
  -2  11  -9    0.90    1.50
   2 -11   9    0.80    0.90
   4  10  -9    0.00    0.90
  -4 -10   9    2.30    1.20
   3  10  -9   15.40    1.70
  -3 -10   9   19.10    2.30
   2  10  -9    0.30    0.80
   2  10  -9    0.80    0.90
  -2 -10   9    1.90    1.00
   1  10  -9    0.10    1.00
  -1 -10   9    1.50    1.00
  -1 -10   9    0.60    0.80
   0  10  -9    3.80    1.30
   0 -10   9    5.60    1.20
   0 -10   9    4.10    1.00
  -1  10  -9    0.90    1.30
   1 -10   9    0.70    0.90
  -2  10  -9    0.40    1.40
   2 -10   9    0.10    0.90
   4   9  -9    6.70    1.30
  -4  -9   9    7.70    1.50
   3   9  -9   35.30    2.00
  -3  -9   9   38.20    2.60
   2   9  -9   36.20    2.10
   2   9  -9   35.30    1.90
  -2  -9   9   37.90    2.00
  -2  -9   9   37.60    2.40
   1   9  -9    2.00    1.10
  -1  -9   9    2.70    0.90
  -1  -9   9    4.60    1.10
   0   9  -9   31.70    2.30
   0  -9   9   33.90    2.20
   0  -9   9   31.40    1.90
  -1   9  -9    7.20    1.50
   1  -9   9    7.40    1.20
  -2   9  -9   36.00    2.60
   2  -9   9   35.50    2.10
  -3   9  -9    0.00    1.40
   3  -9   9    0.40    0.90
   5   8  -9   12.00    1.60
   5   8  -9    9.50    1.60
  -5  -8   9   14.10    2.00
   4   8  -9   51.79    2.40
  -4  -8   9   52.29    2.90
   3   8  -9   13.50    1.50
  -3  -8   9   15.40    1.90
   2   8  -9   10.20    1.30
   2   8  -9    7.50    1.20
  -2  -8   9    9.50    1.20
  -2  -8   9    8.10    1.30
   1   8  -9    8.80    1.40
  -1  -8   9   10.20    1.20
  -1  -8   9    7.40    1.20
   0   8  -9   24.90    1.90
   0  -8   9   25.90    1.80
   0  -8   9   24.80    1.60
  -1   8  -9    1.40    1.10
   1  -8   9    1.80    0.80
  -2   8  -9    0.00    1.10
   2  -8   9    0.20    0.80
  -3   8  -9    0.00    1.20
   3  -8   9    0.30    0.80
   5   7  -9   32.40    2.20
  -5  -7   9   38.90    2.60
   4   7  -9    0.70    0.80
  -4  -7   9    0.90    0.90
   3   7  -9    4.80    1.00
  -3  -7   9    4.40    1.00
   2   7  -9   25.50    1.60
   2   7  -9   25.40    1.70
  -2  -7   9   26.40    1.90
  -2  -7   9   24.70    1.60
   1   7  -9   49.90    2.30
  -1  -7   9   50.29    2.10
  -1  -7   9   50.79    2.40
   0   7  -9   14.00    1.50
   0  -7   9   14.50    1.50
   0  -7   9   14.60    1.40
  -1   7  -9    9.10    1.40
   1  -7   9   10.10    1.20
  -2   7  -9   17.90    2.00
   2  -7   9   17.20    1.60
  -3   7  -9    7.70    1.50
   3  -7   9   10.80    1.40
  -4   7  -9    0.00    1.20
   4  -7   9    0.10    0.90
   6   6  -9    3.70    1.30
  -6  -6   9    6.00    1.30
   5   6  -9    0.00    0.90
  -5  -6   9    0.00    0.90
   4   6  -9    0.00    0.60
  -4  -6   9    0.50    0.80
   3   6  -9    9.50    1.20
   3   6  -9    8.30    1.10
  -3  -6   9   10.40    1.50
   2   6  -9   45.60    2.00
   2   6  -9   44.30    1.90
  -2  -6   9   46.20    2.30
  -2  -6   9   45.40    1.90
   1   6  -9   70.99    2.50
  -1  -6   9   71.99    2.30
  -1  -6   9   71.19    2.60
   0   6  -9   64.79    2.50
   0  -6   9   62.19    2.20
   0  -6   9   61.69    2.30
  -1   6  -9    5.20    1.20
   1  -6   9    3.50    0.90
  -2   6  -9    0.00    1.00
   2  -6   9    0.60    0.70
  -3   6  -9    2.30    1.20
   3  -6   9    2.30    0.90
  -4   6  -9    8.20    1.60
   4  -6   9    9.60    1.50
   6   5  -9    0.00    1.00
  -6  -5   9    0.70    1.00
   5   5  -9  124.89    3.70
  -5  -5   9  124.99    4.20
   4   5  -9   50.09    2.20
  -4  -5   9   51.99    2.50
   3   5  -9    1.10    0.70
   3   5  -9    1.40    0.70
  -3  -5   9    1.20    0.80
   2   5  -9  347.67    6.10
   2   5  -9  346.87    6.10
  -2  -5   9  337.57    6.10
  -2  -5   9  336.37    7.10
   1   5  -9   11.70    1.40
  -1  -5   9   11.60    1.20
  -1  -5   9   11.40    1.10
   0   5  -9  131.29    3.30
   0  -5   9  129.89    3.20
   0  -5   9  124.79    3.20
  -1   5  -9    0.00    0.90
   1  -5   9    1.10    0.70
  -2   5  -9    0.00    0.80
   2  -5   9    0.40    0.70
  -3   5  -9   10.30    1.40
   3  -5   9   12.70    1.50
  -4   5  -9    2.10    1.30
   4  -5   9    4.00    1.20
   6   4  -9   27.60    2.10
  -6  -4   9   26.60    2.20
   5   4  -9    1.90    0.90
  -5  -4   9    1.60    0.90
   4   4  -9   36.90    1.80
  -4  -4   9   34.90    2.10
   3   4  -9  283.97    5.40
   3   4  -9  283.47    5.00
  -3  -4   9  275.87    6.20
   2   4  -9   98.59    2.60
   2   4  -9   99.49    2.70
  -2  -4   9  100.29    3.10
  -2  -4   9  100.09    2.70
   1   4  -9  194.78    4.00
  -1  -4   9  197.38    4.00
  -1  -4   9  187.28    4.40
   0   4  -9    0.20    0.80
   0  -4   9    0.30    0.50
   0  -4   9    0.40    0.60
  -1   4  -9   13.70    2.10
  -1   4  -9   15.00    1.50
   1  -4   9   15.10    1.30
  -2   4  -9  124.89    3.50
  -2   4  -9  123.89    4.20
   2  -4   9  121.49    3.20
  -3   4  -9    0.60    1.70
  -3   4  -9    0.20    1.00
   3  -4   9    0.60    0.80
  -4   4  -9   19.30    2.10
  -4   4  -9   17.90    2.70
   4  -4   9   24.00    1.90
   6   3  -9    5.50    1.30
  -6  -3   9    5.10    1.20
   5   3  -9    7.00    1.10
  -5  -3   9    5.70    1.10
   4   3  -9    1.50    0.70
  -4  -3   9    1.70    0.60
  -4  -3   9    1.40    0.80
   3   3  -9   25.90    1.30
   3   3  -9   27.50    1.50
  -3  -3   9   25.10    1.40
  -3  -3   9   23.10    1.70
   2   3  -9   30.70    1.50
   2   3  -9   29.70    1.50
  -2  -3   9   30.80    1.70
  -2  -3   9   30.30    1.40
  -2  -3   9   28.10    1.40
   1   3  -9   28.20    1.50
   1   3  -9   28.50    1.60
  -1  -3   9   27.90    1.40
  -1  -3   9   26.80    1.40
   0   3  -9  148.79    3.90
   0   3  -9  146.29    3.40
   0  -3   9  139.49    3.20
   0  -3   9  142.89    3.20
  -1   3  -9   55.19    2.20
  -1   3  -9   55.69    2.90
   1  -3   9   55.29    2.00
   1  -3   9   56.49    2.20
  -2   3  -9  244.18    5.10
  -2   3  -9  240.98    6.40
   2  -3   9  245.38    5.10
   2  -3   9  234.28    4.80
  -3   3  -9   10.10    1.30
  -3   3  -9   10.20    2.20
   3  -3   9   12.30    1.50
  -4   3  -9   10.40    1.50
  -4   3  -9   10.00    2.50
   4  -3   9   15.70    1.70
   6   2  -9    3.40    1.20
  -6  -2   9    4.80    1.20
  -6  -2   9    5.90    1.20
   5   2  -9    2.50    0.90
  -5  -2   9    4.00    0.90
  -5  -2   9    4.10    0.90
   4   2  -9   17.30    1.40
  -4  -2   9   16.90    1.40
  -4  -2   9   19.30    1.60
   3   2  -9   35.80    1.40
   3   2  -9   37.30    1.60
  -3  -2   9   34.60    1.70
  -3  -2   9   34.00    1.90
   2   2  -9    0.30    0.60
   2   2  -9    0.50    0.50
  -2  -2   9    0.10    0.60
  -2  -2   9    0.60    0.60
  -2  -2   9    0.90    0.50
   1   2  -9   28.80    1.40
   1   2  -9   28.20    1.60
  -1  -2   9   27.20    1.40
  -1  -2   9   28.10    1.40
  -1  -2   9   26.90    1.30
   0   2  -9   68.29    2.20
   0   2  -9   62.99    2.60
   0  -2   9   64.49    2.20
   0  -2   9   60.99    1.80
   0  -2   9   64.59    2.00
  -1   2  -9   51.39    2.00
  -1   2  -9   52.09    2.90
   1  -2   9   51.09    1.80
   1  -2   9   53.39    2.10
  -2   2  -9   21.00    2.80
  -2   2  -9   23.40    1.70
   2  -2   9   22.00    1.50
   2  -2   9   22.70    1.70
  -3   2  -9   26.70    3.20
  -3   2  -9   27.20    1.90
   3  -2   9   26.70    1.80
   3  -2   9   23.40    1.90
  -4   2  -9    0.00    2.00
  -4   2  -9    0.00    1.00
   4  -2   9    1.60    0.90
   4  -2   9    0.00    1.00
   6   1  -9   42.20    2.40
   6   1  -9   44.50    2.60
  -6  -1   9   47.40    2.60
  -6  -1   9   45.00    2.50
   5   1  -9   26.60    1.80
  -5  -1   9   24.60    1.90
  -5  -1   9   24.80    1.80
   4   1  -9   24.80    1.50
  -4  -1   9   24.00    1.70
  -4  -1   9   26.30    1.70
   3   1  -9  365.36    5.80
   3   1  -9  365.86    6.20
  -3  -1   9  358.46    7.20
  -3  -1   9  357.76    7.50
   2   1  -9  102.89    2.40
   2   1  -9  106.39    2.50
  -2  -1   9  106.39    2.50
  -2  -1   9  104.19    2.50
  -2  -1   9  105.69    3.00
  -2  -1   9  103.39    2.90
   1   1  -9    9.20    1.30
   1   1  -9    8.70    1.00
  -1  -1   9    9.30    0.90
  -1  -1   9    9.60    0.90
  -1  -1   9   10.20    1.10
   0   1  -9   30.70    2.00
   0   1  -9   28.70    1.50
   0   1  -9   27.80    1.20
   0  -1   9   30.70    1.20
   0  -1   9   29.30    1.40
   0  -1   9   30.20    1.60
  -1   1  -9    8.20    1.70
  -1   1  -9    6.70    0.90
   1  -1   9    6.90    0.90
   1  -1   9    5.50    0.90
  -2   1  -9    0.00    1.60
  -2   1  -9    0.40    0.70
   2  -1   9    0.60    0.60
   2  -1   9    0.00    0.70
  -3   1  -9    5.60    2.20
  -3   1  -9    5.40    1.00
   3  -1   9    6.80    1.00
   3  -1   9    5.40    1.10
  -4   1  -9    0.00    2.20
  -4   1  -9    2.70    1.10
   4  -1   9    1.50    1.10
   4  -1   9    3.80    1.00
   7   0  -9    3.10    1.40
   7   0  -9    4.40    1.20
  -7   0   9    5.50    1.40
  -7   0   9    5.00    1.30
   6   0  -9    4.60    1.20
   6   0  -9    5.20    1.20
  -6   0   9    5.80    1.30
  -6   0   9    5.50    1.20
   5   0  -9    3.10    0.90
   5   0  -9    3.20    0.90
  -5   0   9    3.10    1.00
  -5   0   9    3.00    0.90
   4   0  -9   96.59    3.20
   4   0  -9   98.79    2.70
  -4   0   9   96.09    3.20
  -4   0   9   94.69    3.10
   3   0  -9   30.70    1.40
   3   0  -9   29.60    1.20
   3   0  -9   29.90    1.60
  -3   0   9   30.90    1.20
  -3   0   9   29.20    1.60
  -3   0   9   30.00    1.70
   2   0  -9   52.69    2.00
   2   0  -9   51.79    1.60
   2   0  -9   52.49    1.70
  -2   0   9   53.09    2.00
  -2   0   9   54.29    1.70
  -2   0   9   52.59    2.10
   1   0  -9   10.80    0.90
   1   0  -9   10.20    1.40
  -1   0   9   11.00    0.90
  -1   0   9   11.50    1.00
  -1   0   9   10.40    1.10
   0   0  -9   38.40    1.40
   0   0  -9   40.70    2.30
   0   0   9   40.70    1.80
   0   0   9   40.00    1.40
   0   0   9   41.30    1.50
  -1   0  -9  109.19    4.00
   1   0   9  113.39    3.00
   1   0   9  107.19    2.60
  -2   0  -9    4.50    0.90
  -2   0  -9    1.90    1.80
   2   0   9    5.10    1.00
   2   0   9    5.20    0.80
  -3   0  -9    7.40    1.10
  -3   0  -9    4.10    2.10
   3   0   9    5.20    1.10
   3   0   9    6.40    1.00
  -4   0  -9    1.10    2.40
  -4   0  -9    4.50    1.10
   4   0   9    6.20    1.10
   4   0   9    2.80    1.20
   7  -1  -9    4.60    1.30
   7  -1  -9    3.30    1.30
  -7   1   9    3.90    1.30
  -7   1   9    6.00    1.50
   6  -1  -9    8.80    1.40
   6  -1  -9   10.00    1.40
  -6   1   9   10.40    1.70
  -6   1   9    7.00    1.20
   5  -1  -9   67.09    2.90
   5  -1  -9   68.89    2.50
  -5   1   9   69.59    3.00
  -5   1   9   69.49    2.90
   4  -1  -9   20.20    1.60
   4  -1  -9   22.10    1.40
  -4   1   9   21.10    1.60
  -4   1   9   21.30    1.70
   3  -1  -9   33.10    1.80
   3  -1  -9   33.00    1.40
  -3   1   9   31.80    1.80
  -3   1   9   32.10    1.70
  -3   1   9   32.00    1.20
   2  -1  -9   31.10    1.60
   2  -1  -9   33.20    1.30
  -2   1   9   32.00    1.80
  -2   1   9   31.90    1.60
  -2   1   9   34.10    1.40
   1  -1  -9   46.00    2.30
   1  -1  -9   50.99    1.80
  -1   1   9   50.19    1.80
  -1   1   9   46.70    1.50
  -1   1   9   50.39    1.80
   0  -1  -9 1341.67   23.80
   0  -1  -9 1334.57   21.10
   0   1   9 1314.07   18.10
   0   1   9 1303.27   19.00
  -1  -1  -9    0.00    1.30
   1   1   9    0.00    0.60
   1   1   9    0.70    0.50
  -2  -1  -9   96.09    4.30
   2   1   9   94.99    2.50
   2   1   9   91.69    2.80
  -3  -1  -9    2.60    2.10
   3   1   9    4.20    1.10
   3   1   9    5.40    0.90
  -4  -1  -9    0.00    2.40
  -4  -1  -9    2.90    1.00
   4   1   9    1.60    1.10
   4   1   9    2.30    0.90
   6  -2  -9    2.50    1.10
   6  -2  -9    2.20    1.00
  -6   2   9    2.40    1.10
  -6   2   9    2.10    1.10
   5  -2  -9   60.09    2.30
   5  -2  -9   58.39    2.80
  -5   2   9   58.89    2.80
  -5   2   9   60.09    2.90
   4  -2  -9    0.00    0.70
   4  -2  -9    0.00    0.60
  -4   2   9    0.40    0.70
  -4   2   9    1.00    0.80
   3  -2  -9    2.30    0.60
   3  -2  -9    2.00    0.70
  -3   2   9    3.00    1.00
  -3   2   9    2.10    0.50
  -3   2   9    1.90    0.70
   2  -2  -9    0.00    0.50
   2  -2  -9    0.00    0.40
  -2   2   9    0.00    0.50
  -2   2   9    0.00    0.50
  -2   2   9    0.00    0.70
   1  -2  -9   44.50    1.80
   1  -2  -9   41.70    2.40
  -1   2   9   45.70    1.80
  -1   2   9   44.10    1.40
   0  -2  -9   29.10    1.50
   0  -2  -9   32.60    2.40
   0   2   9   32.50    1.60
   0   2   9   31.20    1.20
  -1  -2  -9    0.60    1.40
   1   2   9    1.40    0.50
   1   2   9    2.00    0.80
  -2  -2  -9    1.40    1.80
   2   2   9    1.90    0.80
   2   2   9    3.00    0.60
  -3  -2  -9   11.00    2.60
   3   2   9   11.50    1.40
  -4  -2  -9    0.00    2.60
   4   2   9    1.80    1.10
   6  -3  -9   18.50    1.80
   6  -3  -9   21.50    2.10
  -6   3   9   25.30    2.40
   5  -3  -9   99.29    3.60
   5  -3  -9  100.59    2.90
  -5   3   9  101.99    3.90
   4  -3  -9    7.00    0.90
   4  -3  -9    7.50    1.20
  -4   3   9    9.30    1.50
   3  -3  -9   20.70    1.10
   3  -3  -9   23.10    1.60
  -3   3   9   21.30    1.70
  -3   3   9   21.30    1.20
   2  -3  -9   13.40    0.90
   2  -3  -9   13.20    1.30
  -2   3   9   13.30    1.10
  -2   3   9   13.60    1.50
   1  -3  -9  280.97    6.70
   1  -3  -9  283.57    5.80
  -1   3   9  285.47    5.30
   0  -3  -9   22.40    2.20
   0  -3  -9   19.90    1.40
   0   3   9   22.10    1.50
  -1  -3  -9   47.50    3.10
   1   3   9   49.40    2.10
  -2  -3  -9   44.50    3.40
   2   3   9   46.30    2.20
  -3  -3  -9   18.10    2.90
   3   3   9   19.90    1.80
   4   3   9    0.00    0.90
   6  -4  -9    3.00    1.20
  -6   4   9    4.90    1.50
   5  -4  -9    2.90    1.10
  -5   4   9    4.40    1.30
   4  -4  -9   45.50    2.40
  -4   4   9   47.50    2.60
   3  -4  -9   17.40    1.60
  -3   4   9   17.40    1.70
  -3   4   9   16.10    1.10
   2  -4  -9    0.80    0.70
  -2   4   9    1.40    0.60
  -2   4   9    0.30    0.90
   1  -4  -9   42.00    2.50
   1  -4  -9   44.80    2.00
  -1   4   9   43.20    1.80
   0  -4  -9    2.30    0.80
   0  -4  -9    2.80    1.30
   0   4   9    1.80    0.70
  -1  -4  -9   99.19    4.30
   1   4   9  102.69    3.00
  -2  -4  -9   47.30    3.60
   2   4   9   49.80    2.30
  -3  -4  -9    0.00    2.00
   3   4   9    0.00    0.90
   6  -5  -9    6.70    1.60
  -6   5   9   10.30    1.80
   5  -5  -9    3.90    1.20
  -5   5   9    6.00    1.50
   4  -5  -9    4.00    1.10
  -4   5   9    5.20    1.30
   3  -5  -9   62.99    2.70
  -3   5   9   57.09    1.90
  -3   5   9   58.19    2.90
   2  -5  -9   88.79    3.10
  -2   5   9   86.49    2.50
  -2   5   9   87.49    3.50
   1  -5  -9    4.70    1.40
   1  -5  -9    3.60    1.00
  -1   5   9    5.20    0.90
   0  -5  -9   97.29    4.00
   0  -5  -9   96.89    3.50
   0   5   9  101.69    2.90
  -1  -5  -9    0.00    1.50
   1   5   9    0.00    0.70
  -2  -5  -9   55.49    3.70
   2   5   9   58.99    2.50
  -3  -5  -9    0.00    2.30
   3   5   9    0.20    0.90
   6  -6  -9    0.20    1.30
  -6   6   9    2.50    1.40
   5  -6  -9   19.80    2.20
  -5   6   9   26.10    2.40
   4  -6  -9    0.00    0.90
  -4   6   9    0.70    1.10
   3  -6  -9   26.40    2.10
  -3   6   9   30.00    2.40
  -3   6   9   28.90    1.50
   2  -6  -9    1.20    0.90
  -2   6   9    1.50    1.10
  -2   6   9    2.00    0.70
   1  -6  -9    1.20    1.20
   1  -6  -9    0.30    0.90
  -1   6   9    1.50    0.70
   0  -6  -9    2.60    1.50
   0   6   9    2.30    0.80
  -1  -6  -9    0.50    1.60
   1   6   9    0.60    0.80
  -2  -6  -9    0.00    1.80
   2   6   9    0.10    0.80
  -3  -6  -9    0.00    2.50
   3   6   9    3.00    1.10
   5  -7  -9   31.80    2.70
  -5   7   9   33.40    2.80
   4  -7  -9   41.40    2.70
  -4   7   9   42.00    2.80
   3  -7  -9   22.40    2.20
  -3   7   9   24.50    2.30
  -3   7   9   26.60    1.60
   2  -7  -9   26.40    2.20
  -2   7   9   27.60    2.40
  -2   7   9   28.80    1.70
   1  -7  -9    0.70    1.20
   1  -7  -9    0.00    1.00
  -1   7   9    0.40    0.70
   0  -7  -9   17.10    2.40
   0   7   9   16.40    1.60
  -1  -7  -9    2.80    1.90
   1   7   9    4.40    1.00
  -2  -7  -9    1.50    2.10
   2   7   9    3.70    1.10
   5  -8  -9    0.40    1.40
  -5   8   9    3.80    1.50
   4  -8  -9   13.40    1.90
  -4   8   9   14.10    2.20
   3  -8  -9    0.00    1.10
  -3   8   9    0.40    1.10
  -3   8   9    1.00    0.70
   2  -8  -9    4.80    1.50
  -2   8   9    6.90    1.10
  -2   8   9    6.20    1.60
   1  -8  -9   58.99    3.50
   1  -8  -9   52.69    3.30
  -1   8   9   60.79    2.50
   0  -8  -9   22.20    2.90
   0   8   9   22.60    1.80
  -1  -8  -9   18.70    2.90
   1   8   9   17.20    1.80
  -2  -8  -9    0.00    2.00
   2   8   9    0.00    0.90
   4  -9  -9    0.50    1.50
  -4   9   9    2.90    1.50
   3  -9  -9   13.60    2.10
  -3   9   9   15.00    2.40
  -3   9   9   17.90    1.60
   2  -9  -9    0.00    1.50
  -2   9   9    2.40    1.50
  -2   9   9    2.60    0.90
   1  -9  -9   11.00    2.10
  -1   9   9    7.60    1.20
   0  -9  -9    4.30    2.00
   0   9   9    5.30    1.20
  -1  -9  -9    4.90    2.30
   1   9   9    5.60    1.20
   3 -10  -9    0.00    1.60
  -3  10   9    0.90    0.80
  -3  10   9    0.10    1.40
   2 -10  -9    7.40    1.70
  -2  10   9    3.40    1.00
   1 -10  -9    0.60    1.60
  -1  10   9    0.70    0.90
   2  11 -10    3.60    1.20
   2  11 -10    2.60    1.00
  -2 -11  10    3.20    1.20
   1  11 -10    5.70    1.40
   1  11 -10    5.80    1.10
  -1 -11  10    5.30    1.10
  -1 -11  10    6.00    1.30
   0  11 -10    2.10    1.40
   0 -11  10    4.40    1.20
   0 -11  10    3.70    1.10
  -1  11 -10    2.10    1.50
   1 -11  10    2.50    1.00
   3  10 -10    0.30    0.90
  -3 -10  10    2.00    1.10
   2  10 -10    1.70    0.90
   2  10 -10    1.40    1.00
  -2 -10  10    2.00    1.10
   1  10 -10    3.20    1.20
  -1 -10  10    4.10    1.10
  -1 -10  10    2.00    1.00
   0  10 -10    0.00    1.20
   0 -10  10    0.90    0.90
   0 -10  10    2.10    1.00
  -1  10 -10    4.80    1.50
   1 -10  10    7.10    1.20
  -2  10 -10    0.00    1.40
   2 -10  10    1.50    1.00
   4   9 -10    9.40    1.50
  -4  -9  10    8.80    1.50
   3   9 -10   10.50    1.40
  -3  -9  10   13.40    2.00
   2   9 -10   11.10    1.40
   2   9 -10   11.50    1.40
  -2  -9  10   13.90    1.80
  -2  -9  10   11.50    1.40
   1   9 -10    9.00    1.50
  -1  -9  10   14.50    1.70
  -1  -9  10   10.00    1.30
   0   9 -10    2.20    1.30
   0  -9  10    3.20    1.00
   0  -9  10    2.20    0.90
  -1   9 -10    0.70    1.30
   1  -9  10    0.50    0.80
  -2   9 -10    0.60    1.30
   2  -9  10    1.80    1.00
   4   8 -10   12.60    1.50
  -4  -8  10   16.00    2.00
   3   8 -10    0.40    0.80
  -3  -8  10    1.50    0.90
   2   8 -10    1.00    1.00
   2   8 -10    0.70    0.70
  -2  -8  10    0.80    0.90
  -2  -8  10    0.00    0.70
   1   8 -10   74.89    2.90
  -1  -8  10   70.69    2.90
  -1  -8  10   74.59    2.70
   0   8 -10    0.30    1.10
   0  -8  10    1.50    0.80
   0  -8  10    1.80    0.80
  -1   8 -10    0.00    1.10
   1  -8  10    0.10    0.80
  -2   8 -10    0.00    1.20
   2  -8  10    0.40    0.80
  -3   8 -10    0.00    1.30
   3  -8  10    1.20    0.90
   5   7 -10    0.00    0.90
  -5  -7  10    2.00    1.00
   4   7 -10    4.40    1.00
  -4  -7  10    4.80    1.20
   3   7 -10    2.20    0.90
  -3  -7  10    2.00    0.90
   2   7 -10   41.70    2.00
   2   7 -10   38.60    2.00
  -2  -7  10   38.70    2.00
  -2  -7  10   40.70    2.30
   1   7 -10   70.89    2.80
  -1  -7  10   70.19    2.80
  -1  -7  10   68.39    2.50
   0   7 -10   11.80    1.50
   0  -7  10   13.20    1.40
   0  -7  10   14.50    1.40
  -1   7 -10   80.79    3.10
   1  -7  10   80.49    2.80
  -2   7 -10    1.50    1.20
   2  -7  10    2.10    0.90
  -3   7 -10    0.00    1.30
   3  -7  10    0.30    0.90
   5   6 -10    7.40    1.30
  -5  -6  10    9.30    1.50
   4   6 -10   19.10    1.70
  -4  -6  10   18.90    1.90
   3   6 -10   29.70    1.80
  -3  -6  10   30.60    2.00
   2   6 -10   45.20    2.10
   2   6 -10   47.80    2.00
  -2  -6  10   48.10    2.40
  -2  -6  10   47.90    2.10
   1   6 -10  125.79    3.40
  -1  -6  10  120.39    3.50
  -1  -6  10  126.59    3.30
   0   6 -10    1.70    1.00
   0  -6  10    4.10    0.80
   0  -6  10    3.10    0.80
  -1   6 -10   19.50    1.90
   1  -6  10   21.90    1.60
  -2   6 -10    0.00    1.10
   2  -6  10    0.00    0.70
  -3   6 -10    0.00    1.20
   3  -6  10    2.30    1.00
   6   5 -10    9.50    1.60
  -6  -5  10    7.90    1.40
   5   5 -10    9.80    1.40
  -5  -5  10    7.60    1.30
   4   5 -10   10.30    1.30
  -4  -5  10    9.60    1.40
   3   5 -10   17.20    1.50
  -3  -5  10   16.20    1.60
   2   5 -10   36.00    1.80
   2   5 -10   35.90    1.70
  -2  -5  10   37.40    1.80
  -2  -5  10   37.40    2.00
   1   5 -10   11.70    1.40
  -1  -5  10   12.20    1.20
  -1  -5  10   13.10    1.20
   0   5 -10   41.40    2.10
   0  -5  10   41.50    1.80
   0  -5  10   39.00    1.80
  -1   5 -10    1.10    1.00
   1  -5  10    2.00    0.80
  -2   5 -10   21.60    2.00
   2  -5  10   22.70    1.70
  -3   5 -10    0.00    1.20
   3  -5  10    0.40    0.80
  -4   5 -10    8.70    1.60
   4  -5  10   11.90    1.60
   6   4 -10    0.00    1.00
  -6  -4  10    1.20    1.00
   5   4 -10    0.70    0.90
  -5  -4  10    2.00    1.00
   4   4 -10    0.00    0.70
  -4  -4  10    1.30    0.70
   3   4 -10   26.10    1.60
  -3  -4  10   26.90    1.80
   2   4 -10    3.80    0.80
   2   4 -10    4.10    0.90
  -2  -4  10    4.50    0.80
  -2  -4  10    4.10    0.90
   1   4 -10    0.70    0.80
  -1  -4  10    1.80    0.70
  -1  -4  10    1.50    0.60
   0   4 -10   13.90    1.50
   0  -4  10   14.30    1.20
   0  -4  10   14.20    1.20
  -1   4 -10   97.79    3.00
   1  -4  10   94.59    2.80
  -2   4 -10   35.80    2.20
   2  -4  10   35.40    1.90
  -3   4 -10    2.50    1.20
   3  -4  10    4.50    1.00
  -4   4 -10    6.30    1.50
   4  -4  10    9.10    1.40
   6   3 -10    0.00    1.00
  -6  -3  10    0.20    0.80
   5   3 -10    0.20    0.80
  -5  -3  10    1.90    0.90
   4   3 -10   25.40    1.70
  -4  -3  10   24.50    1.90
   3   3 -10   20.80    1.40
  -3  -3  10   20.30    1.60
   2   3 -10   16.10    1.30
   2   3 -10   18.00    1.30
  -2  -3  10   16.20    1.30
  -2  -3  10   18.00    1.30
   1   3 -10  120.79    3.40
   1   3 -10  120.99    3.10
  -1  -3  10  118.79    3.20
  -1  -3  10  118.29    2.90
   0   3 -10    0.00    0.70
   0   3 -10    0.00    1.10
   0  -3  10    0.00    0.50
  -1   3 -10   10.20    1.80
  -1   3 -10    7.20    1.10
   1  -3  10    7.30    1.10
   1  -3  10   10.10    1.20
  -2   3 -10    0.00    1.60
  -2   3 -10    0.00    0.90
   2  -3  10    0.00    0.90
   2  -3  10    0.20    0.70
  -3   3 -10    0.00    1.90
  -3   3 -10    0.80    1.10
   3  -3  10    1.30    0.80
  -4   3 -10    0.00    1.10
   4  -3  10    1.90    0.90
   6   2 -10   71.49    3.00
  -6  -2  10   74.49    3.30
   5   2 -10   47.10    2.30
  -5  -2  10   45.20    2.30
  -5  -2  10   46.40    2.40
   4   2 -10   66.89    2.40
  -4  -2  10   67.69    2.70
  -4  -2  10   64.99    2.50
   3   2 -10   23.30    1.50
  -3  -2  10   24.60    1.60
  -3  -2  10   21.60    1.50
   2   2 -10    8.60    1.00
   2   2 -10    7.90    0.90
  -2  -2  10    8.20    1.10
  -2  -2  10    7.40    1.10
  -2  -2  10    7.80    1.00
   1   2 -10  200.68    4.00
   1   2 -10  201.68    4.80
  -1  -2  10  186.48    4.20
  -1  -2  10  197.18    4.00
  -1  -2  10  190.98    3.90
   0   2 -10   50.29    2.50
   0   2 -10   50.19    2.00
   0  -2  10   48.80    2.00
   0  -2  10   49.00    1.80
  -1   2 -10   43.20    2.90
  -1   2 -10   41.50    2.00
   1  -2  10   39.30    2.00
   1  -2  10   41.90    1.80
  -2   2 -10    0.10    1.80
  -2   2 -10    2.70    0.90
   2  -2  10    2.20    0.90
   2  -2  10    3.10    0.80
  -3   2 -10   15.20    2.70
  -3   2 -10   19.40    1.80
   3  -2  10   18.50    1.60
   3  -2  10   17.40    1.90
  -4   2 -10   11.40    1.60
  -4   2 -10    7.60    2.90
   4  -2  10   10.80    1.60
   4  -2  10   14.30    1.80
   6   1 -10    1.40    0.90
   6   1 -10    0.30    1.00
  -6  -1  10    1.20    1.00
  -6  -1  10    0.00    0.90
   5   1 -10   71.99    2.60
  -5  -1  10   69.59    2.90
  -5  -1  10   65.59    2.90
   4   1 -10    0.00    0.70
  -4  -1  10    0.00    0.60
  -4  -1  10    0.50    0.70
   3   1 -10   30.60    1.50
   3   1 -10   30.40    1.50
  -3  -1  10   30.10    1.70
  -3  -1  10   29.30    1.70
   2   1 -10  164.78    3.50
   2   1 -10  164.08    3.40
  -2  -1  10  165.28    3.40
  -2  -1  10  167.88    3.50
  -2  -1  10  164.88    4.00
  -2  -1  10  165.58    4.30
   1   1 -10    0.40    0.40
   1   1 -10    0.90    0.90
   1   1 -10    0.60    0.60
  -1  -1  10    0.00    0.60
  -1  -1  10    0.20    0.50
  -1  -1  10    0.00    0.40
   0   1 -10   25.10    1.40
   0   1 -10   26.90    2.10
   0  -1  10   24.40    1.50
   0  -1  10   25.80    1.30
  -1   1 -10  160.18    3.80
  -1   1 -10  162.38    5.00
   1  -1  10  154.38    3.50
   1  -1  10  156.88    3.80
  -2   1 -10    1.30    0.80
  -2   1 -10    0.00    1.80
   2  -1  10    1.80    0.70
   2  -1  10    0.10    0.90
  -3   1 -10    0.00    2.00
  -3   1 -10    1.30    1.00
   3  -1  10    0.20    1.00
   3  -1  10    1.50    0.80
  -4   1 -10    1.00    1.10
   4  -1  10    0.00    1.10
   4  -1  10    1.90    0.90
   6   0 -10    5.30    1.20
   6   0 -10    5.70    1.20
  -6   0  10    4.40    1.20
  -6   0  10    6.30    1.40
   5   0 -10    3.30    0.90
   5   0 -10    3.60    1.00
  -5   0  10    3.80    1.00
  -5   0  10    3.80    1.10
   4   0 -10   57.19    2.10
   4   0 -10   57.29    2.50
  -4   0  10   60.49    2.50
  -4   0  10   57.89    2.60
   3   0 -10    6.30    0.80
   3   0 -10    6.10    0.70
   3   0 -10    5.20    0.90
  -3   0  10    6.40    1.10
  -3   0  10    4.70    0.90
   2   0 -10    5.40    0.70
   2   0 -10    5.00    0.70
   2   0 -10    5.30    0.80
  -2   0  10    4.90    0.80
  -2   0  10    4.30    1.00
  -2   0  10    6.30    0.80
   1   0 -10   94.09    2.60
   1   0 -10   94.19    3.20
   1   0 -10   96.09    2.50
  -1   0  10   93.79    2.30
  -1   0  10   96.49    2.60
  -1   0  10   94.69    2.60
   0   0 -10   68.19    3.00
   0   0  10   70.79    2.40
   0   0  10   69.29    2.00
  -1   0 -10  360.86    8.40
  -1   0 -10  352.66    6.50
   1   0  10  348.07    6.50
   1   0  10  343.97    6.00
  -2   0 -10   28.10    1.80
  -2   0 -10   24.40    3.20
   2   0  10   26.60    1.50
   2   0  10   26.40    1.90
  -3   0 -10    2.40    0.90
  -3   0 -10    0.00    2.10
   3   0  10    1.90    0.80
   3   0  10    0.40    1.00
  -4   0 -10    5.30    1.30
  -4   0 -10    0.00    2.60
   4   0  10    1.80    1.30
   4   0  10    5.50    1.10
   6  -1 -10    8.90    1.40
   6  -1 -10    9.40    1.50
  -6   1  10    9.90    1.70
  -6   1  10    7.00    1.40
   5  -1 -10    1.40    0.90
   5  -1 -10    0.00    0.80
  -5   1  10    1.30    0.90
  -5   1  10    0.70    0.80
   4  -1 -10   14.00    1.40
   4  -1 -10   13.40    1.30
  -4   1  10   14.30    1.60
  -4   1  10   13.40    1.40
   3  -1 -10    3.60    0.80
   3  -1 -10    4.70    0.80
   3  -1 -10    6.40    0.80
  -3   1  10    3.60    1.00
  -3   1  10    3.90    0.80
  -3   1  10    4.20    0.90
   2  -1 -10    6.50    1.00
   2  -1 -10    6.50    0.80
  -2   1  10    6.60    0.80
  -2   1  10    6.50    0.90
  -2   1  10    7.50    1.20
   1  -1 -10    5.50    1.20
   1  -1 -10    5.40    0.80
  -1   1  10    5.20    0.70
  -1   1  10    3.80    0.80
   0  -1 -10   11.00    1.70
   0   1  10    8.50    1.10
   0   1  10    9.60    0.90
  -1  -1 -10   27.40    2.60
   1   1  10   27.80    1.70
   1   1  10   27.80    1.40
  -2  -1 -10    0.40    1.80
   2   1  10    0.00    0.80
   2   1  10    1.20    0.60
  -3  -1 -10    2.60    0.90
  -3  -1 -10    0.00    2.10
   3   1  10    0.00    0.90
   3   1  10    0.70    0.70
  -4  -1 -10    6.30    1.20
  -4  -1 -10    0.00    2.70
   4   1  10    4.00    1.30
   6  -2 -10   18.10    2.00
   6  -2 -10   14.70    1.80
  -6   2  10   20.50    2.30
  -6   2  10   18.60    2.10
   5  -2 -10   11.80    1.50
   5  -2 -10   11.90    1.70
  -5   2  10   12.30    1.70
  -5   2  10   13.40    1.80
   4  -2 -10   70.49    2.30
   4  -2 -10   69.99    2.90
  -4   2  10   69.49    3.00
  -4   2  10   69.69    2.80
   3  -2 -10  101.19    3.20
   3  -2 -10   99.79    2.50
  -3   2  10  100.89    3.20
  -3   2  10   96.89    2.40
  -3   2  10   96.09    3.40
   2  -2 -10   41.90    1.90
   2  -2 -10   40.60    1.50
  -2   2  10   41.80    1.70
  -2   2  10   41.50    2.30
   1  -2 -10   54.49    1.60
   1  -2 -10   58.79    2.80
   1  -2 -10   56.69    2.10
  -1   2  10   54.99    1.60
  -1   2  10   55.69    2.00
   0  -2 -10   57.09    3.00
   0   2  10   58.09    2.20
  -1  -2 -10    5.10    1.70
   1   2  10    6.00    1.10
  -2  -2 -10    8.10    2.30
   2   2  10    6.90    1.10
  -3  -2 -10    5.10    2.60
   3   2  10   11.80    1.50
   6  -3 -10    0.00    1.00
  -6   3  10    1.10    1.20
   5  -3 -10   72.29    3.20
  -5   3  10   72.89    3.40
   4  -3 -10   16.20    1.70
  -4   3  10   14.00    1.80
   3  -3 -10   30.50    1.90
  -3   3  10   29.00    2.10
  -3   3  10   30.30    1.40
   2  -3 -10   23.90    1.60
  -2   3  10   25.40    1.50
  -2   3  10   23.10    1.90
   1  -3 -10  255.07    6.50
   1  -3 -10  247.38    5.40
  -1   3  10  251.37    5.00
   0  -3 -10  227.38    6.30
   0   3  10  224.08    4.80
  -1  -3 -10    0.00    1.60
   1   3  10    0.00    0.70
  -2  -3 -10   11.90    2.50
   2   3  10   13.10    1.60
  -3  -3 -10    0.00    2.20
   3   3  10    0.00    0.90
   6  -4 -10    6.30    1.60
  -6   4  10    6.90    1.70
   5  -4 -10    7.30    1.40
  -5   4  10   12.20    2.00
   4  -4 -10    4.60    1.10
  -4   4  10    7.60    1.50
   3  -4 -10   18.90    1.70
  -3   4  10   16.70    1.30
  -3   4  10   18.40    1.90
   2  -4 -10   94.19    3.10
  -2   4  10   97.69    2.70
  -2   4  10   95.19    3.60
   1  -4 -10  141.59    4.60
   1  -4 -10  144.09    3.90
  -1   4  10  147.99    3.60
   0  -4 -10    2.10    1.50
   0   4  10    2.50    0.80
  -1  -4 -10   58.29    3.70
   1   4  10   63.29    2.40
  -2  -4 -10    1.60    2.00
   2   4  10    3.80    1.10
  -3  -4 -10    3.30    2.70
   3   4  10    6.30    1.30
   6  -5 -10    9.30    1.80
  -6   5  10   12.30    2.10
   5  -5 -10   12.10    1.70
  -5   5  10   13.70    2.10
   4  -5 -10    0.90    0.90
  -4   5  10    2.30    1.20
   3  -5 -10    1.50    0.90
  -3   5  10    2.20    1.20
  -3   5  10    1.10    0.60
   2  -5 -10   35.60    2.10
  -2   5  10   34.00    2.50
  -2   5  10   36.40    1.80
   1  -5 -10   13.00    2.10
   1  -5 -10   11.20    1.40
  -1   5  10   13.40    1.40
   0  -5 -10    0.00    1.40
   0   5  10    0.90    0.70
  -1  -5 -10    0.70    1.70
   1   5  10    2.10    0.90
  -2  -5 -10    0.00    1.90
   2   5  10    0.00    0.70
   5  -6 -10   10.00    1.60
  -5   6  10   12.60    2.00
   4  -6 -10   59.49    3.10
  -4   6  10   62.09    3.30
   3  -6 -10   32.10    2.30
  -3   6  10   32.80    1.70
  -3   6  10   31.50    2.50
   2  -6 -10   15.50    1.90
  -2   6  10   16.60    2.10
  -2   6  10   17.80    1.50
   1  -6 -10   50.49    3.10
   1  -6 -10   43.60    2.50
  -1   6  10   46.60    2.10
   0  -6 -10   13.40    2.20
   0   6  10   11.80    1.40
  -1  -6 -10   10.70    2.30
   1   6  10   11.40    1.40
  -2  -6 -10    0.00    2.00
   2   6  10    0.00    0.90
   5  -7 -10    0.00    1.30
  -5   7  10    2.50    1.40
   4  -7 -10   16.90    2.30
  -4   7  10   15.90    2.30
   3  -7 -10    7.50    1.50
  -3   7  10    9.00    1.10
  -3   7  10    9.10    1.80
   2  -7 -10    4.10    1.40
  -2   7  10    7.60    1.10
  -2   7  10    7.70    1.60
   1  -7 -10    1.70    1.40
   1  -7 -10    0.00    1.10
  -1   7  10    0.70    0.80
   0  -7 -10   43.50    3.50
   0   7  10   44.10    2.30
  -1  -7 -10    0.00    1.70
   1   7  10    0.00    0.90
   4  -8 -10    3.00    1.50
  -4   8  10    6.00    1.70
   3  -8 -10   28.50    2.70
  -3   8  10   32.10    2.00
  -3   8  10   27.90    2.70
   2  -8 -10    3.80    1.40
  -2   8  10    0.70    0.80
  -2   8  10    0.00    1.30
   1  -8 -10   29.50    3.00
   1  -8 -10   19.70    2.40
  -1   8  10   29.80    2.00
   0  -8 -10    3.80    2.00
   0   8  10    5.90    1.20
  -1  -8 -10   22.90    3.50
   1   8  10   26.50    2.10
  -3   9  10    0.00    1.40
   2  -9 -10    3.60    1.50
  -2   9  10    0.20    0.80
   1  -9 -10    1.80    1.60
  -1   9  10    1.50    0.90
   2  10 -11    7.80    1.40
   2  10 -11    7.00    1.30
  -2 -10  11    8.90    1.50
   1  10 -11    6.50    1.50
  -1 -10  11    7.00    1.30
  -1 -10  11    7.80    1.30
   0  10 -11    0.00    1.40
   0 -10  11    1.40    1.00
  -1  10 -11    0.00    1.40
   1 -10  11    0.00    0.80
   3   9 -11    3.90    1.10
  -3  -9  11    4.60    1.20
   2   9 -11   14.90    1.90
   2   9 -11   13.50    1.60
  -2  -9  11   14.60    1.70
  -2  -9  11   15.50    1.90
   1   9 -11    6.60    1.50
  -1  -9  11    8.60    1.30
  -1  -9  11   12.10    1.70
   0   9 -11    9.40    1.70
   0  -9  11   10.60    1.40
  -1   9 -11    3.40    1.60
   1  -9  11    3.60    1.10
   4   8 -11   10.30    1.50
  -4  -8  11   13.20    1.90
   3   8 -11    1.20    0.90
  -3  -8  11    2.90    1.00
   2   8 -11    9.50    1.30
   2   8 -11    9.30    1.40
  -2  -8  11   10.00    1.30
  -2  -8  11   11.90    1.60
   1   8 -11    3.50    1.30
  -1  -8  11    4.80    1.00
  -1  -8  11    4.10    1.10
   0   8 -11   54.59    2.80
   0  -8  11   55.09    2.40
  -1   8 -11    6.50    1.40
   1  -8  11    7.50    1.20
  -2   8 -11    9.30    1.80
   2  -8  11    9.20    1.30
   4   7 -11    5.90    1.20
  -4  -7  11    6.10    1.30
   3   7 -11    1.50    0.80
  -3  -7  11    1.70    0.90
   2   7 -11    1.90    1.00
   2   7 -11    1.50    0.80
  -2  -7  11    3.00    0.90
  -2  -7  11    1.50    0.80
   1   7 -11   47.40    2.40
  -1  -7  11   44.10    2.20
  -1  -7  11   47.10    2.20
   0   7 -11    1.20    1.10
   0  -7  11    0.40    0.70
  -1   7 -11    0.00    1.10
   1  -7  11    0.80    0.80
  -2   7 -11    0.00    1.20
   2  -7  11    1.00    0.80
   5   6 -11    9.10    1.40
  -5  -6  11    9.50    1.50
   4   6 -11   15.20    1.70
  -4  -6  11   16.50    1.90
   3   6 -11   24.10    1.80
  -3  -6  11   24.60    1.90
   2   6 -11    8.60    1.20
   2   6 -11    7.70    1.20
  -2  -6  11    7.50    1.20
  -2  -6  11    9.10    1.40
   1   6 -11  148.29    3.90
  -1  -6  11  145.29    4.00
  -1  -6  11  148.39    3.80
   0   6 -11   33.10    2.10
   0  -6  11   31.30    1.80
  -1   6 -11    4.50    1.30
   1  -6  11    3.80    1.00
  -2   6 -11    0.00    1.10
   2  -6  11    0.90    0.80
  -3   6 -11    9.20    1.70
   3  -6  11   15.00    1.80
   5   5 -11    0.00    0.90
  -5  -5  11    0.60    0.90
   4   5 -11   20.50    1.70
  -4  -5  11   19.20    1.80
   3   5 -11   22.10    1.70
  -3  -5  11   21.80    1.80
   2   5 -11    9.60    1.20
   2   5 -11    9.90    1.20
  -2  -5  11   10.30    1.30
  -2  -5  11   12.50    1.40
   1   5 -11    0.00    0.80
  -1  -5  11    0.80    0.60
  -1  -5  11    0.50    0.70
   0   5 -11    7.20    1.30
   0  -5  11    6.70    1.10
  -1   5 -11   12.30    1.50
   1  -5  11   10.90    1.40
  -2   5 -11   12.90    1.60
   2  -5  11   14.80    1.60
  -3   5 -11    1.10    1.40
   3  -5  11    3.20    1.00
   5   4 -11    0.00    0.90
  -5  -4  11    0.10    0.80
   4   4 -11    3.30    1.00
  -4  -4  11    4.40    1.00
   3   4 -11    1.30    0.70
  -3  -4  11    0.90    0.70
   2   4 -11    4.90    0.90
   2   4 -11    4.50    1.00
  -2  -4  11    5.20    0.90
  -2  -4  11    6.00    0.90
   1   4 -11    6.30    1.10
  -1  -4  11    4.70    0.90
  -1  -4  11    5.50    0.80
   0   4 -11  100.09    3.10
   0  -4  11   97.29    2.80
  -1   4 -11    0.70    0.90
   1  -4  11    2.80    0.80
  -2   4 -11   10.80    1.50
   2  -4  11   13.60    1.50
  -3   4 -11    4.30    1.40
   3  -4  11    6.60    1.30
   6   3 -11    1.50    1.10
  -6  -3  11    1.30    0.90
   5   3 -11   44.00    2.30
  -5  -3  11   43.90    2.50
   4   3 -11    8.00    1.20
  -4  -3  11    7.70    1.20
   3   3 -11    0.00    0.60
  -3  -3  11    0.00    0.60
   2   3 -11  110.69    2.90
   2   3 -11  104.59    2.90
  -2  -3  11  108.29    3.30
  -2  -3  11  108.59    2.90
   1   3 -11    3.60    0.90
  -1  -3  11    4.00    0.70
  -1  -3  11    4.80    0.80
   0   3 -11   12.00    1.50
   0  -3  11   13.60    1.30
  -1   3 -11   28.80    2.00
   1  -3  11   31.30    1.70
   1  -3  11   28.30    2.00
  -2   3 -11    0.30    1.00
   2  -3  11    0.00    1.00
   2  -3  11    1.10    0.70
  -3   3 -11   14.00    1.70
   3  -3  11   18.20    1.80
   6   2 -11    0.10    1.00
  -6  -2  11    1.90    0.90
   5   2 -11   40.10    2.20
  -5  -2  11   40.70    2.40
   4   2 -11   42.90    2.00
  -4  -2  11   43.20    2.20
   3   2 -11   61.89    2.20
  -3  -2  11   57.89    2.70
  -3  -2  11   62.69    2.50
   2   2 -11   90.49    2.90
   2   2 -11   89.09    2.50
   2   2 -11   88.19    2.60
  -2  -2  11   87.49    2.80
  -2  -2  11   89.89    2.60
   1   2 -11   56.59    2.50
   1   2 -11   60.79    2.20
  -1  -2  11   61.69    2.20
  -1  -2  11   58.59    2.10
  -1  -2  11   60.89    2.00
   0   2 -11    1.50    0.80
   0   2 -11    0.00    1.20
   0  -2  11    0.30    0.80
   0  -2  11    0.60    0.60
  -1   2 -11    0.00    1.60
  -1   2 -11    0.20    0.90
   1  -2  11    1.90    0.70
   1  -2  11    1.80    1.00
  -2   2 -11    1.10    0.90
  -2   2 -11    0.00    1.80
   2  -2  11    0.00    0.90
   2  -2  11    1.60    0.80
  -3   2 -11   12.10    1.60
  -3   2 -11    6.30    2.70
   3  -2  11   11.30    1.60
   3  -2  11   15.00    1.50
   6   1 -11    2.10    1.00
   6   1 -11    0.10    1.00
  -6  -1  11    0.80    0.90
   5   1 -11    0.00    0.80
   5   1 -11    0.60    0.80
  -5  -1  11    0.30    0.80
  -5  -1  11    0.30    0.80
   4   1 -11    2.60    0.80
  -4  -1  11    2.70    0.90
  -4  -1  11    3.00    0.90
   3   1 -11    0.40    0.60
  -3  -1  11    0.80    0.60
  -3  -1  11    0.40    0.70
   2   1 -11    1.60    0.70
   2   1 -11    2.00    0.60
   2   1 -11    2.80    0.70
  -2  -1  11    0.70    0.70
  -2  -1  11    1.40    0.90
  -2  -1  11    1.50    0.60
  -2  -1  11    2.40    0.70
   1   1 -11   27.80    1.50
   1   1 -11   25.60    2.00
   1   1 -11   25.30    1.40
  -1  -1  11   28.00    1.40
  -1  -1  11   26.90    1.60
  -1  -1  11   26.80    1.40
   0   1 -11   24.20    1.60
   0   1 -11   20.90    2.10
   0  -1  11   23.00    1.30
   0  -1  11   21.70    1.50
  -1   1 -11  102.39    3.00
  -1   1 -11  101.39    4.20
   1  -1  11   99.99    2.80
   1  -1  11  103.39    3.10
  -2   1 -11    0.00    0.80
   2  -1  11    1.30    0.70
   2  -1  11    0.00    1.00
  -3   1 -11    0.40    1.00
   3  -1  11    1.70    0.80
   3  -1  11    0.00    1.10
   6   0 -11    6.50    1.40
   6   0 -11    5.70    1.30
  -6   0  11    5.80    1.30
  -6   0  11    6.30    1.40
   5   0 -11   21.50    1.90
   5   0 -11   17.20    1.60
  -5   0  11   20.20    1.90
  -5   0  11   18.70    1.80
   4   0 -11    1.30    0.70
   4   0 -11    0.90    0.70
  -4   0  11    0.90    0.80
  -4   0  11    1.00    0.70
   3   0 -11    5.70    0.90
   3   0 -11    5.20    0.90
  -3   0  11    5.50    1.10
  -3   0  11    5.10    0.90
   2   0 -11   94.89    2.90
   2   0 -11   94.09    2.50
   2   0 -11   90.69    2.50
  -2   0  11   96.59    2.90
  -2   0  11   93.09    2.60
  -2   0  11   94.29    3.20
   1   0 -11    7.60    1.00
   1   0 -11   10.00    1.10
   1   0 -11    8.70    1.40
  -1   0  11    7.40    1.00
  -1   0  11    8.20    1.00
  -1   0  11    7.90    1.00
   0   0 -11    0.00    1.10
   0   0 -11    0.40    0.60
   0   0  11    0.00    0.70
   0   0  11    0.00    0.50
  -1   0 -11   49.40    3.30
  -1   0 -11   52.49    2.30
   1   0  11   49.20    2.30
   1   0  11   47.90    1.80
  -2   0 -11    3.00    2.10
  -2   0 -11    5.30    1.10
   2   0  11    4.30    1.20
   2   0  11    4.80    0.90
  -3   0 -11   19.40    3.40
  -3   0 -11   29.30    2.20
   3   0  11   25.70    2.20
   3   0  11   28.80    1.80
   6  -1 -11   10.30    1.50
   6  -1 -11    9.60    1.60
  -6   1  11   10.10    1.60
  -6   1  11   12.50    1.90
   5  -1 -11   26.40    1.80
   5  -1 -11   28.50    2.20
  -5   1  11   23.60    2.10
  -5   1  11   23.90    2.10
   4  -1 -11   36.70    2.20
   4  -1 -11   36.50    1.80
  -4   1  11   37.40    2.20
  -4   1  11   35.30    2.20
   3  -1 -11    0.20    0.60
   3  -1 -11    0.30    0.60
  -3   1  11    0.80    0.70
  -3   1  11    0.00    0.80
   2  -1 -11   91.69    2.40
   2  -1 -11   92.49    2.90
  -2   1  11   95.99    3.00
  -2   1  11   96.69    3.40
  -2   1  11   93.69    2.60
   1  -1 -11    9.20    1.60
   1  -1 -11    8.00    1.00
  -1   1  11    8.20    1.10
  -1   1  11    7.90    0.90
   0  -1 -11  232.68    6.30
   0   1  11  237.28    5.00
   0   1  11  223.98    4.30
  -1  -1 -11    0.60    1.60
   1   1  11    1.20    0.90
  -2  -1 -11   12.10    2.60
   2   1  11   14.50    1.70
  -3  -1 -11    0.00    2.50
  -3  -1 -11    7.90    1.30
   3   1  11    5.20    1.30
   6  -2 -11   32.50    2.60
  -6   2  11   33.30    2.70
  -6   2  11   29.60    2.40
   5  -2 -11    3.10    1.00
  -5   2  11    2.10    1.00
  -5   2  11    4.90    1.40
   4  -2 -11  101.59    3.60
  -4   2  11   96.99    3.70
  -4   2  11  102.09    3.50
   3  -2 -11   73.49    2.80
  -3   2  11   76.59    2.80
  -3   2  11   77.89    3.20
   2  -2 -11    2.10    0.70
  -2   2  11    2.50    0.80
  -2   2  11    2.70    1.10
   1  -2 -11    0.40    0.60
   1  -2 -11    1.20    1.10
  -1   2  11    0.00    0.70
   0  -2 -11   34.50    2.70
   0   2  11   34.70    1.90
  -1  -2 -11   12.10    2.20
   1   2  11   13.60    1.60
  -2  -2 -11    6.70    2.40
   2   2  11    9.30    1.40
  -3  -2 -11    0.00    2.60
   3   2  11    1.40    1.10
   6  -3 -11    3.70    1.30
  -6   3  11    5.70    1.60
   5  -3 -11    2.00    1.00
  -5   3  11    2.20    1.30
   4  -3 -11    4.70    1.10
  -4   3  11    5.60    1.40
   3  -3 -11   14.10    1.60
  -3   3  11   11.70    1.70
   2  -3 -11   30.40    1.80
  -2   3  11   28.60    2.20
  -2   3  11   29.80    1.60
   1  -3 -11    8.00    1.60
   1  -3 -11    5.70    1.00
  -1   3  11    5.70    1.00
   0  -3 -11   39.90    3.00
   0   3  11   42.50    2.10
  -1  -3 -11   14.10    2.40
   1   3  11   16.20    1.70
  -2  -3 -11    2.80    2.30
   2   3  11    5.00    1.20
   3   3  11   25.40    2.20
   5  -4 -11    0.00    0.90
  -5   4  11    0.20    1.10
   4  -4 -11    0.70    0.90
  -4   4  11    0.50    1.10
   3  -4 -11    6.90    1.20
  -3   4  11    9.30    1.60
   2  -4 -11    4.00    1.00
  -2   4  11    5.20    1.40
  -2   4  11    4.50    0.90
   1  -4 -11   28.60    2.60
  -1   4  11   31.70    1.80
   0  -4 -11   14.20    2.20
   0   4  11   15.30    1.60
  -1  -4 -11    0.70    1.80
   1   4  11    1.30    0.90
  -2  -4 -11    0.00    2.20
   2   4  11    0.00    0.90
   5  -5 -11   24.10    2.40
  -5   5  11   24.10    2.50
   4  -5 -11   68.69    3.20
  -4   5  11   71.69    3.60
   3  -5 -11   17.80    1.90
  -3   5  11   19.60    2.20
   2  -5 -11   66.79    3.20
   2  -5 -11   58.99    2.80
  -2   5  11   59.29    2.30
  -2   5  11   56.99    3.20
   1  -5 -11    1.20    1.30
  -1   5  11    0.70    0.80
   0  -5 -11   15.30    2.40
   0   5  11   14.40    1.60
  -1  -5 -11    0.00    1.80
   1   5  11    1.00    0.90
  -2  -5 -11    0.00    2.30
   2   5  11    0.20    1.00
   5  -6 -11    0.00    1.10
  -5   6  11    0.00    1.20
   4  -6 -11   15.00    2.10
  -4   6  11   16.60    2.30
   3  -6 -11   30.40    2.40
  -3   6  11   31.40    2.70
   2  -6 -11   13.20    2.10
   2  -6 -11    6.20    1.40
  -2   6  11    7.50    1.60
  -2   6  11    7.80    1.20
   1  -6 -11   57.99    3.50
  -1   6  11   52.19    2.40
   0  -6 -11    0.00    1.50
   0   6  11    1.10    0.90
  -1  -6 -11    0.00    1.90
   1   6  11    1.20    1.00
   4  -7 -11    0.00    1.20
  -4   7  11    0.00    1.20
   3  -7 -11   10.80    1.80
  -3   7  11   12.00    2.10
   2  -7 -11   54.19    3.10
   2  -7 -11   66.79    3.60
  -2   7  11   63.19    2.60
   1  -7 -11    0.00    1.40
  -1   7  11    0.00    0.80
   0  -7 -11   23.20    3.00
   0   7  11   20.30    1.90
   3  -8 -11    0.00    1.30
  -3   8  11    0.00    1.30
   2  -8 -11   12.00    2.10
  -2   8  11    7.40    1.20
   1  -8 -11    0.40    1.70
  -1   8  11    0.40    0.90
   2   9 -12    1.50    1.00
   2   9 -12    1.20    1.20
  -2  -9  12    1.60    0.90
  -2  -9  12    1.30    1.00
   1   9 -12   12.20    1.80
  -1  -9  12   13.90    1.70
   0   9 -12   16.10    2.00
   0  -9  12   19.60    1.90
   3   8 -12    0.00    0.90
  -3  -8  12    0.80    0.90
   2   8 -12    1.60    1.20
   2   8 -12    2.30    0.90
  -2  -8  12    2.40    0.90
  -2  -8  12    1.30    0.90
   1   8 -12    2.20    1.30
  -1  -8  12    4.20    1.10
   0   8 -12    3.40    1.40
   0  -8  12    3.10    1.00
  -1   8 -12    0.00    1.30
   1  -8  12    1.30    0.90
   4   7 -12    0.40    1.00
  -4  -7  12    1.20    1.00
   3   7 -12    1.00    0.90
  -3  -7  12    1.00    0.90
   2   7 -12    6.60    1.20
   2   7 -12    5.90    1.30
  -2  -7  12    7.60    1.20
  -2  -7  12    8.40    1.30
   1   7 -12    4.50    1.30
  -1  -7  12    5.70    1.10
   0   7 -12   39.30    2.50
   0  -7  12   40.60    2.20
  -1   7 -12    1.40    1.30
   1  -7  12    1.90    0.90
  -2   7 -12    0.00    1.40
   2  -7  12    1.10    0.90
   4   6 -12    4.10    1.10
  -4  -6  12    4.50    1.10
   3   6 -12   21.10    1.80
  -3  -6  12   22.40    2.00
   2   6 -12   13.60    1.80
   2   6 -12   15.90    1.50
  -2  -6  12   15.70    1.60
  -2  -6  12   16.80    1.60
   1   6 -12    0.00    1.00
  -1  -6  12    1.10    0.80
   0   6 -12    0.00    1.00
   0  -6  12    0.70    0.70
  -1   6 -12    0.00    1.10
   1  -6  12    0.50    0.80
  -2   6 -12   13.80    1.90
   2  -6  12   19.80    1.90
   5   5 -12    5.00    1.30
  -5  -5  12    5.90    1.30
   4   5 -12    2.30    1.00
  -4  -5  12    2.30    0.90
   3   5 -12   11.90    1.50
  -3  -5  12   12.10    1.50
   2   5 -12   10.50    1.30
   2   5 -12    9.60    1.30
  -2  -5  12   10.30    1.40
  -2  -5  12    8.10    1.20
   1   5 -12    3.30    1.10
  -1  -5  12    3.10    0.90
   0   5 -12    3.30    1.10
   0  -5  12    4.10    0.90
  -1   5 -12    4.60    1.30
   1  -5  12    6.70    1.10
  -2   5 -12    0.00    1.20
   2  -5  12    0.80    0.80
   5   4 -12   18.30    1.90
  -5  -4  12   21.60    2.10
   4   4 -12   14.00    1.60
  -4  -4  12   14.80    1.80
   3   4 -12    1.80    0.90
  -3  -4  12    2.90    0.90
   2   4 -12    6.70    1.00
   2   4 -12    5.70    1.10
  -2  -4  12    5.80    1.00
  -2  -4  12    5.90    1.00
   1   4 -12    0.60    0.80
  -1  -4  12    2.00    0.70
   0   4 -12    0.60    0.90
   0  -4  12    0.10    0.70
  -1   4 -12    0.40    1.00
   1  -4  12    1.20    0.80
  -2   4 -12    0.00    1.00
   2  -4  12    1.20    0.80
   5   3 -12    7.20    1.20
  -5  -3  12   10.80    1.60
   4   3 -12   61.39    2.50
  -4  -3  12   57.29    2.70
   3   3 -12   31.20    1.80
  -3  -3  12   28.80    1.90
   2   3 -12   44.40    2.00
   2   3 -12   45.00    2.00
  -2  -3  12   46.20    2.00
  -2  -3  12   46.80    2.10
   1   3 -12   71.59    2.60
  -1  -3  12   71.09    2.40
   0   3 -12    5.60    1.20
   0  -3  12    6.20    0.90
  -1   3 -12    3.10    1.10
   1  -3  12    3.30    0.90
  -2   3 -12    5.80    1.40
   2  -3  12    7.20    1.20
  -3   3 -12    0.00    1.20
   3  -3  12    1.60    0.90
   5   2 -12    0.00    0.90
  -5  -2  12    0.50    0.80
   4   2 -12   21.90    1.70
  -4  -2  12   25.70    1.90
   3   2 -12   14.20    1.40
  -3  -2  12   16.60    1.50
   2   2 -12    1.30    0.80
   2   2 -12    2.20    0.70
  -2  -2  12    2.00    0.70
  -2  -2  12    1.80    0.70
   1   2 -12    1.00    0.80
  -1  -2  12    1.60    0.70
  -1  -2  12    0.20    0.80
   0   2 -12   19.70    1.70
   0  -2  12   18.90    1.70
   0  -2  12   18.40    1.30
  -1   2 -12   17.50    2.60
  -1   2 -12   18.30    1.80
   1  -2  12   17.20    1.80
   1  -2  12   20.40    1.50
  -2   2 -12    4.10    1.30
   2  -2  12    4.70    1.00
   2  -2  12    2.50    1.30
  -3   2 -12    0.00    1.10
   3  -2  12    0.90    0.90
   3  -2  12    0.00    1.20
   5   1 -12    5.50    1.20
   5   1 -12    3.60    1.10
  -5  -1  12    6.80    1.30
   4   1 -12    8.20    1.20
   4   1 -12    8.50    1.10
  -4  -1  12    7.90    1.40
  -4  -1  12    8.10    1.30
   3   1 -12   30.00    1.70
   3   1 -12   28.90    1.80
  -3  -1  12   30.20    2.00
  -3  -1  12   31.20    1.90
   2   1 -12    7.80    1.00
   2   1 -12    7.70    1.00
   2   1 -12    7.10    1.00
   2   1 -12   11.00    1.50
  -2  -1  12    6.10    1.00
  -2  -1  12    7.60    0.90
  -2  -1  12    6.70    1.00
   1   1 -12   46.70    2.70
   1   1 -12   52.79    2.20
  -1  -1  12   50.59    1.90
  -1  -1  12   47.30    2.10
   0   1 -12    3.60    1.60
   0   1 -12    4.90    1.00
   0  -1  12    5.90    0.90
   0  -1  12    3.60    1.00
  -1   1 -12    4.50    1.10
  -1   1 -12    3.80    1.90
   1  -1  12    4.30    1.20
   1  -1  12    6.20    0.90
  -2   1 -12   54.69    4.40
  -2   1 -12   65.79    2.80
   2  -1  12   68.39    2.50
   2  -1  12   69.29    3.00
  -3   1 -12    0.00    1.10
   3  -1  12    0.80    0.80
   3  -1  12    0.00    1.10
   5   0 -12    8.80    1.30
   5   0 -12   10.10    1.50
  -5   0  12    9.30    1.50
  -5   0  12   10.20    1.60
   4   0 -12    2.30    0.80
   4   0 -12    2.20    0.90
  -4   0  12    2.20    0.90
  -4   0  12    2.40    1.00
   3   0 -12   10.90    1.40
   3   0 -12   10.00    1.20
  -3   0  12   12.10    1.40
  -3   0  12    9.40    1.40
   2   0 -12    0.30    0.60
   2   0 -12    0.40    0.60
   2   0 -12    1.80    0.90
   2   0 -12    0.00    0.50
  -2   0  12    0.00    0.70
  -2   0  12    0.30    0.60
   1   0 -12    7.90    1.60
   1   0 -12    8.00    1.00
  -1   0  12    8.20    1.00
  -1   0  12    6.50    1.10
   0   0 -12   12.20    1.40
   0   0 -12   11.60    2.00
   0   0  12   11.90    1.50
   0   0  12   12.90    1.10
  -1   0 -12   19.10    1.70
  -1   0 -12   14.20    2.40
   1   0  12   13.50    1.80
   1   0  12   14.20    1.20
  -2   0 -12    3.40    1.10
  -2   0 -12    0.00    2.20
   2   0  12    0.60    1.10
   5  -1 -12   41.30    2.20
   5  -1 -12   44.90    2.70
  -5   1  12   45.90    2.70
  -5   1  12   43.90    2.70
   4  -1 -12   50.19    2.60
   4  -1 -12   46.70    2.00
  -4   1  12   51.99    2.60
  -4   1  12   50.69    2.80
   3  -1 -12   50.09    2.00
   3  -1 -12   50.19    2.40
  -3   1  12   50.29    2.40
  -3   1  12   49.80    2.70
   2  -1 -12   35.80    1.60
   2  -1 -12   31.70    1.80
   2  -1 -12   38.60    2.40
  -2   1  12   31.90    1.70
  -2   1  12   33.80    1.90
   1  -1 -12    8.30    1.60
  -1   1  12    8.70    1.20
   0  -1 -12   13.60    2.10
   0   1  12   12.70    1.60
  -1  -1 -12   49.80    3.60
   1   1  12   51.99    2.50
  -2  -1 -12    2.10    0.90
   2   1  12    0.00    1.00
   5  -2 -12    3.40    1.10
  -5   2  12    2.70    1.10
  -5   2  12    3.60    1.30
   4  -2 -12    0.00    0.70
  -4   2  12    1.30    1.10
  -4   2  12    0.50    0.80
   3  -2 -12    1.00    0.80
  -3   2  12    0.30    1.00
   2  -2 -12   39.10    2.50
   2  -2 -12   33.10    1.90
  -2   2  12   33.30    1.70
   1  -2 -12   32.20    2.60
  -1   2  12   29.70    1.80
   0  -2 -12    0.60    1.50
   0   2  12    1.40    0.90
  -1  -2 -12    0.00    1.70
   1   2  12    0.50    0.90
  -2  -2 -12    0.00    2.20
   2   2  12    0.80    1.10
   5  -3 -12    5.80    1.40
  -5   3  12    5.20    1.50
   4  -3 -12    5.60    1.20
  -4   3  12    6.20    1.50
   3  -3 -12   31.00    2.10
  -3   3  12   31.90    2.50
   2  -3 -12   11.00    1.40
   2  -3 -12   16.60    2.10
  -2   3  12   11.70    1.40
   1  -3 -12   46.20    3.20
  -1   3  12   43.20    2.10
   0  -3 -12    1.90    1.70
   0   3  12    3.30    1.00
  -1  -3 -12    0.90    2.00
   1   3  12    1.50    1.00
  -2  -3 -12   26.60    3.70
   2   3  12   28.20    2.20
   5  -4 -12    6.50    1.50
  -5   4  12    8.70    1.80
   4  -4 -12    7.20    1.30
  -4   4  12    9.60    1.80
   3  -4 -12   72.69    3.10
  -3   4  12   71.89    3.50
   2  -4 -12    4.20    1.40
   2  -4 -12    0.00    0.80
  -2   4  12    0.20    0.80
   1  -4 -12   17.00    2.50
  -1   4  12   15.90    1.60
   0  -4 -12    0.20    1.60
   0   4  12    1.30    1.00
  -1  -4 -12    6.50    2.40
   1   4  12    7.20    1.40
   4  -5 -12   14.00    2.00
  -4   5  12   16.10    2.50
   3  -5 -12   37.10    2.50
  -3   5  12   36.90    2.90
   2  -5 -12   21.10    2.10
   2  -5 -12   33.00    2.70
  -2   5  12   26.20    1.80
   1  -5 -12    5.30    1.80
  -1   5  12    5.30    1.10
   0  -5 -12   15.20    2.50
   0   5  12   16.70    1.80
  -1  -5 -12    2.80    2.20
   1   5  12    6.80    1.40
   4  -6 -12    0.00    1.00
  -4   6  12    0.20    1.30
   3  -6 -12    6.30    1.50
  -3   6  12    8.50    1.90
   2  -6 -12    7.50    1.60
  -2   6  12    9.60    1.30
   1  -6 -12    1.40    1.70
  -1   6  12    2.40    1.00
   0  -6 -12    0.70    1.90
   0   6  12    2.40    1.00
   3  -7 -12    0.00    1.20
  -3   7  12    0.70    1.30
   2  -7 -12    9.20    1.90
  -2   7  12    5.50    1.20
   1  -7 -12   14.50    2.60
  -1   7  12   11.20    1.50
   2   8 -13    0.00    1.20
   2   8 -13    1.40    0.90
  -2  -8  13    1.50    0.80
  -2  -8  13    0.00    0.90
   1   8 -13    6.90    1.60
  -1  -8  13    7.80    1.40
   0   8 -13   24.40    2.70
   0  -8  13   26.40    2.00
   3   7 -13    1.20    1.00
  -3  -7  13    2.10    0.90
   2   7 -13   18.40    1.80
   2   7 -13   16.80    1.80
  -2  -7  13   19.80    1.80
  -2  -7  13   19.60    1.90
   1   7 -13    0.10    1.10
  -1  -7  13    1.80    1.00
   0   7 -13    1.30    1.30
   0  -7  13    2.00    1.00
   4   6 -13    3.00    1.20
  -4  -6  13    4.30    1.20
   3   6 -13   21.30    1.90
  -3  -6  13   22.30    2.00
   2   6 -13    1.10    0.80
   2   6 -13    0.00    1.00
  -2  -6  13    1.20    0.70
  -2  -6  13    0.60    0.80
   1   6 -13    1.10    1.20
  -1  -6  13    3.00    1.00
   0   6 -13    5.70    1.50
   0  -6  13    7.50    1.30
  -1   6 -13    0.60    1.30
   1  -6  13    2.50    1.00
   4   5 -13   10.90    1.50
  -4  -5  13   13.40    1.90
   3   5 -13    0.30    0.80
  -3  -5  13    0.20    0.80
   2   5 -13    0.00    0.90
   2   5 -13    0.60    0.80
  -2  -5  13    1.10    0.80
  -2  -5  13    0.60    0.80
   1   5 -13    1.40    1.10
  -1  -5  13    3.50    0.90
   0   5 -13    0.00    1.10
   0  -5  13    0.30    0.80
  -1   5 -13    3.80    1.40
   1  -5  13    5.60    1.10
   4   4 -13   16.00    1.70
  -4  -4  13   17.90    1.90
   3   4 -13   19.80    1.80
  -3  -4  13   20.00    1.80
   2   4 -13    5.50    1.00
   2   4 -13    6.00    1.20
  -2  -4  13    5.20    1.00
  -2  -4  13    6.30    1.00
   1   4 -13   42.50    2.30
  -1  -4  13   44.80    2.10
   0   4 -13    0.20    1.00
   0  -4  13    1.80    0.80
  -1   4 -13    0.30    1.20
   1  -4  13    2.10    0.90
  -2   4 -13    0.00    1.20
   2  -4  13    0.60    0.80
   5   3 -13    0.00    0.90
  -5  -3  13    1.30    0.90
   4   3 -13   21.30    1.80
  -4  -3  13   23.60    1.90
   3   3 -13   13.80    1.50
  -3  -3  13   13.60    1.50
   2   3 -13    3.80    0.90
   2   3 -13    2.90    1.00
  -2  -3  13    4.70    0.90
  -2  -3  13    3.10    0.80
   1   3 -13    0.90    0.90
  -1  -3  13    2.40    0.80
   0   3 -13    4.70    1.20
   0  -3  13    5.30    1.00
  -1   3 -13   19.80    2.10
   1  -3  13   22.70    1.70
  -2   3 -13    5.30    1.50
   2  -3  13    7.20    1.20
   5   2 -13    1.00    0.80
   5   2 -13    0.00    0.90
  -5  -2  13    0.60    0.90
   4   2 -13    9.50    1.30
   4   2 -13   12.30    1.50
  -4  -2  13   10.70    1.60
   3   2 -13    0.70    0.60
   3   2 -13    0.00    0.70
  -3  -2  13    0.00    0.60
   2   2 -13   11.30    1.20
   2   2 -13   10.50    1.20
   2   2 -13    8.10    1.20
  -2  -2  13   10.60    1.30
  -2  -2  13    9.80    1.20
   1   2 -13    0.40    0.80
  -1  -2  13    0.70    0.60
  -1  -2  13    0.00    0.80
   0   2 -13    7.70    1.30
   0  -2  13    7.60    1.00
   0  -2  13    6.00    1.30
  -1   2 -13    1.30    1.10
   1  -2  13    3.50    0.90
   1  -2  13    0.10    1.10
  -2   2 -13   13.50    1.80
   2  -2  13   13.00    1.90
   2  -2  13   14.40    1.50
   5   1 -13   11.40    1.70
   5   1 -13    8.50    1.40
  -5  -1  13    8.70    1.40
   4   1 -13    4.50    1.00
   4   1 -13    3.20    1.00
  -4  -1  13    3.90    1.10
   3   1 -13    0.80    0.70
   3   1 -13    1.40    0.70
  -3  -1  13    0.80    0.70
   2   1 -13    1.60    0.60
   2   1 -13    1.40    0.70
   2   1 -13    0.40    0.70
  -2  -1  13    0.30    0.80
  -2  -1  13    2.00    0.70
  -2  -1  13    1.50    0.70
   1   1 -13    0.00    1.20
   1   1 -13    0.90    0.80
  -1  -1  13    0.10    0.60
  -1  -1  13    0.00    0.70
   0   1 -13    0.00    1.50
   0   1 -13    0.00    0.80
   0  -1  13    0.00    0.90
   0  -1  13    0.60    0.60
  -1   1 -13    9.60    2.60
  -1   1 -13   13.80    1.80
   1  -1  13   14.30    1.40
   1  -1  13   13.30    1.70
  -2   1 -13    5.50    1.40
   2  -1  13    2.60    1.30
   5   0 -13   35.40    2.50
   5   0 -13   30.90    2.20
  -5   0  13   37.00    2.50
   4   0 -13   23.40    1.90
   4   0 -13   21.30    1.60
  -4   0  13   21.90    1.90
  -4   0  13   20.70    2.00
   3   0 -13   68.49    2.40
   3   0 -13   69.19    2.80
  -3   0  13   73.09    2.90
  -3   0  13   67.59    3.10
   2   0 -13   17.40    1.30
   2   0 -13   17.90    1.50
   2   0 -13   19.00    1.50
   2   0 -13   19.90    2.00
  -2   0  13   14.90    1.50
  -2   0  13   17.00    1.60
   1   0 -13    0.00    1.20
   1   0 -13    0.90    0.80
  -1   0  13    0.00    0.80
   0   0 -13    1.20    0.90
   0   0 -13    0.00    1.60
   0   0  13    0.00    0.90
  -1   0 -13    0.00    1.90
  -1   0 -13    4.70    1.20
   1   0  13    3.70    1.30
  -2   0 -13   20.30    2.10
   2   0  13   17.50    2.00
   5  -1 -13    5.10    1.30
  -5   1  13    4.90    1.40
  -5   1  13    3.90    1.30
   4  -1 -13    7.10    1.20
  -4   1  13    7.20    1.30
  -4   1  13    6.30    1.50
   3  -1 -13   26.70    1.90
  -3   1  13   26.00    2.20
  -3   1  13   29.10    2.00
   2  -1 -13    5.40    0.90
   2  -1 -13    4.60    1.30
   1  -1 -13   16.50    2.30
   1  -1 -13   21.50    1.50
  -1   1  13   15.10    1.60
   0  -1 -13    1.20    1.80
   0  -1 -13    5.70    1.00
   0   1  13    4.00    1.10
  -1  -1 -13    5.50    1.20
  -1  -1 -13    0.30    2.00
   1   1  13    4.00    1.30
   5  -2 -13   18.60    2.10
  -5   2  13   18.10    2.30
   4  -2 -13    0.30    0.80
  -4   2  13    0.00    1.00
   3  -2 -13    0.00    0.70
  -3   2  13    0.00    1.10
   2  -2 -13   44.90    2.90
  -2   2  13   40.30    2.00
   1  -2 -13    6.30    1.80
  -1   2  13    6.50    1.20
   0  -2 -13    3.10    1.90
   0   2  13    6.50    1.30
  -1  -2 -13   14.10    2.80
   1   2  13   13.20    1.70
   4  -3 -13   15.50    1.90
  -4   3  13   15.10    2.10
   3  -3 -13    9.20    1.40
  -3   3  13   11.60    1.90
   2  -3 -13    3.60    1.40
  -2   3  13    1.60    0.90
   1  -3 -13    0.00    1.50
  -1   3  13    0.10    0.90
   0  -3 -13    5.80    2.10
   0   3  13    7.00    1.30
  -1  -3 -13    0.00    2.00
   1   3  13    0.00    1.00
   4  -4 -13    7.50    1.50
  -4   4  13    8.70    1.80
   3  -4 -13   23.70    2.20
  -3   4  13   25.50    2.50
   2  -4 -13   30.50    2.70
  -2   4  13   23.70    1.80
   1  -4 -13    2.90    1.80
  -1   4  13    4.60    1.20
   0  -4 -13    9.70    2.30
   0   4  13   12.20    1.50
   2  -5 -13   22.30    2.60
  -2   5  13   15.60    1.70
   1  -5 -13    5.40    2.10
  -1   5  13    5.00    1.20
   2   6 -14    0.30    0.90
  -2  -6  14    0.50    0.90
   1   6 -14    5.60    1.50
  -1  -6  14    6.80    1.20
   3   5 -14   12.50    1.50
  -3  -5  14   12.00    1.60
   2   5 -14    0.00    1.10
   2   5 -14    2.40    1.00
  -2  -5  14    2.10    0.90
   1   5 -14    4.10    1.30
  -1  -5  14    3.90    1.00
   0   5 -14    1.00    1.20
   0  -5  14    3.50    1.00
   3   4 -14   24.00    1.90
  -3  -4  14   26.10    1.90
   2   4 -14    3.00    1.20
   2   4 -14    5.00    1.10
  -2  -4  14    4.50    1.00
   1   4 -14    0.00    1.00
  -1  -4  14    1.40    0.80
   0   4 -14   15.20    1.80
   0  -4  14   18.50    1.60
   4   3 -14    0.90    0.90
  -4  -3  14    0.80    0.80
   3   3 -14    0.00    0.80
  -3  -3  14    0.00    0.60
   2   3 -14   18.90    1.90
   2   3 -14   23.60    1.70
  -2  -3  14   25.00    1.70
   1   3 -14    0.80    1.00
  -1  -3  14    2.20    0.80
   0   3 -14    0.00    1.10
   0  -3  14    1.70    0.80
  -1   3 -14    3.20    1.40
   1  -3  14    5.00    1.10
   4   2 -14    0.80    0.90
   4   2 -14    1.60    0.80
  -4  -2  14    1.20    0.90
   3   2 -14    0.00    0.70
   3   2 -14    1.20    0.70
  -3  -2  14    0.90    0.80
   2   2 -14    0.30    0.70
   2   2 -14    0.00    0.90
  -2  -2  14    0.90    0.70
   1   2 -14    3.60    1.10
  -1  -2  14    4.70    0.90
   0   2 -14    0.00    0.90
   0  -2  14    0.00    1.00
   0  -2  14    0.80    0.70
  -1   2 -14    0.00    1.10
   1  -2  14    1.10    0.80
   1  -2  14    0.00    1.10
   4   1 -14   38.20    2.10
   4   1 -14   39.70    2.50
  -4  -1  14   41.20    2.60
   3   1 -14   13.00    1.50
   3   1 -14   10.60    1.30
  -3  -1  14   11.30    1.50
   2   1 -14   16.00    1.40
   2   1 -14   14.80    1.60
  -2  -1  14   12.90    1.60
   1   1 -14    0.00    0.90
  -1  -1  14    0.00    0.90
  -1  -1  14    0.30    0.60
   0   1 -14    4.00    1.20
   0  -1  14    3.60    1.30
  -1   1 -14    0.30    1.20
   1  -1  14    0.00    1.10
   4   0 -14   18.70    1.90
  -4   0  14   18.70    2.00
   3   0 -14    8.10    1.30
  -3   0  14    7.70    1.30
   2   0 -14   14.50    1.60
  -2   0  14   13.50    1.60
   1   0 -14    6.40    1.20
   1   0 -14    3.60    1.70
  -1   0  14    4.30    1.20
   0   0 -14   26.00    2.00
   0   0 -14   21.30    2.90
   0   0  14   21.00    2.10
   4  -1 -14    0.00    0.90
  -4   1  14    0.00    0.80
  -4   1  14    0.00    1.00
   3  -1 -14    1.10    0.80
  -3   1  14    1.00    1.30
   2  -1 -14    9.20    1.70
   2  -1 -14   10.50    1.40
  -2   1  14    6.60    1.20
   1  -1 -14   25.20    1.80
   1  -1 -14   17.20    2.80
  -1   1  14   18.80    1.90
   0  -1 -14    0.00    1.80
   0   1  14    0.50    1.10
   3  -2 -14    9.40    1.40
  -3   2  14   10.20    1.90
   2  -2 -14    7.40    1.70
  -2   2  14    4.20    1.10
   1  -2 -14    1.00    1.70
  -1   2  14    1.00    1.00
   0  -2 -14    0.00    1.90
   0   2  14    0.30    1.00
   3  -3 -14   10.70    1.60
  -3   3  14   11.30    2.00
   2  -3 -14   22.80    2.60
  -2   3  14   16.10    1.80
   1  -3 -14    1.30    1.80
  -1   3  14    2.00    1.10
   2   2 -15   17.80    1.60
;
_shelx_hkl_checksum              3197
loop_
_space_group_symop_operation_xyz
'x, y, z'
'-x, -y, -z'
loop_
_atom_site_label
_atom_site_type_symbol
_atom_site_fract_x
_atom_site_fract_y
_atom_site_fract_z
_atom_site_U_iso_or_equiv
_atom_site_adp_type
_atom_site_occupancy
_atom_site_site_symmetry_order
_atom_site_calc_flag
_atom_site_refinement_flags_posn
_atom_site_refinement_flags_adp
Cl1 Cl 0.46255(9) 0.12448(4) 0.10475(4) 0.06123(16) Uani 1 1 d . U
O4 O 0.5520(2) 0.41257(12) 0.18535(10) 0.0579(3) Uani 1 1 d . U
O3 O 0.6714(2) 0.43962(12) 0.38859(10) 0.0567(3) Uani 1 1 d . U
N3 N -0.0931(2) 0.59388(12) 0.16554(11) 0.0406(3) Uani 1 1 d . U
O1 O -0.2796(3) 0.00661(15) 0.40734(16) 0.0796(4) Uani 1 1 d . U
O2 O -0.1683(3) -0.12207(14) 0.27603(17) 0.0823(5) Uani 1 1 d . U
N2 N 0.0845(3) 0.58992(15) 0.36923(13) 0.0523(4) Uani 1 1 d . U
N1 N -0.1547(3) -0.01780(15) 0.33616(15) 0.0572(4) Uani 1 1 d . U
C1 C 0.3653(3) 0.27333(13) 0.29671(12) 0.0365(3) Uani 1 1 d . U
C7 C 0.5459(3) 0.38355(14) 0.28848(13) 0.0395(3) Uani 1 1 d . U
C8 C 0.0985(3) 0.62730(13) 0.26284(13) 0.0388(3) Uani 1 1 d . U
C2 C 0.3120(3) 0.15840(14) 0.21884(13) 0.0385(3) Uani 1 1 d . U
C4 C 0.0251(3) 0.08400(14) 0.32277(15) 0.0438(3) Uani 1 1 d . U
C3 C 0.1434(3) 0.06252(14) 0.23144(14) 0.0437(3) Uani 1 1 d . U
H1 H 0.1112 -0.0143 0.1795 0.052 Uiso 1 1 calc R U
C6 C 0.2440(3) 0.28788(15) 0.38975(14) 0.0456(4) Uani 1 1 d . U
H3 H 0.2806 0.3626 0.4447 0.055 Uiso 1 1 calc R U
C5 C 0.0713(3) 0.19509(16) 0.40301(15) 0.0497(4) Uani 1 1 d . U
H2 H -0.0111 0.2073 0.4643 0.060 Uiso 1 1 calc R U
C9 C 0.3009(3) 0.70067(16) 0.24436(15) 0.0501(4) Uani 1 1 d . U
H10 H 0.4369 0.7250 0.3091 0.060 Uiso 1 1 calc R U
C12 C -0.0999(3) 0.63104(16) 0.05376(14) 0.0501(4) Uani 1 1 d . U
H7 H -0.2381 0.6080 -0.0100 0.060 Uiso 1 1 calc R U
C10 C 0.2962(3) 0.73551(17) 0.13192(17) 0.0554(4) Uani 1 1 d . U
H9 H 0.4307 0.7829 0.1197 0.066 Uiso 1 1 calc R U
C11 C 0.0920(4) 0.70121(18) 0.03404(16) 0.0573(4) Uani 1 1 d . U
H8 H 0.0883 0.7261 -0.0429 0.069 Uiso 1 1 calc R U
H6 H -0.216(3) 0.5428(19) 0.1756(17) 0.053(5) Uiso 1 1 d . .
H4 H -0.047(4) 0.5438(19) 0.3741(17) 0.054(5) Uiso 1 1 d . .
H5 H 0.209(4) 0.602(2) 0.431(2) 0.064(6) Uiso 1 1 d . .
loop_
_atom_site_aniso_label
_atom_site_aniso_U_11
_atom_site_aniso_U_22
_atom_site_aniso_U_33
_atom_site_aniso_U_23
_atom_site_aniso_U_13
_atom_site_aniso_U_12
Cl1 0.0798(3) 0.0560(3) 0.0548(3) -0.00211(19) 0.0361(2) 0.0018(2)
O4 0.0685(8) 0.0595(7) 0.0347(6) 0.0133(5) -0.0010(5) -0.0242(6)
O3 0.0616(7) 0.0643(7) 0.0333(5) 0.0019(5) 0.0024(5) -0.0230(6)
N3 0.0426(7) 0.0383(6) 0.0364(6) 0.0033(5) 0.0047(5) -0.0040(5)
O1 0.0662(9) 0.0835(10) 0.1013(11) 0.0273(9) 0.0422(9) -0.0044(7)
O2 0.0779(10) 0.0483(8) 0.1163(13) 0.0009(8) 0.0288(9) -0.0206(7)
N2 0.0536(9) 0.0586(9) 0.0374(7) 0.0111(6) 0.0009(6) -0.0121(7)
N1 0.0464(8) 0.0529(9) 0.0725(10) 0.0206(7) 0.0130(7) -0.0032(6)
C1 0.0397(7) 0.0346(7) 0.0327(7) 0.0065(5) 0.0039(5) 0.0014(6)
C7 0.0419(8) 0.0387(7) 0.0336(7) 0.0062(6) 0.0022(6) -0.0021(6)
C8 0.0448(8) 0.0329(7) 0.0360(7) 0.0045(5) 0.0058(6) 0.0012(6)
C2 0.0430(8) 0.0381(7) 0.0337(7) 0.0043(6) 0.0087(6) 0.0038(6)
C4 0.0408(8) 0.0386(8) 0.0521(9) 0.0122(6) 0.0107(7) -0.0007(6)
C3 0.0500(9) 0.0329(7) 0.0448(8) 0.0006(6) 0.0086(7) -0.0004(6)
C6 0.0593(9) 0.0359(7) 0.0417(8) 0.0002(6) 0.0161(7) 0.0008(7)
C5 0.0564(10) 0.0478(9) 0.0513(9) 0.0083(7) 0.0250(8) 0.0053(7)
C9 0.0425(8) 0.0513(9) 0.0509(9) 0.0096(7) 0.0031(7) -0.0053(7)
C12 0.0567(10) 0.0520(9) 0.0357(8) 0.0063(7) 0.0017(7) -0.0003(7)
C10 0.0525(10) 0.0557(10) 0.0603(10) 0.0174(8) 0.0180(8) -0.0046(8)
C11 0.0683(11) 0.0612(11) 0.0441(9) 0.0170(8) 0.0153(8) -0.0003(8)
loop_
_atom_type_symbol
_atom_type_description
_atom_type_scat_dispersion_real
_atom_type_scat_dispersion_imag
_atom_type_scat_source
C C 0.0033 0.0016 'International Tables Vol C Tables 4.2.6.8 and 6.1.1.4'
H H 0.0000 0.0000 'International Tables Vol C Tables 4.2.6.8 and 6.1.1.4'
N N 0.0061 0.0033 'International Tables Vol C Tables 4.2.6.8 and 6.1.1.4'
O O 0.0106 0.0060 'International Tables Vol C Tables 4.2.6.8 and 6.1.1.4'
Cl Cl 0.1484 0.1585 'International Tables Vol C Tables 4.2.6.8 and 6.1.1.4'
loop_
_geom_angle_atom_site_label_1
_geom_angle_atom_site_label_2
_geom_angle_atom_site_label_3
_geom_angle
C8 N3 C12 122.69(14)
O1 N1 O2 123.91(15)
O1 N1 C4 118.08(16)
O2 N1 C4 118.01(16)
C2 C1 C6 117.29(13)
C2 C1 C7 125.12(13)
C6 C1 C7 117.59(13)
O4 C7 O3 125.75(13)
O4 C7 C1 118.62(12)
O3 C7 C1 115.59(12)
N2 C8 N3 118.15(14)
N2 C8 C9 124.23(14)
N3 C8 C9 117.62(13)
C3 C2 C1 121.84(14)
C3 C2 Cl1 116.19(11)
C1 C2 Cl1 121.91(11)
C3 C4 C5 122.69(14)
C3 C4 N1 118.19(14)
C5 C4 N1 119.11(15)
C4 C3 C2 118.10(14)
C5 C6 C1 122.18(14)
C4 C5 C6 117.86(15)
C10 C9 C8 119.70(15)
C11 C12 N3 120.62(15)
C9 C10 C11 120.90(15)
C12 C11 C10 118.43(15)
loop_
_geom_bond_atom_site_label_1
_geom_bond_atom_site_label_2
_geom_bond_distance
Cl1 C2 1.7369(15)
O4 C7 1.2431(18)
O3 C7 1.2460(17)
N3 C8 1.3482(18)
N3 C12 1.354(2)
O1 N1 1.219(2)
O2 N1 1.222(2)
N2 C8 1.322(2)
N1 C4 1.473(2)
C1 C2 1.392(2)
C1 C6 1.393(2)
C1 C7 1.5192(19)
C8 C9 1.410(2)
C2 C3 1.384(2)
C4 C3 1.373(2)
C4 C5 1.375(2)
C6 C5 1.380(2)
C9 C10 1.354(2)
C12 C11 1.350(2)
C10 C11 1.397(3)
loop_
_geom_hbond_atom_site_label_D
_geom_hbond_atom_site_label_H
_geom_hbond_atom_site_label_A
_geom_hbond_distance_DH
_geom_hbond_distance_HA
_geom_hbond_distance_DA
_geom_hbond_angle_DHA
_geom_hbond_site_symmetry_A
N2 H5 O3 0.86(2) 2.10(2) 2.8230(18) 141.8(19) 2_666
N2 H4 O3 0.88(2) 1.92(2) 2.8041(19) 178.0(18) 1_455
N3 H6 O4 0.89(2) 1.86(2) 2.7427(17) 169.8(18) 1_455
C12 H7 O4 0.93 2.31 3.2292(19) 168.0 2_565
N3 H6 O4 0.89(2) 1.86(2) 2.7427(17) 169.8(18) 1_455
N2 H5 O3 0.86(2) 2.10(2) 2.8230(18) 141.8(19) 2_666
N2 H5 O3 0.86(2) 2.10(2) 2.8230(18) 141.8(19) 2_666
N2 H4 O3 0.88(2) 1.92(2) 2.8041(19) 178.0(18) 1_455
N3 H6 O4 0.89(2) 1.86(2) 2.7427(17) 169.8(18) 1_455
C12 H7 O4 0.93 2.31 3.2292(19) 168.0 2_565
N2 H5 O3 0.86(2) 2.10(2) 2.8230(18) 141.8(19) 2_666
N2 H4 O3 0.88(2) 1.92(2) 2.8041(19) 178.0(18) 1_455
N3 H6 O4 0.89(2) 1.86(2) 2.7427(17) 169.8(18) 1_455
C12 H7 O4 0.93 2.31 3.2292(19) 168.0 2_565
N3 H6 O4 0.89(2) 1.86(2) 2.7427(17) 169.8(18) 1_455
C12 H7 O4 0.93 2.31 3.2292(19) 168.0 2_565
N2 H4 O3 0.88(2) 1.92(2) 2.8041(19) 178.0(18) 1_455
N2 H5 O3 0.86(2) 2.10(2) 2.8230(18) 141.8(19) 2_666
C12 H7 O4 0.93 2.31 3.2292(19) 168.0 2_565
N2 H4 O3 0.88(2) 1.92(2) 2.8041(19) 178.0(18) 1_455
N2 H5 O3 0.86(2) 2.10(2) 2.8230(18) 141.8(19) 2_666
C12 H7 O4 0.93 2.31 3.2292(19) 168.0 2_565
N2 H4 O3 0.88(2) 1.92(2) 2.8041(19) 178.0(18) 1_455
N2 H5 O3 0.86(2) 2.10(2) 2.8230(18) 141.8(19) 2_666
N2 H4 O3 0.88(2) 1.92(2) 2.8041(19) 178.0(18) 1_455
N2 H5 O3 0.86(2) 2.10(2) 2.8230(18) 141.8(19) 2_666
N2 H5 O3 0.86(2) 2.10(2) 2.8230(18) 141.8(19) 2_666
N2 H4 O3 0.88(2) 1.92(2) 2.8041(19) 178.0(18) 1_455
C12 H7 O4 0.93 2.31 3.2292(19) 168.0 2_565
N2 H5 O3 0.86(2) 2.10(2) 2.8230(18) 141.8(19) 2_666
N2 H4 O3 0.88(2) 1.92(2) 2.8041(19) 178.0(18) 1_455
C12 H7 O4 0.93 2.31 3.2292(19) 168.0 2_565
C12 H7 O4 0.93 2.31 3.2292(19) 168.0 2_565
N3 H6 O4 0.89(2) 1.86(2) 2.7427(17) 169.8(18) 1_455
