#------------------------------------------------------------------------------
#$Date: 2020-10-04 06:07:14 +0300 (Sun, 04 Oct 2020) $
#$Revision: 257053 $
#$URL: file:///home/coder/svn-repositories/cod/cif/4/51/73/4517340.cif $
#------------------------------------------------------------------------------
#
# This file is available in the Crystallography Open Database (COD),
# http://www.crystallography.net/
#
# All data on this site have been placed in the public domain by the
# contributors.
#
data_4517340
loop_
_publ_author_name
'Trost, Barry M.'
'Shinde, Anand H.'
'Wang, Youliang'
'Zuo, Zhijun'
'Min, Chang'
_publ_section_title
;
 Palladium-Catalyzed Regio-, Enantio-, and Diastereoselective Asymmetric
 [3 + 2] Cycloaddition Reactions: Synthesis of Chiral Cyclopentyl
 Phosphonates
;
_journal_name_full               'ACS Catalysis'
_journal_page_first              1969
_journal_page_last               1975
_journal_paper_doi               10.1021/acscatal.9b05073
_journal_year                    2020
_chemical_absolute_configuration rmad
_chemical_formula_moiety         'C25 H22 N O7 P'
_chemical_formula_sum            'C25 H22 N O7 P'
_chemical_formula_weight         479.40
_space_group_crystal_system      triclinic
_space_group_IT_number           1
_space_group_name_Hall           'P 1'
_space_group_name_H-M_alt        'P 1'
_atom_sites_solution_hydrogens   geom
_atom_sites_solution_primary     dual
_atom_sites_solution_secondary   difmap
_audit_creation_method           SHELXL-2018/3
_cell_angle_alpha                100.704(2)
_cell_angle_beta                 91.306(2)
_cell_angle_gamma                94.062(2)
_cell_formula_units_Z            1
_cell_length_a                   5.7494(6)
_cell_length_b                   9.6543(10)
_cell_length_c                   10.4417(11)
_cell_measurement_reflns_used    9921
_cell_measurement_temperature    120(2)
_cell_measurement_theta_max      70.32
_cell_measurement_theta_min      4.31
_cell_volume                     567.68(10)
_computing_cell_refinement       'Bruker SAINT (Bruker, 2015)'
_computing_data_collection       'Bruker APEX-3 (Bruker, 2015)'
_computing_data_reduction        'Bruker SAINT (Bruker, 2015)'
_computing_molecular_graphics    'Bruker XP (Bruker, 2015)'
_computing_publication_material  'CIFTAB (Sheldrick, 2008)'
_computing_structure_refinement  'SHELXL-2018/3 (Sheldrick, 2015)'
_computing_structure_solution    'SHELXT-2018/2 (Sheldrick, 2015)'
_diffrn_ambient_temperature      120(2)
_diffrn_detector_area_resol_mean 7.41
_diffrn_measured_fraction_theta_full 0.990
_diffrn_measured_fraction_theta_max 0.981
_diffrn_measurement_device_type  'Bruker PHOTON-II'
_diffrn_measurement_method       'combination of \w and \f-scans '
_diffrn_radiation_type           CuK\a
_diffrn_radiation_wavelength     1.54178
_diffrn_reflns_av_R_equivalents  0.0345
_diffrn_reflns_av_unetI/netI     0.0352
_diffrn_reflns_Laue_measured_fraction_full 0.990
_diffrn_reflns_Laue_measured_fraction_max 0.981
_diffrn_reflns_limit_h_max       6
_diffrn_reflns_limit_h_min       -6
_diffrn_reflns_limit_k_max       11
_diffrn_reflns_limit_k_min       -11
_diffrn_reflns_limit_l_max       12
_diffrn_reflns_limit_l_min       -12
_diffrn_reflns_number            14830
_diffrn_reflns_point_group_measured_fraction_full 0.897
_diffrn_reflns_point_group_measured_fraction_max 0.883
_diffrn_reflns_theta_full        67.679
_diffrn_reflns_theta_max         70.498
_diffrn_reflns_theta_min         4.312
_diffrn_source                   'Incoatec micro-focus'
_exptl_absorpt_coefficient_mu    1.487
_exptl_absorpt_correction_T_max  1.0000
_exptl_absorpt_correction_T_min  0.7513
_exptl_absorpt_correction_type   numerical
_exptl_absorpt_process_details   'SADABS (Krause et al., 2015)'
_exptl_crystal_colour            colorless
_exptl_crystal_density_diffrn    1.402
_exptl_crystal_description       rod
_exptl_crystal_F_000             250
_exptl_crystal_size_max          0.267
_exptl_crystal_size_mid          0.180
_exptl_crystal_size_min          0.134
_refine_diff_density_max         0.891
_refine_diff_density_min         -1.209
_refine_diff_density_rms         0.285
_refine_ls_abs_structure_details
;
 Flack x determined using 1600 quotients [(I+)-(I-)]/[(I+)+(I-)]
 (Parsons, Flack and Wagner, Acta Cryst. B69 (2013) 249-259).
;
_refine_ls_abs_structure_Flack   0.02(5)
_refine_ls_extinction_method     none
_refine_ls_goodness_of_fit_ref   1.221
_refine_ls_hydrogen_treatment    constr
_refine_ls_matrix_type           full
_refine_ls_number_parameters     307
_refine_ls_number_reflns         3828
_refine_ls_number_restraints     3
_refine_ls_restrained_S_all      1.220
_refine_ls_R_factor_all          0.0772
_refine_ls_R_factor_gt           0.0649
_refine_ls_shift/su_max          0.000
_refine_ls_shift/su_mean         0.000
_refine_ls_structure_factor_coef Fsqd
_refine_ls_weighting_details
'w=1/[\s^2^(Fo^2^)+(0.1568P)^2^+0.7349P] where P=(Fo^2^+2Fc^2^)/3'
_refine_ls_weighting_scheme      calc
_refine_ls_wR_factor_gt          0.1898
_refine_ls_wR_factor_ref         0.2359
_reflns_Friedel_coverage         0.801
_reflns_Friedel_fraction_full    0.803
_reflns_Friedel_fraction_max     0.785
_reflns_number_gt                3752
_reflns_number_total             3828
_reflns_threshold_expression     'I > 2\s(I)'
_cod_data_source_file            cs9b05073_si_002.cif
_cod_data_source_block           suahs301
_cod_depositor_comments          'Adding full bibliography for 4517340.cif.'
_cod_database_code               4517340
_shelx_shelxl_version_number     2018/3
_shelx_space_group_comment
;
The symmetry employed for this shelxl refinement is uniquely defined
by the following loop, which should always be used as a source of
symmetry information in preference to the above space-group names.
They are only intended as comments.
;
_shelx_estimated_absorpt_t_min   0.692
_shelx_estimated_absorpt_t_max   0.826
_diffrn_source_monochromator     'MONTEL Multi-layer'
_shelx_res_file
;
TITL suahs301 in P1
    suahs301.res
    created by SHELXL-2018/3 at 07:21:04 on 01-Aug-2019
CELL 1.54178   5.74940   9.65430  10.44170 100.7040  91.3059  94.0622
ZERR    1.00   0.00060   0.00100   0.00110   0.0021   0.0023   0.0022
LATT -1
SFAC C H N O P
UNIT 25 22 1 7 1
TEMP -153.290
SIZE 0.134 0.18 0.267

L.S. 10
BOND $H
LIST 6
FMAP 2
PLAN 20
CONF

EQIV $1 x-1, y, z
EQIV $2 x, y-1, z
EQIV $3 x-1, y-1, z
HTAB C1 O5_$1
HTAB C3 O5
HTAB C11 O3_$2
HTAB C11 O4_$3
HTAB C13 O5_$1
ACTA

WGHT    0.156800    0.734900
FVAR       0.45944
P1    5    0.492847    0.558452    0.467849    11.00000    0.02255    0.01931 =
         0.01647    0.00251    0.00119   -0.00195
O1    4    0.280706    0.201006    0.913896    11.00000    0.03244    0.02547 =
         0.04104    0.01535    0.00118    0.00313
O2    4   -0.044140    0.227756    0.787215    11.00000    0.02842    0.02443 =
         0.03853    0.01228   -0.00279   -0.00617
O3    4    0.265746    0.878872    0.923126    11.00000    0.04403    0.02942 =
         0.02543    0.00172    0.01286   -0.00233
O4    4    0.637248    0.932040    0.921004    11.00000    0.04503    0.03539 =
         0.02530   -0.00219   -0.00780   -0.00341
O5    4    0.725802    0.587610    0.534471    11.00000    0.02389    0.02545 =
         0.02275    0.00669   -0.00435    0.00164
O6    4    0.369828    0.404153    0.464338    11.00000    0.02538    0.01814 =
         0.02614    0.00174    0.00544   -0.00246
O7    4    0.492294    0.570959    0.318506    11.00000    0.02160    0.03226 =
         0.01766    0.00524    0.00161   -0.00192
N1    3    0.453590    0.877485    0.868765    11.00000    0.04076    0.01368 =
         0.01903    0.00078    0.00015    0.00074
C1    1    0.269048    0.667025    0.535988    11.00000    0.02205    0.02203 =
         0.01717    0.00493    0.00055   -0.00443
AFIX  13
H1    2    0.113042    0.625068    0.497768    11.00000   -1.20000
AFIX   0
C2    1    0.268809    0.686788    0.688873    11.00000    0.02923    0.02051 =
         0.01819    0.00563   -0.00067   -0.00490
AFIX  13
H2    2    0.117090    0.725135    0.716755    11.00000   -1.20000
AFIX   0
C3    1    0.457500    0.807079    0.727510    11.00000    0.03043    0.02094 =
         0.01673    0.00170    0.00274   -0.00364
AFIX  13
H3    2    0.613790    0.769928    0.709415    11.00000   -1.20000
AFIX   0
C4    1    0.411613    0.912132    0.637831    11.00000    0.04804    0.02292 =
         0.02207    0.00824    0.00210   -0.00941
AFIX  23
H4A   2    0.299814    0.980212    0.676306    11.00000   -1.20000
H4B   2    0.558231    0.964981    0.621137    11.00000   -1.20000
AFIX   0
C5    1    0.309277    0.818333    0.513484    11.00000    0.02459    0.01738 =
         0.02047    0.00211    0.00549    0.00525
C6    1    0.251200    0.863771    0.405694    11.00000    0.03399    0.02841 =
         0.02866    0.01070   -0.00275    0.00400
AFIX  93
H6A   2    0.272878    0.961558    0.402642    11.00000   -1.20000
H6B   2    0.187906    0.798543    0.331509    11.00000   -1.20000
AFIX   0
C7    1    0.291868    0.556819    0.748638    11.00000    0.02630    0.01701 =
         0.01765    0.00342    0.00172   -0.00004
C8    1    0.489617    0.538193    0.821947    11.00000    0.02893    0.01950 =
         0.02190    0.00207    0.00072   -0.00213
AFIX  43
H8    2    0.618833    0.606727    0.831063    11.00000   -1.20000
AFIX   0
C9    1    0.501762    0.420501    0.882461    11.00000    0.03259    0.02559 =
         0.02549    0.00750    0.00033    0.00063
AFIX  43
H9    2    0.635522    0.408181    0.933061    11.00000   -1.20000
AFIX   0
C10   1    0.312900    0.324974    0.865184    11.00000    0.03274    0.02205 =
         0.02331    0.00607   -0.00078    0.00136
C11   1    0.035065    0.160655    0.891373    11.00000    0.03261    0.02630 =
         0.03984    0.01407    0.00357   -0.00321
AFIX  23
H11A  2   -0.050587    0.192328    0.971440    11.00000   -1.20000
H11B  2    0.008140    0.056613    0.866147    11.00000   -1.20000
AFIX   0
C12   1    0.114256    0.342410    0.790648    11.00000    0.03024    0.01972 =
         0.02103    0.00286    0.00120   -0.00237
C13   1    0.100176    0.455815    0.732196    11.00000    0.02101    0.02329 =
         0.02022    0.00201    0.00091    0.00009
AFIX  43
H13   2   -0.034746    0.466617    0.681824    11.00000   -1.20000
AFIX   0
C14   1    0.500126    0.287653    0.415239    11.00000    0.02898    0.01592 =
         0.02394    0.00120    0.00729   -0.00025
C15   1    0.460530    0.223791    0.286808    11.00000    0.04120    0.02207 =
         0.02281   -0.00210   -0.00090   -0.00465
AFIX  43
H15   2    0.344440    0.253273    0.233715    11.00000   -1.20000
AFIX   0
C16   1    0.600897    0.111408    0.236477    11.00000    0.05473    0.02770 =
         0.03416   -0.00783    0.01116   -0.00808
AFIX  43
H16   2    0.581610    0.065231    0.147849    11.00000   -1.20000
AFIX   0
C17   1    0.764004    0.070556    0.317135    11.00000    0.04292    0.02236 =
         0.06274   -0.00217    0.01275    0.00548
AFIX  43
H17   2    0.859252   -0.003018    0.282783    11.00000   -1.20000
AFIX   0
C18   1    0.793216    0.134209    0.447851    11.00000    0.03748    0.02449 =
         0.05487    0.00366   -0.00333    0.00324
AFIX  43
H18   2    0.904850    0.103239    0.502631    11.00000   -1.20000
AFIX   0
C19   1    0.657084    0.243679    0.497348    11.00000    0.03513    0.02226 =
         0.03020    0.00263   -0.00335   -0.00085
AFIX  43
H19   2    0.672399    0.287489    0.586756    11.00000   -1.20000
AFIX   0
C20   1    0.685352    0.589702    0.243409    11.00000    0.01790    0.02727 =
         0.01888    0.00296   -0.00086    0.00039
C21   1    0.856707    0.493912    0.230724    11.00000    0.02894    0.02548 =
         0.02195    0.00690   -0.00298    0.00017
AFIX  43
H21   2    0.849621    0.418874    0.278210    11.00000   -1.20000
AFIX   0
C22   1    1.039850    0.509333    0.147140    11.00000    0.02577    0.03038 =
         0.02233    0.00268   -0.00131   -0.00053
AFIX  43
H22   2    1.159184    0.445353    0.137905    11.00000   -1.20000
AFIX   0
C23   1    1.045264    0.619573    0.077595    11.00000    0.02015    0.03647 =
         0.02057    0.00265    0.00172   -0.00192
AFIX  43
H23   2    1.168376    0.630258    0.020221    11.00000   -1.20000
AFIX   0
C24   1    0.874478    0.712470    0.091417    11.00000    0.02940    0.02727 =
         0.02145    0.00665    0.00213   -0.00088
AFIX  43
H24   2    0.880005    0.787429    0.043842    11.00000   -1.20000
AFIX   0
C25   1    0.692269    0.697677    0.175015    11.00000    0.02776    0.02650 =
         0.02122    0.00333    0.00194   -0.00106
AFIX  43
H25   2    0.573755    0.762205    0.184368    11.00000   -1.20000

AFIX   0
HKLF 4




REM  suahs301 in P1
REM wR2 = 0.2359, GooF = S = 1.221, Restrained GooF = 1.220 for all data
REM R1 = 0.0649 for 3752 Fo > 4sig(Fo) and 0.0772 for all 3828 data
REM 307 parameters refined using 3 restraints

END

WGHT      0.1568      0.7352

REM Highest difference peak  0.891,  deepest hole -1.209,  1-sigma level  0.285
Q1    1   0.3074  0.8403  0.1446  11.00000  0.05    0.89
Q2    1   0.9975  0.4212  0.4479  11.00000  0.05    0.84
Q3    1   1.4241  0.7411  0.0285  11.00000  0.05    0.81
Q4    1   0.2925  0.8972  0.2179  11.00000  0.05    0.74
Q5    1   0.7051  1.0154  0.7666  11.00000  0.05    0.73
Q6    1   0.1403  0.3998  0.4059  11.00000  0.05    0.73
Q7    1   0.5380  0.7245  0.9688  11.00000  0.05    0.68
Q8    1   0.6186  1.0888  0.8299  11.00000  0.05    0.68
Q9    1  -0.2489  0.1325  0.7175  11.00000  0.05    0.65
Q10   1   1.1326  0.0979  0.5168  11.00000  0.05    0.64
Q11   1   0.2350  0.3642  0.3103  11.00000  0.05    0.63
Q12   1   1.1718  0.1131  0.5023  11.00000  0.05    0.63
Q13   1  -0.3395  0.1511  0.7950  11.00000  0.05    0.62
Q14   1   0.6546  0.7227  0.9193  11.00000  0.05    0.59
Q15   1   0.5389  0.4978  1.0861  11.00000  0.05    0.58
Q16   1   1.0813  0.1587  0.5716  11.00000  0.05    0.58
Q17   1   0.3119  1.0143  0.3822  11.00000  0.05    0.57
Q18   1   0.1696  1.0175  0.3696  11.00000  0.05    0.57
Q19   1   0.1979  0.9220  0.3048  11.00000  0.05    0.55
Q20   1   0.8298  1.0571  0.6540  11.00000  0.05    0.55
;
_shelx_res_checksum              1750
_shelx_hkl_file
;
  -2   0   0   21.76    1.01
   2   0   0   13.69    0.81
   2   0   0   16.51    0.77
   2   0   0   17.32    0.78
   2   0   0   17.96    1.05
   2   0   0   17.03    0.78
  -3   0   0    1.54    0.12
  -3   0   0    1.65    0.13
   3   0   0    1.01    0.10
   3   0   0    1.08    0.10
   3   0   0    1.03    0.09
   3   0   0    1.08    0.09
   3   0   0    0.94    0.09
   3   0   0    1.18    0.10
   3   0   0    1.16    0.10
   4   0   0   81.50    3.89
   4   0   0   80.64    3.63
   4   0   0   79.33    3.63
   4   0   0   77.48    3.66
   4   0   0   80.39    4.25
   4   0   0   79.78    3.64
   4   0   0   78.62    3.61
   4   0   0   81.59    3.66
   5  -1   0   23.78    1.28
   5  -1   0   19.89    1.17
   5  -1   0   22.75    1.31
   4  -1   0   10.05    0.51
   4  -1   0   10.19    0.52
   4  -1   0    9.21    0.54
   4  -1   0    9.39    0.52
  -4   1   0   11.93    0.65
   3  -1   0   79.03    3.66
   3  -1   0   80.58    3.65
   3  -1   0   84.04    3.70
   3  -1   0   83.63    4.03
   3  -1   0   80.61    3.68
   3  -1   0   80.01    3.67
  -3   1   0   88.72    3.68
  -3   1   0   73.43    4.07
   2  -1   0  119.64    5.26
   2  -1   0  116.24    5.23
   2  -1   0  117.52    5.25
   2  -1   0  116.65    5.45
   2  -1   0  116.06    5.24
  -2   1   0  127.13    5.77
  -2   1   0  118.82    5.50
   1  -1   0   79.37    3.61
   1  -1   0   77.60    3.67
   1  -1   0   84.94    3.63
  -1   1   0  110.24    5.00
   0  -1   0  248.83   13.42
   0   1   0  241.89   13.13
   1   1   0   58.17    2.55
   1   1   0   55.02    2.74
  -2  -1   0  103.88    4.66
   2   1   0   81.73    3.86
   2   1   0   84.90    3.86
   2   1   0   83.34    3.84
   2   1   0   87.88    3.85
   2   1   0   89.05    4.23
   2   1   0   87.90    3.84
  -3  -1   0   31.63    1.49
  -3  -1   0   31.96    1.50
   3   1   0   24.94    1.18
   3   1   0   26.43    1.68
   3   1   0   25.86    1.22
   3   1   0   24.76    1.25
   3   1   0   24.69    1.21
   3   1   0   26.10    1.19
   3   1   0   26.06    1.19
   4   1   0   35.84    1.76
   4   1   0   36.85    2.59
   4   1   0   34.83    1.71
   4   1   0   37.10    1.75
   4   1   0   41.14    1.97
   4   1   0   35.71    1.71
   5   1   0  102.93    5.76
   5   1   0  126.44    5.71
   5   1   0  122.77    5.76
   5   1   0  119.14    5.76
   5   1   0  134.41    5.51
   6  -2   0    7.55    0.49
   5  -2   0    4.54    0.54
   5  -2   0    4.42    0.29
   5  -2   0    4.29    0.30
   5  -2   0    4.54    0.49
  -5   2   0    6.25    0.36
  -5   2   0    6.51    0.41
   4  -2   0   42.38    1.94
   4  -2   0   40.86    1.91
   4  -2   0   39.29    2.13
  -4   2   0   47.30    2.30
   3  -2   0   58.32    2.67
   3  -2   0   55.91    2.66
   3  -2   0   59.43    2.68
   3  -2   0   58.19    2.69
   3  -2   0   59.78    2.64
  -3   2   0   61.36    2.86
  -3   2   0   65.21    2.99
   2  -2   0  123.10    5.45
   2  -2   0  123.06    5.48
   2  -2   0  115.00    5.46
   2  -2   0  127.08    5.49
  -2   2   0  121.24    5.65
  -2   2   0  126.26    5.66
  -2   2   0  131.31    5.81
   1  -2   0  393.37   22.05
  -1   2   0  395.26   22.39
   0  -2   0   52.76    2.37
   0   2   0   20.58    0.95
  -1  -2   0   99.89    4.46
   1   2   0  102.48    4.41
   1   2   0   94.17    4.41
   1   2   0   98.22    4.71
   1   2   0   99.75    4.43
  -2  -2   0   11.66    0.56
  -2  -2   0   11.69    0.56
  -2  -2   0   11.13    0.56
   2   2   0   11.30    0.54
   2   2   0   11.22    0.56
   2   2   0   10.56    0.54
   2   2   0   11.57    0.89
   2   2   0   11.22    0.56
  -3  -2   0   63.37    2.94
  -3  -2   0   65.84    2.94
   3   2   0   53.98    3.03
   3   2   0   53.71    2.44
   3   2   0   51.66    2.41
   3   2   0   53.20    2.42
   3   2   0   52.23    2.46
  -4  -2   0   66.34    3.16
  -4  -2   0   72.26    3.18
   4   2   0   64.00    3.02
   4   2   0   64.08    2.98
   4   2   0   64.81    2.98
   4   2   0   69.25    3.24
   4   2   0   65.65    3.04
   4   2   0   63.38    3.77
  -5  -2   0    9.37    0.57
   5   2   0    8.08    0.59
   5   2   0    7.55    0.61
   5   2   0    7.77    0.45
   5   2   0    7.81    0.46
   5   2   0    6.73    0.48
   5   2   0    7.49    0.46
   6   2   0    3.92    0.40
   6  -3   0   15.32    0.87
   6  -3   0   15.91    0.93
   6  -3   0   15.11    0.89
   5  -3   0   61.77    3.11
   5  -3   0   58.29    3.03
   5  -3   0   66.37    3.14
   5  -3   0   65.28    3.10
   5  -3   0   61.61    3.10
  -5   3   0   95.14    4.48
   4  -3   0   45.25    2.60
   4  -3   0   51.57    2.34
   4  -3   0   51.86    2.52
   4  -3   0   50.08    2.39
   4  -3   0   52.83    2.36
  -4   3   0   64.96    3.00
   3  -3   0   25.02    1.25
   3  -3   0   24.95    1.25
   3  -3   0   28.95    1.41
  -3   3   0   22.40    1.09
  -3   3   0   22.18    1.08
  -3   3   0   22.38    1.05
   2  -3   0  143.85    6.61
   2  -3   0  146.38    6.57
   2  -3   0  150.00    6.58
  -2   3   0  150.57    6.87
  -2   3   0  150.48    6.83
  -2   3   0  157.68    6.86
  -1   3   0  213.91    9.54
  -1   3   0  210.67    9.45
   0  -3   0  402.12   25.05
  -1  -3   0   99.75    4.47
  -1  -3   0   98.65    4.42
  -1  -3   0   97.60    4.42
   1   3   0   92.39    4.44
   1   3   0   85.55    4.05
   1   3   0   93.04    4.05
   1   3   0   89.89    4.07
  -2  -3   0   30.63    1.40
  -2  -3   0   30.48    1.43
  -2  -3   0   29.30    1.39
   2   3   0   24.50    1.20
   2   3   0   23.44    1.17
   2   3   0   25.68    1.22
   2   3   0   24.61    1.16
   2   3   0   26.16    1.65
  -3  -3   0    6.58    0.40
  -3  -3   0    6.82    0.40
   3   3   0    4.20    0.61
   3   3   0    4.51    0.53
   3   3   0    4.00    0.27
   3   3   0    4.08    0.26
   3   3   0    4.45    0.30
  -4  -3   0  144.16    6.69
  -4  -3   0  152.63    6.67
   4   3   0  125.10    5.87
   4   3   0  130.07    6.08
   4   3   0  121.68    5.87
   4   3   0  125.19    5.97
   4   3   0  129.77    6.03
   4   3   0  131.91    5.85
   4   3   0  135.21    6.51
   4   3   0  128.57    6.16
   4   3   0  130.32    5.81
  -5  -3   0   22.93    1.23
  -5  -3   0   21.15    1.12
  -5  -3   0   25.18    1.18
   5   3   0   19.18    0.96
   5   3   0   18.09    1.09
   5   3   0   18.56    1.14
   5   3   0   18.05    0.95
   5   3   0   17.09    1.13
   5   3   0   18.39    0.93
   5   3   0   17.42    0.98
  -6  -3   0   11.89    0.59
   6   3   0    9.46    0.60
   6   3   0    8.65    0.46
   6   3   0    9.05    0.45
   6   3   0    6.97    0.52
   6  -4   0   11.09    0.69
   6  -4   0   10.05    0.69
   6  -4   0   11.82    0.68
  -6   4   0    0.08    0.08
   5  -4   0   27.31    1.35
   5  -4   0   27.30    1.56
   5  -4   0   29.25    1.38
   5  -4   0   30.08    1.59
   5  -4   0   25.07    1.49
   5  -4   0   27.88    1.54
   5  -4   0   27.71    1.49
  -5   4   0   37.18    1.74
  -5   4   0   33.11    1.72
   4  -4   0   48.28    2.58
   4  -4   0   49.17    2.37
   4  -4   0   55.24    3.11
   4  -4   0   51.84    2.37
   4  -4   0   45.45    2.52
   4  -4   0   54.71    3.71
   4  -4   0   52.57    2.39
   4  -4   0   49.35    2.55
   3  -4   0   15.93    0.85
   3  -4   0   15.91    0.82
   3  -4   0   16.49    0.81
   2  -4   0   70.51    3.27
   2  -4   0   74.16    3.28
   2  -4   0   71.44    3.31
  -2   4   0   72.47    3.31
  -2   4   0   72.33    3.27
   1  -4   0   16.07    0.80
   1  -4   0   16.79    0.82
   1  -4   0   17.49    0.81
  -1   4   0   17.12    0.86
  -1   4   0   17.84    0.83
  -1   4   0   18.44    0.80
  -1   4   0   14.33    0.95
   0  -4   0   41.32    1.85
   0  -4   0   39.04    1.83
   0  -4   0   41.00    1.86
   0   4   0   46.66    2.31
   0   4   0   39.55    1.98
   0   4   0   42.55    2.00
   0   4   0   46.70    2.03
  -1  -4   0  214.08    9.39
  -1  -4   0  203.37    9.44
  -1  -4   0  213.27    9.39
   1   4   0  214.11    9.28
   1   4   0  207.15    9.24
   1   4   0  193.93    9.24
   1   4   0  212.66    9.75
  -2  -4   0   38.08    1.83
  -2  -4   0   39.78    1.90
  -2  -4   0   41.53    1.85
   2   4   0   33.42    1.60
   2   4   0   33.71    2.13
   2   4   0   32.99    1.56
   2   4   0   35.11    1.56
   2   4   0   30.67    1.59
  -3  -4   0  117.12    5.50
  -3  -4   0  126.25    5.58
  -3  -4   0  121.52    5.50
   3   4   0   99.68    4.56
   3   4   0  101.89    4.77
   3   4   0  102.04    6.11
   3   4   0   99.51    4.54
   3   4   0   97.38    4.60
  -4  -4   0   22.11    1.15
  -4  -4   0   21.70    1.08
   4   4   0   18.65    1.00
   4   4   0   19.00    1.06
   4   4   0   18.40    0.98
   4   4   0   18.94    1.01
   4   4   0   19.23    1.15
   4   4   0   19.38    0.98
   4   4   0   17.71    1.18
   4   4   0   19.45    1.25
   4   4   0   20.34    1.21
  -5  -4   0   21.04    1.14
  -5  -4   0   19.82    1.00
   5   4   0   17.01    0.88
   5   4   0   17.15    1.08
   5   4   0   16.63    1.08
   5   4   0   16.60    0.86
   5   4   0   15.90    1.00
   5   4   0   16.53    0.92
  -6  -4   0   99.28    5.27
   6   4   0   16.76    0.73
   6   4   0   12.92    0.78
   6   4   0   12.24    0.80
   6   4   0   15.59    0.72
   6  -5   0   13.41    0.80
   6  -5   0   13.83    0.81
   6  -5   0   13.12    0.83
  -6   5   0   -0.04    0.07
  -6   5   0    0.03    0.32
   5  -5   0   19.19    1.23
   5  -5   0   18.45    1.13
   5  -5   0   20.54    1.16
   5  -5   0   19.03    0.96
   5  -5   0   19.05    1.18
   5  -5   0   19.15    1.18
   4  -5   0    0.76    0.17
   4  -5   0    0.51    0.35
   4  -5   0    0.68    0.12
   4  -5   0    0.73    0.11
   4  -5   0    1.04    0.14
   4  -5   0    0.78    0.16
   4  -5   0    0.79    0.16
   4  -5   0    0.77    0.13
   4  -5   0    0.88    0.18
   4  -5   0    0.82    0.18
  -4   5   0    0.20    0.53
   3  -5   0    0.77    0.13
   3  -5   0    0.80    0.14
   3  -5   0    0.74    0.17
   2  -5   0   14.71    0.75
   2  -5   0   14.81    0.75
   2  -5   0   14.74    0.78
   1  -5   0   13.18    0.65
   1  -5   0   13.13    0.66
   1  -5   0   13.14    0.68
  -1   5   0   10.86    0.65
  -1   5   0   12.49    0.59
  -1   5   0   11.86    0.63
   0  -5   0    3.78    0.24
   0  -5   0    3.94    0.22
   0  -5   0    4.04    0.25
   0   5   0    3.12    0.25
   0   5   0    3.65    0.42
   0   5   0    3.57    0.20
   0   5   0    3.58    0.22
  -1  -5   0   70.94    3.35
  -1  -5   0   73.73    3.27
  -1  -5   0   70.78    3.26
   1   5   0   65.38    3.06
   1   5   0   70.07    3.60
   1   5   0   63.23    3.00
  -2  -5   0   43.43    2.12
  -2  -5   0   46.56    2.06
  -2  -5   0   40.86    2.03
   2   5   0   41.40    2.04
   2   5   0   45.22    2.50
   2   5   0   40.54    2.64
   2   5   0   44.37    1.98
   2   5   0   40.51    1.98
  -3  -5   0   49.12    2.50
  -3  -5   0   55.57    2.54
  -3  -5   0   61.40    3.49
  -3  -5   0   50.56    2.60
   3   5   0   39.91    2.09
   3   5   0   42.06    1.99
   3   5   0   41.93    2.21
   3   5   0   41.67    2.00
   3   5   0   44.07    2.34
   3   5   0   41.14    2.25
   3   5   0   43.56    2.06
   3   5   0   43.06    2.73
  -4  -5   0   14.54    0.85
  -4  -5   0   14.19    0.77
  -4  -5   0   14.82    1.57
   4   5   0   13.85    0.76
   4   5   0   12.71    0.72
   4   5   0   12.92    0.93
   4   5   0   12.65    0.73
   4   5   0   12.45    0.87
   4   5   0   13.39    0.98
   4   5   0   13.74    0.76
   4   5   0   14.72    0.98
   4   5   0   12.37    0.79
  -5  -5   0    2.42    0.34
  -5  -5   0    2.77    0.57
  -5  -5   0    2.59    0.20
   5   5   0    2.91    0.21
   5   5   0    2.71    0.32
   5   5   0    2.76    0.28
   5   5   0    2.64    0.29
   5   5   0    2.78    0.34
   5   5   0    2.81    0.22
   6   5   0    9.00    0.44
   6   5   0    8.09    0.50
   6  -6   0    8.89    0.52
   6  -6   0    8.38    0.53
   6  -6   0    8.19    0.54
  -6   6   0    0.18    0.28
   5  -6   0   27.07    1.60
   5  -6   0   29.44    1.54
   5  -6   0   31.18    1.41
   5  -6   0   29.66    1.57
   5  -6   0   27.86    1.60
   5  -6   0   28.55    1.56
   4  -6   0    8.21    0.68
   4  -6   0    8.41    0.61
   4  -6   0    8.48    0.50
   4  -6   0    8.76    0.70
   4  -6   0    8.12    0.51
   4  -6   0    8.48    0.55
   4  -6   0    8.26    0.63
   4  -6   0    8.73    0.66
   4  -6   0    9.69    0.57
   3  -6   0    2.45    0.30
   3  -6   0    2.00    0.35
   3  -6   0    2.55    0.21
   3  -6   0    2.25    0.24
   3  -6   0    2.19    0.30
   3  -6   0    2.18    0.27
   3  -6   0    2.17    0.66
   3  -6   0    2.37    0.20
   3  -6   0    2.34    0.23
   3  -6   0    2.48    0.32
   2  -6   0   78.24    3.71
   2  -6   0   82.18    3.66
   2  -6   0   78.96    3.65
   1  -6   0  287.12   12.88
   1  -6   0  282.94   12.85
   1  -6   0  293.67   12.91
  -1   6   0  319.51   13.41
  -1   6   0  280.47   13.52
  -1   6   0  300.82   13.41
   0  -6   0  103.08    4.81
   0  -6   0  109.34    4.83
  -1  -6   0   20.55    1.00
  -1  -6   0   19.48    1.07
  -1  -6   0   19.39    0.98
  -1  -6   0   21.15    1.01
   1   6   0   21.69    1.05
   1   6   0   21.87    1.07
   1   6   0   22.06    1.62
  -2  -6   0    1.80    0.15
  -2  -6   0    1.41    0.15
  -2  -6   0    1.42    0.20
  -2  -6   0    1.61    0.16
   2   6   0    0.96    0.21
   2   6   0    1.12    0.14
   2   6   0    1.03    0.16
   2   6   0    0.95    0.19
   2   6   0    1.20    0.19
   2   6   0    0.87    0.13
   2   6   0    0.95    0.14
   2   6   0    1.10    0.11
   2   6   0    1.21    0.33
  -3  -6   0   23.31    1.18
  -3  -6   0   23.87    1.27
  -3  -6   0   20.73    1.17
  -3  -6   0   23.04    1.29
  -3  -6   0   24.01    1.17
   3   6   0   20.56    1.22
   3   6   0   21.37    1.06
   3   6   0   20.43    1.07
   3   6   0   20.76    1.15
   3   6   0   19.76    1.05
   3   6   0   21.14    1.37
   3   6   0   20.27    1.13
   3   6   0   20.73    1.04
   3   6   0   20.67    1.30
   3   6   0   19.58    1.05
   3   6   0   20.26    1.21
   3   6   0   21.57    1.26
  -4  -6   0   91.37    4.17
  -4  -6   0   80.05    4.49
  -4  -6   0   85.00    4.02
   4   6   0   54.16    3.05
   4   6   0   61.31    3.24
   4   6   0   67.55    2.91
   4   6   0   60.01    3.01
  -5  -6   0    3.19    0.48
  -5  -6   0    3.54    0.23
   5   6   0    2.29    0.25
   5   6   0    2.16    0.21
   5   6   0    2.14    0.26
   5   6   0    2.30    0.29
   5   6   0    2.33    0.18
   5   6   0    2.41    0.18
   5  -7   0   15.19    0.98
   5  -7   0   17.33    0.94
   5  -7   0   16.26    1.00
   5  -7   0   16.71    0.82
   5  -7   0   16.74    0.96
   4  -7   0   23.95    1.23
   4  -7   0   25.38    1.57
   4  -7   0   25.51    1.36
   4  -7   0   25.46    1.52
   4  -7   0   20.39    1.70
   3  -7   0    2.75    0.22
   3  -7   0    2.79    0.32
   3  -7   0    2.57    0.29
   3  -7   0    2.56    0.33
   3  -7   0    2.68    0.25
   3  -7   0    2.52    0.22
   3  -7   0    2.51    0.39
  -3   7   0    3.19    0.26
  -3   7   0    3.09    0.33
  -3   7   0    3.45    0.32
  -3   7   0    3.22    0.50
   2  -7   0   12.07    0.71
   2  -7   0   10.75    0.66
   2  -7   0   13.75    2.13
   2  -7   0   11.55    0.63
   2  -7   0   12.22    0.76
   2  -7   0   12.11    0.89
   2  -7   0   12.45    0.84
   2  -7   0   11.99    0.88
   2  -7   0   10.35    0.73
   1  -7   0   56.82    2.65
   1  -7   0   54.19    2.61
   1  -7   0   53.42    2.66
   1  -7   0   59.17    2.62
   1  -7   0   55.60    2.82
   1  -7   0   56.82    2.94
  -1   7   0   58.00    2.74
  -1   7   0   61.26    3.04
  -1   7   0   58.54    2.86
   0  -7   0   26.71    1.40
   0  -7   0   27.70    1.33
   0   7   0   30.77    1.59
   0   7   0   27.48    1.40
  -1  -7   0   62.03    3.25
  -1  -7   0   72.27    3.18
  -1  -7   0   76.37    3.84
  -1  -7   0   64.75    3.17
   1   7   0   65.65    3.26
   1   7   0   68.03    3.28
   1   7   0   65.90    3.74
   1   7   0   72.45    3.04
   1   7   0   55.46    3.00
  -2  -7   0    6.80    0.46
  -2  -7   0    6.85    0.51
  -2  -7   0    7.24    0.73
  -2  -7   0    5.91    0.47
  -2  -7   0    6.41    0.41
  -2  -7   0    7.11    1.08
  -2  -7   0    6.99    0.43
  -2  -7   0    6.63    0.42
   2   7   0    5.32    0.37
   2   7   0    4.55    0.33
   2   7   0    5.61    0.58
   2   7   0    5.26    0.46
   2   7   0    5.32    0.44
   2   7   0    4.87    0.47
   2   7   0    5.12    0.50
   2   7   0    4.98    0.35
   2   7   0    4.97    0.50
   2   7   0    5.04    0.34
   2   7   0    5.15    0.42
   2   7   0    4.84    0.33
  -3  -7   0   36.95    1.91
  -3  -7   0   40.93    2.31
  -3  -7   0   36.22    1.80
  -3  -7   0   34.02    2.84
  -3  -7   0   38.15    1.80
  -3  -7   0   35.90    1.82
   3   7   0   36.80    1.71
   3   7   0   34.54    1.71
   3   7   0   38.15    1.73
   3   7   0   34.47    1.87
   3   7   0   36.88    1.88
   3   7   0   35.43    1.83
   3   7   0   32.43    1.95
   3   7   0   34.48    1.71
   3   7   0   35.77    2.07
   3   7   0   35.36    1.78
  -4  -7   0   14.97    0.80
  -4  -7   0   15.67    1.11
   4   7   0   12.64    0.90
   4   7   0   12.16    0.85
   4   7   0   12.26    0.79
   4   7   0   12.40    0.67
   4   7   0   11.95    0.66
   4   7   0   13.30    0.75
   5   7   0   11.62    0.63
   5   7   0   10.98    0.54
   5   7   0    9.77    0.65
   5   7   0   10.57    0.55
   5  -8   0   22.30    1.18
   5  -8   0   21.88    1.18
   5  -8   0   21.87    1.21
   5  -8   0   23.75    1.23
  -5   8   0   19.09    1.10
   4  -8   0    9.68    0.65
   4  -8   0   10.26    0.70
   4  -8   0    9.25    0.71
   4  -8   0    9.41    0.57
   4  -8   0   10.06    0.65
   4  -8   0   10.27    0.55
   4  -8   0    9.19    0.71
   3  -8   0    6.03    0.41
   3  -8   0    6.00    0.38
   3  -8   0    6.05    0.56
   3  -8   0    5.36    0.52
   3  -8   0    5.85    0.53
   3  -8   0    5.65    0.47
   3  -8   0    5.91    0.46
  -3   8   0    6.76    0.61
  -3   8   0    5.48    0.46
  -3   8   0    6.27    0.53
   2  -8   0   13.85    0.76
   2  -8   0   14.96    0.97
   2  -8   0   13.87    0.93
   2  -8   0   13.41    0.79
   2  -8   0   13.59    0.97
   2  -8   0   13.44    0.75
  -2   8   0   13.12    0.95
  -2   8   0   15.70    1.05
  -2   8   0   14.09    0.75
  -2   8   0   13.94    0.86
   1  -8   0   63.02    3.11
   1  -8   0   67.02    3.07
   1  -8   0   66.19    3.42
   1  -8   0   62.35    3.26
   1  -8   0   67.92    3.07
   1  -8   0   68.50    3.33
  -1   8   0   69.80    3.60
  -1   8   0   71.93    3.36
  -1   8   0   73.27    3.49
  -1   8   0   75.88    3.68
   0  -8   0   35.37    2.03
   0  -8   0   33.67    1.64
   0  -8   0   32.83    1.70
   0  -8   0   32.33    1.64
   0  -8   0   35.09    1.89
   0   8   0   35.60    1.84
   0   8   0   37.19    2.00
   0   8   0   34.32    1.72
  -1  -8   0   38.29    1.80
  -1  -8   0   33.98    1.84
  -1  -8   0   37.04    1.76
   1   8   0   34.31    1.84
   1   8   0   37.28    2.23
   1   8   0   37.87    1.68
   1   8   0   30.53    1.66
   1   8   0   33.26    2.44
  -2  -8   0   11.79    0.65
  -2  -8   0   12.27    1.02
  -2  -8   0   12.66    0.72
  -2  -8   0   12.07    0.67
  -2  -8   0   11.84    0.67
   2   8   0    8.92    0.54
   2   8   0    9.88    0.65
   2   8   0    9.78    0.62
   2   8   0   10.40    0.56
   2   8   0    9.61    0.81
   2   8   0    9.99    0.75
   2   8   0    9.03    0.70
  -3  -8   0    3.29    0.25
  -3  -8   0    3.27    0.45
  -3  -8   0    3.20    0.26
   3   8   0    2.65    0.27
   3   8   0    2.30    0.31
   3   8   0    2.56    0.20
   3   8   0    2.57    0.26
   3   8   0    2.47    0.20
   3   8   0    2.56    0.35
   3   8   0    2.18    0.30
  -4  -8   0   24.01    1.40
  -4  -8   0   23.07    1.14
  -4  -8   0   21.32    1.14
   4   8   0   19.33    1.01
   4   8   0   19.51    1.12
   4   8   0   18.15    1.08
   4   8   0   17.82    0.93
   4   8   0   18.17    0.91
   4  -9   0    2.77    0.20
   4  -9   0    2.78    0.25
   4  -9   0    2.80    0.24
   4  -9   0    3.11    0.31
   4  -9   0    2.93    0.20
   4  -9   0    2.55    0.29
   4  -9   0    3.08    0.30
  -4   9   0    2.36    0.29
  -4   9   0    2.88    0.31
   3  -9   0    8.14    0.46
   3  -9   0    7.98    0.48
   3  -9   0    7.30    0.60
   3  -9   0    8.06    0.63
   3  -9   0    7.33    0.51
  -3   9   0    5.97    0.44
  -3   9   0    6.94    0.58
  -3   9   0    7.08    0.60
   2  -9   0   11.23    0.81
   2  -9   0   10.86    0.62
   2  -9   0   10.89    0.64
   2  -9   0   10.60    0.77
  -2   9   0   11.36    0.72
  -2   9   0   11.50    0.87
  -2   9   0   11.29    0.83
   1  -9   0   75.75    3.56
   1  -9   0   70.63    3.28
   1  -9   0   68.28    3.60
   1  -9   0   65.53    3.46
   1  -9   0   71.51    3.32
   1  -9   0   72.30    3.34
  -1   9   0   80.38    3.91
  -1   9   0   80.10    3.73
  -1   9   0   73.59    3.80
   0  -9   0   25.75    1.53
   0  -9   0   26.18    1.36
   0  -9   0   29.13    1.74
   0  -9   0   27.81    1.41
   0  -9   0   27.75    1.36
   0   9   0   28.00    1.63
   0   9   0   29.94    1.43
   0   9   0   27.91    1.51
  -1  -9   0   13.54    0.77
  -1  -9   0   14.20    1.27
  -1  -9   0   16.90    1.04
   1   9   0   11.33    0.85
   1   9   0   10.70    0.78
   1   9   0   11.13    0.69
   1   9   0   11.74    0.80
  -2  -9   0    2.01    0.34
  -2  -9   0    1.93    0.19
  -2  -9   0    2.02    0.20
   2   9   0    1.49    0.21
   2   9   0    1.27    0.24
   2   9   0    1.12    0.12
   2   9   0    1.06    0.19
   2   9   0    1.14    0.19
   2   9   0    1.16    0.16
  -3  -9   0   14.65    1.06
  -3  -9   0   16.73    0.82
  -3  -9   0   15.16    0.79
   3   9   0   14.18    0.79
   3   9   0   13.01    0.93
   3   9   0   14.00    0.71
   3   9   0   15.24    0.88
   3 -10   0    8.19    0.50
   3 -10   0    8.55    0.47
   3 -10   0    9.28    0.62
  -3  10   0    7.61    0.58
  -3  10   0   10.13    0.66
   2 -10   0   16.70    0.81
   2 -10   0   16.52    0.98
   2 -10   0   13.10    0.91
   2 -10   0   16.28    0.84
  -2  10   0   14.00    0.93
  -2  10   0   14.46    0.88
  -2  10   0   13.98    0.80
   1 -10   0    3.34    0.24
   1 -10   0    3.20    0.37
   1 -10   0    3.18    0.34
   1 -10   0    3.54    0.28
  -1  10   0    4.30    0.43
  -1  10   0    4.49    0.37
   0 -10   0    0.33    0.07
   0 -10   0    0.46    0.18
   0 -10   0    0.37    0.09
   0  10   0    0.60    0.11
   0  10   0    0.90    0.22
   0  10   0    0.61    0.14
  -1 -10   0    0.56    0.16
  -1 -10   0    0.64    0.10
  -1 -10   0    0.74    0.08
   1  10   0    0.98    0.14
   1  10   0    0.79    0.15
  -2 -10   0    2.17    0.18
  -2 -10   0    1.98    0.30
   2  10   0    1.80    0.21
   2  10   0    1.70    0.20
   2  10   0    2.18    0.20
  -3 -10   0    4.07    0.37
   3  10   0    4.39    0.29
   2 -11   0    4.45    0.26
   2 -11   0    4.48    0.28
  -2  11   0    2.76    0.27
   1 -11   0   14.32    0.72
   1 -11   0   14.67    0.75
  -1  11   0   15.51    0.86
  -1  11   0   12.69    0.75
   0 -11   0    1.92    0.27
   0 -11   0    2.54    0.20
   0 -11   0    2.61    0.17
   0  11   0    2.68    0.26
   0  11   0    2.37    0.21
  -1 -11   0    5.41    0.33
   1  11   0    4.65    0.32
   1  11  -1    0.66    0.11
  -1 -11   1    1.51    0.13
  -1 -11   1    1.09    0.18
   0  11  -1    6.84    0.45
   0  11  -1    7.84    0.61
   0 -11   1    6.06    0.51
   0 -11   1    5.58    0.32
  -1  11  -1    2.91    0.23
  -1  11  -1    3.03    0.34
   1 -11   1    2.82    0.19
   1 -11   1    2.91    0.24
  -2  11  -1    7.61    0.54
   2 -11   1    6.47    0.47
   2 -11   1    7.94    0.41
   2 -11   1    8.41    0.44
   3  10  -1    7.97    0.46
   2  10  -1    2.12    0.23
   2  10  -1    2.51    0.17
   2  10  -1    2.42    0.30
   2  10  -1    2.13    0.21
  -2 -10   1    2.60    0.20
  -2 -10   1    2.58    0.20
  -2 -10   1    2.91    0.37
   1  10  -1    3.29    0.34
   1  10  -1    2.54    0.35
  -1 -10   1    2.71    0.43
  -1 -10   1    3.11    0.26
   0  10  -1    0.90    0.17
   0  10  -1    0.77    0.14
   0 -10   1    1.09    0.11
   0 -10   1    0.94    0.13
   0 -10   1    1.00    0.22
  -1  10  -1   13.39    1.09
  -1  10  -1   13.16    0.79
  -1  10  -1   14.55    0.94
   1 -10   1   12.93    0.69
   1 -10   1   13.31    0.91
   1 -10   1   12.89    0.73
   1 -10   1   12.32    0.92
  -2  10  -1    1.36    0.32
  -2  10  -1    1.06    0.14
  -2  10  -1    0.99    0.18
   2 -10   1    0.57    0.13
   2 -10   1    0.70    0.14
  -3  10  -1    4.31    0.40
  -3  10  -1    4.27    0.40
   3 -10   1    4.41    0.29
   3 -10   1    4.23    0.27
   3 -10   1    4.40    0.39
  -4  10  -1    6.58    0.46
   4 -10   1    6.00    0.43
   4 -10   1    6.18    0.42
   4 -10   1    6.06    0.33
   4   9  -1    6.45    0.35
   4   9  -1    6.80    0.39
  -4  -9   1    7.48    0.41
   3   9  -1    2.60    0.25
   3   9  -1    2.85    0.20
   3   9  -1    2.49    0.24
   3   9  -1    3.23    0.31
   3   9  -1    2.65    0.27
   2   9  -1    8.60    0.48
   2   9  -1    8.16    0.63
   2   9  -1    8.57    0.56
   2   9  -1    7.82    0.55
   2   9  -1    7.80    0.61
  -2  -9   1    8.88    0.82
  -2  -9   1    9.40    0.56
  -2  -9   1    9.39    0.55
   1   9  -1   21.39    1.33
   1   9  -1   21.73    1.23
   1   9  -1   23.71    1.45
  -1  -9   1   20.28    1.11
  -1  -9   1   20.88    1.43
   0   9  -1    3.63    0.34
   0   9  -1    4.24    0.30
   0   9  -1    3.91    0.42
   0  -9   1    4.40    0.31
   0  -9   1    4.95    0.56
   0  -9   1    4.59    0.35
   0  -9   1    4.45    0.32
  -1   9  -1   15.82    1.04
  -1   9  -1   14.85    0.79
  -1   9  -1   13.59    0.86
  -1   9  -1   14.90    0.98
   1  -9   1   10.67    0.82
   1  -9   1   12.36    0.71
   1  -9   1   12.63    0.95
   1  -9   1   11.78    0.67
   1  -9   1   12.38    0.85
   1  -9   1   11.96    0.66
  -2   9  -1   16.30    1.30
  -2   9  -1   16.59    0.94
   2  -9   1   13.70    1.13
   2  -9   1   16.28    1.20
   2  -9   1   15.38    0.90
   2  -9   1   15.18    1.05
   3  -9   1    3.20    0.26
   3  -9   1    3.16    0.35
   3  -9   1    2.60    0.33
   3  -9   1    3.37    0.37
   3  -9   1    3.44    0.24
  -4   9  -1    3.09    0.34
  -4   9  -1    2.77    0.31
   4  -9   1    2.80    0.19
   4  -9   1    2.75    0.29
   4  -9   1    2.02    0.22
   4  -9   1    2.24    0.27
   4   8  -1   28.92    1.56
   4   8  -1   30.34    1.70
   4   8  -1   32.59    1.50
   4   8  -1   34.80    1.70
   4   8  -1   31.16    1.60
  -4  -8   1   32.17    1.65
  -4  -8   1   34.79    1.94
  -4  -8   1   37.98    1.70
   3   8  -1   13.79    0.78
   3   8  -1   13.62    0.90
   3   8  -1   12.39    0.84
   3   8  -1   13.69    0.80
   3   8  -1   13.12    0.95
   3   8  -1   12.94    0.70
   3   8  -1   12.28    0.80
   3   8  -1   12.62    0.69
  -3  -8   1   14.59    0.80
  -3  -8   1   15.16    1.15
  -3  -8   1   15.84    0.85
   2   8  -1    0.53    0.09
   2   8  -1    0.74    0.17
   2   8  -1    0.74    0.16
   2   8  -1    0.60    0.14
   2   8  -1    0.47    0.10
   2   8  -1    0.43    0.11
  -2  -8   1    0.43    0.14
  -2  -8   1    0.51    0.12
  -2  -8   1    0.85    0.23
  -2  -8   1    0.53    0.09
  -2  -8   1    0.47    0.12
   1   8  -1   41.73    2.28
   1   8  -1   37.36    2.02
   1   8  -1   43.96    2.41
   1   8  -1   44.37    2.18
   1   8  -1   47.24    2.06
   1   8  -1   44.21    2.28
  -1  -8   1   52.78    2.77
  -1  -8   1   47.45    2.28
  -1  -8   1   44.35    2.24
  -1  -8   1   47.62    2.26
  -1  -8   1   46.53    2.31
   0   8  -1   19.26    1.20
   0   8  -1   18.91    1.06
   0   8  -1   18.35    1.15
   0   8  -1   17.71    1.04
   0  -8   1   21.78    1.41
   0  -8   1   19.73    1.17
   0  -8   1   19.52    1.03
   0  -8   1   20.19    1.09
  -1   8  -1   29.23    1.62
  -1   8  -1   26.17    1.45
  -1   8  -1   28.11    1.64
  -1   8  -1   26.78    1.37
   1  -8   1   21.99    1.13
   1  -8   1   24.35    1.37
   1  -8   1   22.91    1.34
   1  -8   1   21.69    1.17
   1  -8   1   21.65    1.44
   1  -8   1   21.11    1.12
  -2   8  -1   45.91    2.40
  -2   8  -1   44.00    2.06
  -2   8  -1   41.68    2.46
  -2   8  -1   41.80    2.37
   2  -8   1   37.12    1.97
   2  -8   1   39.83    2.42
   2  -8   1   39.81    1.92
   2  -8   1   38.01    1.95
   2  -8   1   40.07    2.20
   2  -8   1   41.87    2.22
   2  -8   1   42.18    2.19
   3  -8   1    2.86    0.31
   3  -8   1    2.87    0.26
   3  -8   1    3.12    0.25
   3  -8   1    3.14    0.38
   3  -8   1    3.02    0.24
   3  -8   1    2.79    0.34
   3  -8   1    3.03    0.31
   3  -8   1    2.96    0.36
   4  -8   1    0.98    0.17
   4  -8   1    0.99    0.17
   4  -8   1    0.99    0.12
   4  -8   1    1.01    0.16
   4  -8   1    0.99    0.19
   4  -8   1    1.05    0.20
   4  -8   1    0.95    0.11
  -5   8  -1   12.32    0.93
  -5   8  -1   15.72    0.90
   5  -8   1   14.63    0.84
   5  -8   1   11.69    0.80
   5  -8   1   14.36    0.69
   5  -8   1   14.82    0.79
   5   7  -1    0.67    0.12
   5   7  -1    0.65    0.09
   5   7  -1    0.57    0.10
   5   7  -1    0.75    0.08
   5   7  -1    0.69    0.07
   4   7  -1   21.09    1.23
   4   7  -1   19.34    0.98
   4   7  -1   18.87    1.11
   4   7  -1   17.75    1.08
   4   7  -1   20.63    0.98
   4   7  -1   21.32    1.08
   4   7  -1   16.08    1.14
   3   7  -1    2.29    0.26
   3   7  -1    2.29    0.34
   3   7  -1    2.30    0.20
   3   7  -1    1.69    0.30
   3   7  -1    2.23    0.27
   3   7  -1    2.47    0.31
   3   7  -1    2.36    0.32
   3   7  -1    2.86    0.25
   3   7  -1    2.30    0.26
   3   7  -1    2.44    0.24
   3   7  -1    2.18    0.20
  -3  -7   1    2.56    0.25
  -3  -7   1    3.02    0.33
  -3  -7   1    3.12    0.30
  -3  -7   1    3.36    0.25
  -3  -7   1    3.11    0.46
   2   7  -1   12.04    0.68
   2   7  -1   12.77    0.88
   2   7  -1   12.72    0.68
   2   7  -1   12.65    0.79
   2   7  -1   13.09    0.89
   2   7  -1   13.51    0.98
   2   7  -1   11.99    0.69
   2   7  -1   13.90    0.81
   2   7  -1   12.90    0.81
   2   7  -1   13.81    0.77
   2   7  -1   10.45    0.85
  -2  -7   1   13.02    0.69
  -2  -7   1   13.18    1.05
  -2  -7   1   12.79    0.69
  -2  -7   1   13.00    0.70
  -2  -7   1   12.45    0.80
  -2  -7   1   11.96    0.72
   1   7  -1    7.54    0.89
   1   7  -1    8.57    0.45
   1   7  -1    7.38    0.61
   1   7  -1    6.72    0.44
   1   7  -1    7.93    0.54
   1   7  -1    7.63    0.66
  -1  -7   1    8.95    0.57
  -1  -7   1    9.58    0.53
  -1  -7   1   10.21    0.85
  -1  -7   1    8.99    0.58
   0  -7   1   77.29    3.74
   0  -7   1   82.49    3.68
  -1   7  -1   64.52    3.39
  -1   7  -1   67.26    3.04
   1  -7   1   62.17    3.31
   1  -7   1   66.15    3.05
   1  -7   1   65.80    3.28
   1  -7   1   65.95    3.01
   2  -7   1   18.08    1.26
   2  -7   1   14.96    1.20
   2  -7   1   14.21    1.02
   2  -7   1   17.27    1.08
   2  -7   1   16.67    0.92
   2  -7   1   14.70    0.80
   2  -7   1   14.84    0.82
   2  -7   1   16.02    1.10
   2  -7   1   14.08    0.91
   2  -7   1   15.73    0.94
  -3   7  -1   12.31    0.78
  -3   7  -1   12.10    0.90
  -3   7  -1   11.93    0.65
  -3   7  -1   12.41    0.69
   3  -7   1    9.50    0.73
   3  -7   1    9.17    0.66
   3  -7   1    9.36    0.54
   3  -7   1    9.33    0.53
   3  -7   1    8.93    0.53
   3  -7   1    9.01    0.69
   3  -7   1    8.50    0.55
   3  -7   1    9.26    0.72
   3  -7   1    8.38    0.63
   3  -7   1    9.47    1.31
   4  -7   1   16.71    1.08
   4  -7   1   15.65    1.27
   4  -7   1   18.11    1.36
   4  -7   1   18.15    1.15
   4  -7   1   17.81    0.91
   5  -7   1   12.06    0.70
   5  -7   1   11.13    0.65
   5  -7   1   12.05    0.77
   5  -7   1   11.04    0.75
   5  -7   1    9.16    0.66
   5  -7   1    9.16    0.68
   5  -7   1   12.01    0.59
   5   6  -1    4.83    0.29
   5   6  -1    4.23    0.41
   5   6  -1    4.83    0.30
   5   6  -1    5.08    0.39
   5   6  -1    4.75    0.34
   5   6  -1    4.50    0.44
   4   6  -1    1.52    0.35
   4   6  -1    1.43    0.22
   4   6  -1    1.69    0.26
   4   6  -1    1.67    0.27
   4   6  -1    1.60    0.30
   4   6  -1    1.35    0.18
   4   6  -1    1.51    0.20
   4   6  -1    1.33    0.16
   4   6  -1    1.40    0.15
  -4  -6   1    2.73    0.21
  -4  -6   1    2.43    0.29
  -4  -6   1    2.44    0.55
  -4  -6   1    2.07    0.59
   3   6  -1   40.25    2.00
   3   6  -1   42.66    2.14
   3   6  -1   40.68    1.95
   3   6  -1   38.38    1.95
   3   6  -1   41.27    2.06
   3   6  -1   39.63    1.96
   3   6  -1   42.18    2.23
   3   6  -1   39.97    2.26
   3   6  -1   40.59    1.95
   3   6  -1   41.21    2.16
  -3  -6   1   48.67    2.33
  -3  -6   1   50.76    2.44
  -3  -6   1   48.29    2.78
   2   6  -1   27.69    1.42
   2   6  -1   22.79    1.88
   2   6  -1   24.20    1.23
   2   6  -1   26.02    1.42
  -2  -6   1   27.19    1.31
  -2  -6   1   26.26    1.40
  -2  -6   1   26.94    1.32
   1   6  -1   46.51    2.80
   1   6  -1   48.82    2.14
   1   6  -1   42.48    2.12
  -1  -6   1   41.35    2.10
  -1  -6   1   42.27    2.01
  -1  -6   1   44.95    2.02
  -1  -6   1   43.41    2.02
   0   6  -1   28.75    1.82
   0   6  -1   28.21    1.35
   0  -6   1   25.96    1.24
   0  -6   1   24.43    1.21
  -1   6  -1    6.85    0.47
  -1   6  -1    7.39    0.40
   1  -6   1    7.63    0.43
   1  -6   1    8.41    0.45
   1  -6   1    8.10    0.48
   2  -6   1   28.01    1.36
   2  -6   1   27.72    1.40
   2  -6   1   28.34    1.35
   3  -6   1   55.32    2.53
   3  -6   1   48.32    3.99
   3  -6   1   53.76    2.53
   3  -6   1   53.07    2.78
   3  -6   1   58.26    2.79
   4  -6   1    9.45    0.60
   4  -6   1    8.18    0.57
   4  -6   1    8.29    0.68
   4  -6   1    8.88    0.69
   4  -6   1    8.30    0.63
   4  -6   1    7.78    0.59
   4  -6   1    8.24    0.49
   4  -6   1    8.02    0.51
   4  -6   1    6.72    1.09
   4  -6   1    8.35    0.63
   5  -6   1    2.26    0.29
   5  -6   1    2.43    0.27
   5  -6   1    2.55    0.31
   5  -6   1    2.58    0.28
   5  -6   1    2.85    0.31
   5  -6   1    2.70    0.20
   5  -6   1    1.96    0.51
   6  -6   1    8.47    0.52
   6  -6   1    7.78    0.56
   6  -6   1    8.06    0.55
   6   5  -1    2.64    0.21
   6   5  -1    2.07    0.21
  -6  -5   1   13.93    1.20
   5   5  -1    7.99    0.47
   5   5  -1    8.23    0.60
   5   5  -1    7.67    0.80
   5   5  -1    8.29    0.54
   5   5  -1    8.90    0.66
   5   5  -1    8.50    0.49
   4   5  -1   32.67    1.53
   4   5  -1   32.21    1.56
   4   5  -1   30.94    1.57
   4   5  -1   32.66    1.66
   4   5  -1   33.48    1.85
   4   5  -1   32.31    1.60
   4   5  -1   32.43    1.74
   4   5  -1   26.75    1.82
   4   5  -1   32.12    1.73
   4   5  -1   33.62    1.83
   4   5  -1   31.27    1.59
  -4  -5   1   42.97    1.97
  -4  -5   1   37.94    1.96
  -4  -5   1   42.65    2.06
   3   5  -1   30.12    1.57
   3   5  -1   31.00    1.51
   3   5  -1   31.70    1.79
   3   5  -1   30.19    1.71
   3   5  -1   28.86    1.48
   3   5  -1   30.99    1.65
   3   5  -1   29.88    1.45
   3   5  -1   32.54    1.70
   3   5  -1   28.64    1.64
   3   5  -1   28.00    1.46
   3   5  -1   30.12    1.47
  -3  -5   1   39.16    1.87
  -3  -5   1   39.88    1.97
  -3  -5   1   39.39    1.88
   2   5  -1   39.73    1.83
   2   5  -1   40.53    2.02
   2   5  -1   38.26    2.50
   2   5  -1   38.25    1.84
  -2  -5   1   46.26    2.13
  -2  -5   1   45.06    2.12
  -2  -5   1   46.75    2.13
  -2  -5   1   44.34    2.20
   1   5  -1   94.76    4.76
   1   5  -1   87.73    4.13
   1   5  -1   92.62    4.14
  -1  -5   1   95.13    4.22
  -1  -5   1   91.85    4.29
  -1  -5   1   92.59    4.23
   0   5  -1   22.45    1.06
   0  -5   1   24.82    1.17
   0  -5   1   23.81    1.15
  -1   5  -1   12.42    0.70
  -1   5  -1   13.76    1.07
  -1   5  -1   12.47    0.63
   1  -5   1   16.12    0.80
   1  -5   1   15.17    0.76
   1  -5   1   15.40    0.77
   2  -5   1   32.57    1.55
   2  -5   1   31.36    1.51
   2  -5   1   31.79    1.51
   3  -5   1   21.02    1.01
   3  -5   1   19.09    1.04
  -4   5  -1    1.78    0.20
   4  -5   1    1.90    0.57
   4  -5   1    2.12    0.26
   4  -5   1    2.21    0.28
   4  -5   1    2.24    0.31
   4  -5   1    2.16    0.20
   4  -5   1    2.13    0.19
   4  -5   1    2.23    0.31
   4  -5   1    1.99    0.20
   4  -5   1    2.50    0.27
   4  -5   1    2.15    0.27
   5  -5   1    2.17    0.18
   5  -5   1    2.07    0.27
   5  -5   1    2.05    0.19
   5  -5   1    1.84    0.26
   5  -5   1    2.09    0.29
   5  -5   1    2.47    0.27
   5  -5   1    1.45    0.45
   5  -5   1    2.20    0.29
  -6   5  -1   -0.01    0.33
  -6   5  -1    0.05    0.07
   6  -5   1    5.27    0.39
   6  -5   1    4.51    0.38
   6  -5   1    5.39    0.41
   6   4  -1    4.96    0.36
   6   4  -1    4.72    0.37
   6   4  -1    5.63    0.31
   6   4  -1    5.23    0.40
  -6  -4   1   35.81    2.38
   5   4  -1   21.17    1.15
   5   4  -1   21.15    1.09
   5   4  -1   21.03    1.07
   5   4  -1   20.95    1.22
   5   4  -1   22.75    1.32
  -5  -4   1   34.58    2.32
  -5  -4   1   28.52    1.49
   4   4  -1   12.41    0.67
   4   4  -1   11.90    0.80
   4   4  -1   12.71    0.82
   4   4  -1   12.65    0.63
   4   4  -1   12.16    0.86
   4   4  -1   12.36    0.89
   4   4  -1   11.31    0.67
   4   4  -1   11.49    0.65
   4   4  -1   11.99    0.74
   4   4  -1   11.72    0.68
   4   4  -1   10.46    0.87
  -4  -4   1   13.92    0.81
  -4  -4   1   14.11    0.72
  -4  -4   1   13.12    0.72
   3   4  -1   25.25    1.21
   3   4  -1   24.31    1.25
   3   4  -1   25.49    1.23
   3   4  -1   25.96    1.42
   3   4  -1   24.66    1.90
  -3  -4   1   31.73    1.57
  -3  -4   1   32.75    1.50
  -3  -4   1   29.70    1.50
   2   4  -1   28.54    1.32
   2   4  -1   28.27    1.88
   2   4  -1   26.48    1.30
   2   4  -1   27.31    1.34
  -2  -4   1   32.87    1.55
  -2  -4   1   33.34    1.55
  -2  -4   1   33.21    1.61
   1   4  -1   25.24    1.57
   1   4  -1   23.68    1.13
   1   4  -1   23.75    1.13
  -1  -4   1   24.65    1.20
  -1  -4   1   26.08    1.27
  -1  -4   1   26.43    1.21
   0   4  -1  232.35   10.31
   0   4  -1  239.35   10.67
   0   4  -1  219.80   10.28
   0  -4   1  218.04    9.75
  -1   4  -1   87.38    4.31
  -1   4  -1  100.13    4.55
  -1   4  -1   97.02    4.29
   1  -4   1   94.34    4.36
   1  -4   1   98.58    4.36
   1  -4   1   97.93    4.39
  -2   4  -1    5.42    0.34
  -2   4  -1    5.60    0.41
  -2   4  -1    5.83    0.31
   2  -4   1    6.54    0.38
   2  -4   1    6.64    0.37
   2  -4   1    6.69    0.36
   2  -4   1    6.62    0.39
   3  -4   1   35.44    1.70
   3  -4   1   36.02    1.75
   3  -4   1   37.48    1.74
   3  -4   1   36.25    1.72
   4  -4   1   30.40    1.95
   4  -4   1   38.45    1.74
   4  -4   1   36.59    2.79
   4  -4   1   32.76    1.82
   4  -4   1   36.50    1.88
   4  -4   1   37.23    1.89
   4  -4   1   33.55    1.73
   4  -4   1   37.05    1.70
   4  -4   1   39.47    1.74
   4  -4   1   36.62    2.36
  -5   4  -1   47.92    2.33
  -5   4  -1   50.55    2.36
   5  -4   1   40.26    1.92
   5  -4   1   41.45    1.95
   5  -4   1   42.03    2.15
   5  -4   1   38.18    2.05
   5  -4   1   41.00    2.11
   5  -4   1   41.74    2.17
   5  -4   1   38.73    2.23
  -6   4  -1    0.28    0.16
   6  -4   1   15.45    1.01
   6  -4   1   15.11    1.07
   6  -4   1   16.71    0.94
   6  -4   1   17.91    0.92
   6   3  -1    1.45    0.20
   6   3  -1    1.84    0.21
   6   3  -1    1.85    0.15
   6   3  -1    1.54    0.15
   6   3  -1    1.39    0.24
  -6  -3   1    1.80    0.13
   5   3  -1   33.07    1.73
   5   3  -1   33.76    1.59
   5   3  -1   33.73    1.83
   5   3  -1   32.13    1.65
   5   3  -1   31.94    1.59
   5   3  -1   31.33    1.72
   5   3  -1   32.24    1.57
  -5  -3   1   41.67    1.99
  -5  -3   1   40.77    1.92
   4   3  -1   10.41    0.56
   4   3  -1   11.55    1.04
   4   3  -1   11.14    0.98
   4   3  -1   10.53    0.59
   4   3  -1    9.86    0.80
   4   3  -1   10.63    0.73
  -4  -3   1   11.15    0.63
  -4  -3   1   10.80    0.60
  -4  -3   1   10.98    0.57
   3   3  -1   88.56    4.25
   3   3  -1   93.24    4.64
   3   3  -1   93.11    4.96
   3   3  -1   94.42    4.22
   3   3  -1   94.91    4.27
   3   3  -1   97.15    4.22
   3   3  -1   92.06    4.25
  -3  -3   1  103.93    4.74
  -3  -3   1  103.26    4.76
  -3  -3   1  106.94    4.74
   2   3  -1   86.37    4.48
   2   3  -1   86.97    3.92
   2   3  -1   84.52    3.92
   2   3  -1   85.63    3.96
   2   3  -1   88.31    3.95
   2   3  -1   91.12    3.98
  -2  -3   1   91.12    4.11
  -2  -3   1   91.50    4.14
  -2  -3   1   90.77    4.11
  -1  -3   1  210.97    9.41
   0   3  -1   17.76    1.09
   0   3  -1   17.22    0.82
   0   3  -1   18.24    0.85
   0  -3   1   20.58    0.94
   0  -3   1   19.34    0.93
  -1   3  -1   33.18    1.49
  -1   3  -1   32.27    1.64
  -1   3  -1   30.79    1.46
   1  -3   1   32.81    1.54
   1  -3   1   34.32    1.57
   1  -3   1   34.20    1.55
  -2   3  -1   42.59    1.94
  -2   3  -1   41.78    1.97
  -2   3  -1   44.27    1.97
  -2   3  -1   41.51    2.12
   2  -3   1   38.09    1.79
   2  -3   1   38.11    1.78
   2  -3   1   39.97    1.77
  -3   3  -1   37.29    1.73
  -3   3  -1   33.91    1.70
  -3   3  -1   38.58    1.69
   3  -3   1   34.95    1.65
   3  -3   1   34.94    1.61
   3  -3   1   34.92    1.62
   3  -3   1   33.48    1.66
   3  -3   1   35.46    1.65
  -4   3  -1   27.91    1.29
  -4   3  -1   26.33    1.30
   4  -3   1   22.06    1.11
   4  -3   1   21.59    1.24
   4  -3   1   21.69    1.11
   4  -3   1   25.60    2.09
   4  -3   1   20.86    1.07
   4  -3   1   22.55    1.07
   4  -3   1   21.26    1.13
   5  -3   1    4.82    0.36
   5  -3   1    4.39    0.39
   5  -3   1    4.79    0.44
   5  -3   1    4.86    0.31
   5  -3   1    4.74    0.45
   5  -3   1    4.83    0.42
   6  -3   1   11.52    0.73
   6  -3   1   12.62    0.71
   6   2  -1    9.73    0.55
   6   2  -1    8.51    0.56
   6   2  -1    9.25    0.50
   6   2  -1    9.70    0.64
  -6  -2   1   12.26    0.60
   5   2  -1   22.78    1.04
   5   2  -1   20.25    0.99
   5   2  -1   16.79    1.23
   5   2  -1   19.99    1.14
   5   2  -1   18.40    1.13
   5   2  -1   20.11    1.08
   5   2  -1   20.07    1.01
   5   2  -1   19.97    1.21
   4   2  -1   58.13    2.73
   4   2  -1   57.64    3.47
   4   2  -1   62.33    2.75
   4   2  -1   57.18    3.01
  -4  -2   1   73.76    3.42
  -4  -2   1   70.30    3.29
   3   2  -1   62.70    2.96
   3   2  -1   66.79    2.97
   3   2  -1   64.70    2.92
   3   2  -1   63.07    2.95
   3   2  -1   65.39    3.55
   3   2  -1   64.77    2.93
  -3  -2   1   79.12    3.30
  -3  -2   1   68.38    3.30
  -3  -2   1   69.04    3.29
   2   2  -1  129.71    5.95
   2   2  -1  127.40    5.95
   2   2  -1  135.65    5.94
   2   2  -1  138.88    6.43
   2   2  -1  132.27    5.93
  -2  -2   1  154.26    6.78
  -2  -2   1  152.69    6.77
  -2  -2   1  146.88    6.77
  -1  -2   1  289.92   18.95
   0  -2   1    0.27    0.57
  -1   2  -1   52.39    2.46
  -1   2  -1   51.96    2.33
  -1   2  -1   49.86    2.31
   1  -2   1   46.23    2.10
   1  -2   1   48.30    2.12
   1  -2   1   45.43    2.12
  -2   2  -1   63.80    2.95
  -2   2  -1   65.37    3.23
  -2   2  -1   67.41    2.97
   2  -2   1   58.38    2.60
   2  -2   1   60.56    2.63
   2  -2   1   52.40    2.60
   2  -2   1   59.03    2.62
  -3   2  -1    2.55    0.18
  -3   2  -1    2.53    0.16
   3  -2   1    2.05    0.15
   3  -2   1    1.93    0.16
   3  -2   1    1.83    0.13
  -4   2  -1   24.00    1.28
  -4   2  -1   26.24    1.20
   4  -2   1   23.56    1.17
   4  -2   1   23.12    1.13
   4  -2   1   24.98    1.19
   4  -2   1   23.85    1.13
   4  -2   1   23.48    1.20
   5  -2   1   -0.05    0.11
   5  -2   1   -0.06    0.05
   5  -2   1   -0.01    0.04
   5  -2   1    0.01    0.09
   5  -2   1    0.08    0.14
   6   1  -1    0.79    0.14
   6   1  -1    0.83    0.11
   5   1  -1    7.75    0.51
   5   1  -1    8.52    0.47
   5   1  -1    7.38    0.75
   5   1  -1    7.76    0.44
   5   1  -1    7.72    0.60
   5   1  -1    7.61    0.48
   5   1  -1    6.86    0.63
   5   1  -1    8.32    0.65
  -5  -1   1   10.95    0.56
  -5  -1   1   10.04    0.58
   4   1  -1   19.77    1.55
   4   1  -1   20.28    1.01
   4   1  -1   19.52    1.03
   4   1  -1   23.78    1.31
  -4  -1   1   22.37    1.15
  -4  -1   1   23.56    1.13
   3   1  -1   11.23    0.93
   3   1  -1   11.27    0.57
   3   1  -1   11.12    0.54
   3   1  -1   11.26    0.56
   3   1  -1   10.86    0.54
   3   1  -1   11.24    0.57
  -3  -1   1   14.76    0.72
  -3  -1   1   14.02    0.70
  -3  -1   1   15.32    0.74
   2   1  -1   25.77    1.23
   2   1  -1   27.33    1.22
   2   1  -1   25.13    1.20
   2   1  -1   26.03    1.22
   2   1  -1   27.74    1.56
  -2  -1   1   28.80    1.34
   1   1  -1 1000.00   48.86
  -1  -1   1   29.27    3.55
   0   1  -1   -0.14    0.16
   0  -1   1    0.85    0.56
  -2   1  -1   56.86    2.71
  -2   1  -1   62.49    3.03
   2  -1   1   45.08    2.07
   2  -1   1   47.56    2.35
   2  -1   1   42.83    2.06
   2  -1   1   45.39    2.09
   2  -1   1   48.08    2.09
  -3   1  -1   22.90    1.04
  -3   1  -1   19.72    1.42
   3  -1   1   25.16    1.18
   3  -1   1   26.33    1.19
   3  -1   1   26.25    1.58
   3  -1   1   24.50    1.21
   3  -1   1   25.28    1.21
   3  -1   1   25.78    1.22
   3  -1   1   24.72    1.18
  -4   1  -1   54.66    2.55
   4  -1   1   47.03    2.17
   4  -1   1   47.76    2.16
   4  -1   1   46.58    2.19
   4  -1   1   47.57    2.22
   4  -1   1   46.36    2.20
   5   0  -1    7.75    0.62
   5   0  -1    8.64    0.81
   5   0  -1    8.69    0.55
   5   0  -1    8.97    0.64
   5   0  -1    8.63    0.48
   5   0  -1    9.29    0.64
  -5   0   1   10.05    0.56
   4   0  -1   24.23    1.29
   4   0  -1   20.17    1.01
   4   0  -1   19.88    1.00
   4   0  -1   20.39    1.02
   4   0  -1   19.94    1.04
  -4   0   1   25.86    1.29
  -4   0   1   26.10    1.25
   3   0  -1   42.66    2.37
   3   0  -1   44.10    1.97
   3   0  -1   43.24    2.00
   3   0  -1   44.95    2.02
   3   0  -1   42.82    1.99
   3   0  -1   43.35    1.99
  -3   0   1   49.08    2.28
  -3   0   1   50.86    2.31
   2   0  -1   45.38    2.29
   2   0  -1   46.84    2.05
   2   0  -1   43.90    2.02
   2   0  -1   44.60    2.03
   2   0  -1   43.79    2.03
   2   0  -1   44.26    2.03
  -2   0   1   53.42    2.45
  -2   0   1   55.47    2.48
   1   0  -1   25.05    1.27
   1   0  -1   24.59    1.14
   1   0  -1   25.60    1.13
  -1   0   1   24.15    1.06
  -1   0   1   23.23    1.06
   0   0  -1   64.51    4.70
   0   0   1   70.11    4.97
  -1   0  -1   11.56    0.73
  -2   0  -1   12.58    0.92
   2   0   1   24.36    1.09
   2   0   1   23.62    1.13
   2   0   1   24.83    1.10
   2   0   1   22.46    1.09
   2   0   1   23.28    1.11
   2   0   1   23.59    1.38
  -3   0  -1   96.33    4.33
  -3   0  -1   94.61    4.31
   3   0   1   77.90    3.64
   3   0   1   84.12    4.15
   3   0   1   81.42    3.62
   3   0   1   80.65    3.64
   3   0   1   80.20    3.66
   3   0   1   80.36    3.67
   3   0   1   81.01    3.63
   3   0   1   77.75    3.64
  -4   0  -1    3.06    0.55
   4   0   1   12.54    0.64
   4   0   1   12.30    0.63
   4   0   1   12.20    0.61
   4   0   1   12.17    0.62
   4   0   1   11.39    1.09
   4   0   1   13.14    0.80
   4   0   1   12.31    0.67
   6  -1  -1    9.97    0.66
   6  -1  -1   10.95    0.68
   5  -1  -1   63.47    2.97
   5  -1  -1   62.95    3.17
   5  -1  -1   64.18    3.26
   5  -1  -1   63.18    3.18
   5  -1  -1   63.85    3.06
   5  -1  -1   68.39    3.13
   4  -1  -1   83.47    3.80
   4  -1  -1   82.10    3.80
   4  -1  -1   83.99    3.79
   4  -1  -1   84.31    3.84
  -4   1   1   94.06    4.28
  -4   1   1   92.28    4.24
   3  -1  -1    7.33    0.60
   3  -1  -1    7.53    0.40
   3  -1  -1    8.86    0.42
   3  -1  -1    7.41    0.37
   3  -1  -1    7.51    0.42
   3  -1  -1    7.11    0.41
  -3   1   1    6.51    0.35
  -3   1   1    4.74    0.52
  -3   1   1    6.30    0.32
   2  -1  -1  147.66    6.37
   2  -1  -1  140.69    6.52
   2  -1  -1  146.41    6.38
   2  -1  -1  135.20    6.35
   2  -1  -1  141.53    6.36
  -2   1   1  143.32    6.39
   1  -1  -1  263.29   15.18
  -1   1   1  288.85   16.48
   0  -1  -1   86.12    3.41
   0  -1  -1   66.84    3.41
  -1  -1  -1  150.41    6.68
  -2  -1  -1   21.79    1.01
  -2  -1  -1   22.03    1.01
   2   1   1   17.91    1.15
   2   1   1   17.71    0.80
   2   1   1   16.80    0.79
   2   1   1   15.48    0.80
   2   1   1   17.95    0.83
   2   1   1   17.28    0.82
  -3  -1  -1   47.43    2.22
  -3  -1  -1   47.74    2.17
   3   1   1   47.21    2.65
   3   1   1   44.47    2.09
   3   1   1   47.03    2.15
   3   1   1   45.89    2.12
   3   1   1   45.64    2.11
   3   1   1   45.57    2.15
   3   1   1   45.81    2.10
  -4  -1  -1    5.47    0.99
   4   1   1   12.61    1.60
   4   1   1   12.05    0.78
   4   1   1   11.66    0.62
   4   1   1   11.34    0.65
   4   1   1   11.24    0.60
  -5  -1  -1   18.06    0.95
   5   1   1   17.88    0.91
   5   1   1   17.79    1.14
   5   1   1   18.15    1.06
   5   1   1   16.71    0.91
   6  -2  -1    1.61    0.21
   6  -2  -1    1.78    0.20
   6  -2  -1    1.53    0.21
   5  -2  -1   15.18    0.79
   5  -2  -1   15.45    0.94
   5  -2  -1   16.13    1.00
   5  -2  -1   15.39    0.81
   5  -2  -1   15.51    0.98
   5  -2  -1   14.20    0.90
   5  -2  -1   15.79    0.86
  -5   2   1   18.39    0.94
  -5   2   1   17.69    0.91
   4  -2  -1   30.39    1.46
   4  -2  -1   29.61    1.48
  -4   2   1   36.33    1.71
  -4   2   1   37.08    1.75
  -4   2   1   36.35    1.78
   3  -2  -1  172.91    7.55
   3  -2  -1  166.85    7.55
   3  -2  -1  167.60    7.52
   3  -2  -1  165.87    7.58
  -3   2   1  216.58    9.37
  -3   2   1  201.95    9.35
   2  -2  -1  104.26    4.81
   2  -2  -1  109.51    4.80
   2  -2  -1  106.65    4.79
  -2   2   1  111.66    4.78
  -2   2   1  101.92    4.79
   1  -2  -1  210.90   14.45
  -1   2   1  225.51   15.24
   0  -2  -1  254.51   16.66
   0   2   1  247.37   16.19
  -1  -2  -1  254.16   16.86
   1   2   1  251.61   16.40
  -2  -2  -1   17.17    0.80
  -2  -2  -1   17.37    0.81
  -2  -2  -1   17.40    0.83
   2   2   1   13.17    0.67
   2   2   1   13.27    0.65
   2   2   1   13.31    0.62
   2   2   1   13.21    1.00
   2   2   1   12.70    0.75
   2   2   1   13.22    0.64
  -3  -2  -1   47.80    2.22
  -3  -2  -1   48.90    2.21
   3   2   1   41.86    1.95
   3   2   1   42.28    1.99
   3   2   1   41.96    1.92
   3   2   1   40.76    1.95
   3   2   1   44.43    2.16
   3   2   1   41.70    2.63
   3   2   1   40.80    1.99
  -4  -2  -1   10.73    0.57
   4   2   1    8.25    0.48
   4   2   1    8.73    0.52
   4   2   1    8.83    0.70
   4   2   1    9.43    0.65
   4   2   1    8.37    0.50
   4   2   1    8.03    0.50
   4   2   1    7.75    0.68
   4   2   1    8.93    0.65
   4   2   1    8.15    0.46
  -5  -2  -1   31.92    1.68
  -5  -2  -1   30.51    1.49
   5   2   1   25.20    1.53
   5   2   1   25.74    1.30
   5   2   1   26.44    1.44
   5   2   1   25.81    1.28
   5   2   1   24.77    1.45
   6   2   1    9.53    0.57
   6   2   1    9.60    0.51
   6   2   1    9.33    0.59
   6  -3  -1   15.13    0.99
   6  -3  -1   17.72    0.98
   6  -3  -1   17.68    0.98
   6  -3  -1   19.09    0.98
  -6   3   1   -0.10    0.08
   5  -3  -1   33.19    1.84
   5  -3  -1   36.47    1.84
   5  -3  -1   34.78    1.64
   5  -3  -1   33.83    1.68
   5  -3  -1   31.75    1.74
   5  -3  -1   31.59    1.67
   5  -3  -1   35.96    1.82
  -5   3   1   40.62    1.96
  -5   3   1   40.52    1.98
   4  -3  -1   50.93    2.58
   4  -3  -1   48.03    2.55
   4  -3  -1   54.21    2.65
   4  -3  -1   50.08    3.63
   4  -3  -1   53.25    2.63
   4  -3  -1   52.46    2.41
   4  -3  -1   53.85    2.43
  -4   3   1   69.88    3.17
  -4   3   1   66.59    3.17
   3  -3  -1  107.49    4.90
   3  -3  -1  107.48    4.93
   3  -3  -1  109.59    4.89
  -3   3   1  119.14    5.40
   2  -3  -1   72.28    3.35
   2  -3  -1   75.02    3.33
   2  -3  -1   73.32    3.33
  -2   3   1   79.68    3.54
  -2   3   1   78.81    3.57
  -2   3   1   76.55    3.52
   1  -3  -1  144.13    6.60
   1  -3  -1  146.69    6.60
   1  -3  -1  151.90    6.61
  -1   3   1  162.02    7.21
  -1   3   1  167.76    7.26
  -1   3   1  157.73    7.19
  -1   3   1  157.20    7.21
   0  -3  -1   34.11    1.60
   0  -3  -1   34.83    1.60
   0  -3  -1   36.38    1.60
   0   3   1   37.94    1.92
   0   3   1   37.19    1.71
   0   3   1   38.46    1.74
   0   3   1   37.23    1.71
  -1  -3  -1   99.19    4.49
  -1  -3  -1   98.24    4.55
  -1  -3  -1  104.03    4.50
   1   3   1  100.10    4.64
   1   3   1  101.66    4.64
   1   3   1  107.97    4.67
   1   3   1  103.69    5.03
  -2  -3  -1  168.87    7.43
  -2  -3  -1  163.49    7.47
   2   3   1  155.16    6.90
   2   3   1  154.36    6.86
   2   3   1  159.38    6.90
   2   3   1  143.67    6.86
   2   3   1  152.40    7.43
  -3  -3  -1   93.58    4.12
  -3  -3  -1   86.42    4.06
  -3  -3  -1   89.49    4.06
   3   3   1   76.97    3.60
   3   3   1   79.65    3.67
   3   3   1   77.71    4.36
   3   3   1   77.15    3.62
   3   3   1   84.17    3.84
  -4  -3  -1   53.35    2.58
  -4  -3  -1   59.36    2.66
   4   3   1   48.42    2.34
   4   3   1   41.79    2.38
   4   3   1   50.78    2.52
   4   3   1   44.90    2.34
   4   3   1   48.84    2.28
   4   3   1   51.51    2.80
   4   3   1   49.95    2.54
   4   3   1   49.37    2.30
   4   3   1   54.40    2.92
   5   3   1   27.02    1.36
   5   3   1   25.27    1.48
   5   3   1   27.31    1.67
   5   3   1   27.47    1.33
   5   3   1   27.25    1.80
   5   3   1   26.73    1.34
   6   3   1    7.80    0.81
   6   3   1    7.64    0.57
   6  -4  -1   10.30    0.62
   6  -4  -1   10.11    0.60
   6  -4  -1    9.10    0.61
   6  -4  -1    8.65    0.63
  -6   4   1    0.92    0.56
   5  -4  -1   33.51    1.82
   5  -4  -1   36.41    1.87
   5  -4  -1   36.55    1.73
   5  -4  -1   33.21    1.82
   5  -4  -1   33.19    1.76
   5  -4  -1   33.48    1.81
   5  -4  -1   31.58    1.67
   5  -4  -1   34.08    1.66
  -5   4   1   43.92    2.06
  -5   4   1   40.37    2.05
   4  -4  -1   34.25    3.02
   4  -4  -1   33.60    1.96
   4  -4  -1   34.50    1.61
   4  -4  -1   34.22    1.59
   4  -4  -1   31.12    1.57
   4  -4  -1   32.75    2.11
   4  -4  -1   32.55    1.79
   4  -4  -1   31.73    1.95
  -4   4   1   39.39    1.92
  -4   4   1   38.00    1.87
   3  -4  -1   10.24    0.56
   3  -4  -1   10.62    0.57
   3  -4  -1   10.48    0.60
  -3   4   1   12.67    0.84
  -3   4   1   10.82    0.63
   2  -4  -1  135.97    6.03
   2  -4  -1  133.54    6.05
   2  -4  -1  132.21    6.02
  -2   4   1  145.71    6.13
  -2   4   1  125.22    6.16
  -2   4   1  136.62    6.17
   1  -4  -1  101.18    4.70
   1  -4  -1  107.11    4.71
   1  -4  -1  105.35    4.72
  -1   4   1   96.52    4.64
  -1   4   1  103.81    4.60
  -1   4   1  101.92    4.56
  -1   4   1  104.35    4.58
   0  -4  -1  100.22    4.57
   0  -4  -1   99.65    4.56
   0  -4  -1  105.24    4.57
   0   4   1   95.60    4.50
   0   4   1  105.49    4.53
  -1  -4  -1   30.57    1.37
  -1  -4  -1   29.78    1.36
  -1  -4  -1   29.72    1.38
  -1  -4  -1   28.36    1.43
   1   4   1   30.95    1.49
   1   4   1   32.06    1.46
   1   4   1   31.56    1.88
   1   4   1   30.32    1.45
  -2  -4  -1   85.15    3.86
  -2  -4  -1   85.75    3.94
   2   4   1   80.24    3.66
   2   4   1   83.17    3.71
   2   4   1   81.25    3.70
   2   4   1   79.35    4.30
   2   4   1   77.66    3.65
  -3  -4  -1   10.30    0.57
  -3  -4  -1   11.22    0.64
   3   4   1   11.05    0.62
   3   4   1   11.78    0.68
   3   4   1   11.63    1.19
   3   4   1   12.02    0.80
  -4  -4  -1   47.61    2.21
  -4  -4  -1   46.37    2.27
  -4  -4  -1   47.32    2.29
   4   4   1   35.86    1.81
   4   4   1   36.58    1.81
   4   4   1   37.25    1.88
   4   4   1   39.06    1.82
   4   4   1   36.77    1.78
   4   4   1   36.45    2.20
   4   4   1   39.93    2.17
   4   4   1   36.23    1.83
   4   4   1   39.26    1.86
   4   4   1   37.39    2.06
   4   4   1   37.70    2.00
  -5  -4  -1    1.93    0.17
  -5  -4  -1    2.17    0.21
   5   4   1    2.36    0.29
   5   4   1    2.41    0.21
   5   4   1    2.42    0.29
   5   4   1    2.45    0.20
   5   4   1    2.23    0.31
   5   4   1    2.16    0.29
  -6  -4  -1   18.54    1.41
   6   4   1    4.72    0.34
   6   4   1    4.73    0.29
   6   4   1    4.85    0.28
   6  -5  -1    6.62    0.50
   6  -5  -1    6.07    0.50
   6  -5  -1    6.39    0.43
   5  -5  -1    5.74    0.51
   5  -5  -1    7.20    0.44
   5  -5  -1    6.73    0.55
   5  -5  -1    6.22    0.51
   5  -5  -1    6.70    0.56
   5  -5  -1    6.84    0.51
  -5   5   1    0.38    0.46
   4  -5  -1   12.50    0.86
   4  -5  -1   12.53    0.66
   4  -5  -1   10.90    0.80
   4  -5  -1   13.11    0.86
   4  -5  -1   11.92    0.70
   4  -5  -1   12.59    0.66
   4  -5  -1   11.48    0.79
   4  -5  -1   10.56    0.74
   4  -5  -1   11.23    0.63
   3  -5  -1    9.58    0.58
   3  -5  -1    9.51    0.54
   3  -5  -1   10.05    0.55
  -3   5   1   11.02    0.68
  -3   5   1   11.14    0.62
   2  -5  -1   20.91    1.03
   2  -5  -1   19.66    0.99
   2  -5  -1   20.17    1.00
  -2   5   1   19.02    1.06
  -2   5   1   21.02    0.96
  -2   5   1   19.42    1.00
  -2   5   1   19.98    0.98
   1  -5  -1   82.91    3.77
   1  -5  -1   83.78    3.80
   1  -5  -1   82.89    3.78
  -1   5   1   90.06    3.92
  -1   5   1   85.15    3.90
  -1   5   1   84.13    4.00
   0  -5  -1   18.09    0.91
   0  -5  -1   19.49    0.93
   0  -5  -1   20.27    0.94
   0   5   1   27.01    1.19
   0   5   1   22.85    1.13
   0   5   1   22.18    1.41
  -1  -5  -1   35.35    1.63
  -1  -5  -1   34.79    1.64
   1   5   1   34.27    2.13
   1   5   1   34.37    1.70
   1   5   1   35.62    1.63
   1   5   1   35.52    1.64
  -2  -5  -1   61.81    2.84
  -2  -5  -1   56.56    2.80
  -2  -5  -1   57.25    2.83
  -2  -5  -1   69.30    2.99
   2   5   1   54.24    2.42
   2   5   1   49.31    2.41
   2   5   1   51.80    3.13
   2   5   1   52.70    2.48
   2   5   1   52.07    2.61
  -3  -5  -1  106.65    4.74
  -3  -5  -1  115.22    6.56
  -3  -5  -1   89.94    4.90
  -3  -5  -1  104.30    4.77
   3   5   1   91.51    4.03
   3   5   1   88.64    4.07
   3   5   1   85.19    4.28
   3   5   1   89.94    4.23
   3   5   1   88.43    4.25
   3   5   1   74.27    4.09
   3   5   1   84.87    4.00
   3   5   1   94.77    4.42
   3   5   1   87.14    3.99
   3   5   1   89.24    4.09
  -4  -5  -1   31.45    1.55
  -4  -5  -1   28.84    1.50
  -4  -5  -1   30.01    1.48
   4   5   1   21.36    1.40
   4   5   1   25.35    1.56
   4   5   1   24.37    1.24
   4   5   1   24.78    1.30
   4   5   1   23.66    1.48
   4   5   1   25.28    1.33
   4   5   1   28.28    1.34
   4   5   1   24.96    1.25
   4   5   1   25.13    1.27
   4   5   1   25.58    1.47
   4   5   1   24.57    1.42
   5   5   1    3.30    0.34
   5   5   1    3.22    0.36
   5   5   1    3.05    0.38
   5   5   1    3.11    0.29
   5   5   1    3.53    0.33
   6  -6  -1    4.94    0.37
   6  -6  -1    4.92    0.34
   6  -6  -1    4.97    0.35
  -6   6   1    0.26    0.35
   5  -6  -1    5.77    0.45
   5  -6  -1    5.55    0.58
   5  -6  -1    5.71    0.51
   5  -6  -1    6.38    0.50
   5  -6  -1    6.36    0.49
  -5   6   1   -0.01    0.35
  -5   6   1   -0.02    0.07
   4  -6  -1    3.83    0.27
   4  -6  -1    4.05    0.42
   4  -6  -1    4.16    0.44
   4  -6  -1    3.72    0.31
   4  -6  -1    4.14    0.40
   4  -6  -1    3.96    0.43
   4  -6  -1    3.86    0.37
   3  -6  -1    1.49    0.30
   3  -6  -1    1.67    0.19
   3  -6  -1    1.85    0.27
   3  -6  -1    1.84    0.24
   3  -6  -1    2.04    0.28
   3  -6  -1    2.05    0.18
   3  -6  -1    2.03    0.18
   3  -6  -1    2.01    0.29
   2  -6  -1    3.73    0.26
   2  -6  -1    3.38    0.24
   1  -6  -1   25.45    1.25
   1  -6  -1   24.90    1.23
   1  -6  -1   27.31    1.28
  -1   6   1   28.03    1.41
  -1   6   1   29.02    1.41
  -1   6   1   32.19    1.54
   0  -6  -1   33.36    1.58
  -1  -6  -1   37.87    1.76
  -1  -6  -1   37.05    1.74
  -1  -6  -1   35.14    1.84
  -1  -6  -1   38.02    1.75
   1   6   1   33.43    1.53
   1   6   1   34.14    1.54
   1   6   1   28.30    1.82
   1   6   1   33.10    2.11
  -2  -6  -1   40.26    1.82
  -2  -6  -1   37.82    1.89
  -2  -6  -1   41.06    1.85
  -2  -6  -1   38.78    1.94
  -2  -6  -1   35.27    1.82
  -2  -6  -1   38.20    1.85
   2   6   1   38.49    1.93
   2   6   1   37.31    1.90
   2   6   1   37.27    1.92
   2   6   1   40.01    1.92
   2   6   1   41.69    1.99
   2   6   1   42.42    2.05
   2   6   1   39.96    2.22
   2   6   1   39.91    2.37
   2   6   1   39.85    1.96
   2   6   1   42.92    1.92
   2   6   1   43.69    2.11
   2   6   1   42.32    2.13
  -3  -6  -1   18.08    0.93
  -3  -6  -1   15.05    1.09
  -3  -6  -1   18.15    1.02
  -3  -6  -1   18.79    0.95
   3   6   1   16.21    0.80
   3   6   1   16.09    1.03
   3   6   1   12.42    1.16
   3   6   1   14.21    0.91
   3   6   1   15.47    0.81
   3   6   1   15.61    1.00
   3   6   1   14.67    0.77
   3   6   1   15.44    0.87
   3   6   1   14.14    1.20
  -4  -6  -1    6.30    0.50
  -4  -6  -1    5.39    0.38
  -4  -6  -1    5.82    0.37
   4   6   1    5.28    0.35
   4   6   1    5.60    0.42
   4   6   1    5.37    0.55
   4   6   1    5.43    0.36
   4   6   1    5.60    0.40
   4   6   1    5.48    0.47
   4   6   1    5.89    0.53
   4   6   1    5.45    0.52
   4   6   1    5.35    0.37
  -5  -6  -1    0.36    0.06
  -5  -6  -1    0.75    0.36
  -5  -6  -1    0.33    0.14
   5   6   1    0.22    0.06
   5   6   1    0.20    0.05
   5   6   1    0.19    0.11
   5   6   1    0.20    0.08
   5   6   1    0.29    0.08
   5  -7  -1   10.67    0.67
   5  -7  -1    9.99    0.69
   5  -7  -1   10.64    0.69
   5  -7  -1   10.76    0.71
   5  -7  -1   10.94    0.66
   4  -7  -1   15.33    1.04
   4  -7  -1   16.56    0.99
   4  -7  -1   15.64    0.95
   4  -7  -1   16.48    1.07
   4  -7  -1   17.07    0.84
   4  -7  -1   16.36    0.90
   4  -7  -1   16.28    1.03
  -4   7   1   20.60    1.32
  -4   7   1   20.59    1.14
   3  -7  -1    0.74    0.12
   3  -7  -1    0.74    0.16
   3  -7  -1    0.52    0.42
   3  -7  -1    0.82    0.14
   3  -7  -1    0.75    0.12
   3  -7  -1    0.87    0.12
   3  -7  -1    0.76    0.17
   3  -7  -1    0.75    0.15
   3  -7  -1    0.66    0.12
   3  -7  -1    0.81    0.18
   3  -7  -1    0.75    0.17
  -3   7   1    0.59    0.13
  -3   7   1    0.63    0.17
  -3   7   1    0.56    0.11
  -3   7   1    0.47    0.15
   2  -7  -1    5.90    0.39
   2  -7  -1    6.71    0.39
   2  -7  -1    6.41    0.54
   2  -7  -1    6.10    0.56
   2  -7  -1    6.57    0.40
   2  -7  -1    6.38    0.46
   2  -7  -1    6.23    0.53
   2  -7  -1    6.19    1.16
   2  -7  -1    5.88    0.42
   1  -7  -1   59.47    2.88
   1  -7  -1   55.25    2.85
   1  -7  -1   61.67    2.80
   1  -7  -1   63.13    3.08
   1  -7  -1   61.08    3.01
  -1   7   1   65.35    3.18
  -1   7   1   66.14    3.05
  -1   7   1   67.28    3.35
   0  -7  -1   88.91    4.10
   0  -7  -1   82.64    3.80
   0  -7  -1   78.47    3.85
   0  -7  -1   84.07    4.18
   0  -7  -1   79.95    3.81
   0   7   1   82.54    4.03
   0   7   1   81.20    3.90
   0   7   1   89.28    3.79
   0   7   1   85.69    4.07
   0   7   1   73.97    4.03
  -1  -7  -1    9.21    0.70
  -1  -7  -1    9.68    0.83
  -1  -7  -1    9.04    0.51
  -1  -7  -1    8.71    0.53
   1   7   1    8.28    0.48
   1   7   1    8.00    0.66
   1   7   1    8.14    0.71
  -2  -7  -1    0.88    0.12
  -2  -7  -1    1.08    0.13
  -2  -7  -1    1.12    0.51
  -2  -7  -1    0.98    0.17
  -2  -7  -1    0.86    0.15
  -2  -7  -1    1.14    0.16
  -2  -7  -1    1.03    0.26
   2   7   1    0.71    0.12
   2   7   1    0.76    0.11
   2   7   1    0.74    0.13
   2   7   1    1.01    0.15
   2   7   1    0.86    0.15
   2   7   1    1.07    0.20
   2   7   1    0.85    0.16
   2   7   1    0.95    0.19
   2   7   1    1.19    0.22
   2   7   1    0.88    0.12
   2   7   1    0.92    0.22
   2   7   1    0.70    0.17
  -3  -7  -1   15.68    0.87
  -3  -7  -1   17.30    1.26
  -3  -7  -1   16.74    0.96
  -3  -7  -1   14.23    1.56
  -3  -7  -1   14.67    0.84
   3   7   1   16.46    1.17
   3   7   1   16.74    1.11
   3   7   1   17.12    0.95
   3   7   1   15.55    0.96
   3   7   1   16.79    0.88
   3   7   1   17.02    0.89
   3   7   1   17.18    1.07
   3   7   1   16.38    0.89
   3   7   1   17.29    1.02
  -4  -7  -1   13.46    0.72
  -4  -7  -1   13.19    0.71
  -4  -7  -1   13.69    1.15
   4   7   1   14.22    0.80
   4   7   1   11.01    1.07
   4   7   1   13.74    0.93
   4   7   1   11.20    0.71
   4   7   1   12.77    0.77
   5   7   1    4.79    0.31
   5   7   1    3.56    0.34
   5  -8  -1    7.00    0.47
   5  -8  -1    6.71    0.45
   5  -8  -1    6.63    0.41
   5  -8  -1    5.37    0.40
   5  -8  -1    6.21    0.44
  -5   8   1    8.89    0.62
  -5   8   1    9.75    0.63
   4  -8  -1   40.74    1.71
   4  -8  -1   36.54    2.23
   4  -8  -1   31.25    1.92
   4  -8  -1   40.25    1.83
   4  -8  -1   33.83    1.82
   4  -8  -1   31.66    2.12
   3  -8  -1   11.33    0.80
   3  -8  -1   13.11    0.84
   3  -8  -1   14.96    0.97
   3  -8  -1   12.64    0.99
   3  -8  -1   14.96    1.22
   3  -8  -1   14.72    0.84
   3  -8  -1   14.84    0.78
   2  -8  -1   29.76    1.69
   2  -8  -1   29.96    1.47
   2  -8  -1   31.98    1.68
   2  -8  -1   29.92    1.51
   2  -8  -1   29.03    1.47
   2  -8  -1   28.36    1.71
   1  -8  -1   26.62    1.59
   1  -8  -1   25.20    1.29
   0  -8  -1   19.44    1.32
   0  -8  -1   22.85    1.43
   0  -8  -1   22.67    1.09
   0  -8  -1   21.31    1.10
   0  -8  -1   19.95    1.29
   0   8   1   24.78    1.48
   0   8   1   26.19    1.49
   0   8   1   23.44    1.23
   0   8   1   25.67    1.52
  -1  -8  -1   41.60    1.98
  -1  -8  -1   39.46    2.18
  -1  -8  -1   40.82    2.03
  -1  -8  -1   40.80    1.96
  -1  -8  -1   43.40    2.41
   1   8   1   39.15    2.03
   1   8   1   37.00    2.10
   1   8   1   42.20    2.01
   1   8   1   41.41    2.17
   1   8   1   40.15    2.23
   1   8   1   39.89    1.96
  -2  -8  -1   10.26    0.59
  -2  -8  -1   10.11    0.90
  -2  -8  -1   10.11    0.62
   2   8   1    8.56    0.75
   2   8   1    8.71    0.60
   2   8   1    8.87    0.71
   2   8   1    8.36    0.53
   2   8   1    9.05    0.58
  -3  -8  -1   13.07    1.02
  -3  -8  -1   12.83    0.71
  -3  -8  -1   13.64    0.79
   3   8   1   12.82    0.85
   3   8   1   12.02    0.72
   3   8   1   10.84    0.85
   3   8   1   11.06    0.76
   3   8   1   12.19    0.70
   3   8   1   11.04    0.62
   4   8   1    4.45    0.27
   4   8   1    5.08    0.42
   4   8   1    3.91    0.31
   4   8   1    4.45    0.27
   4  -9  -1   12.22    0.76
   4  -9  -1   13.08    0.75
  -4   9   1   11.55    0.83
   3  -9  -1    4.48    0.44
   3  -9  -1    4.92    0.33
   3  -9  -1    5.30    0.47
   3  -9  -1    5.15    0.38
   3  -9  -1    5.11    0.44
  -3   9   1    4.96    0.48
  -3   9   1    4.92    0.45
  -3   9   1    4.88    0.38
   2  -9  -1    9.53    0.74
   2  -9  -1    9.75    0.56
   2  -9  -1   10.18    0.59
   2  -9  -1    9.77    0.69
  -2   9   1    9.83    0.76
  -2   9   1    9.85    0.64
  -2   9   1    9.21    0.70
   1  -9  -1   12.55    0.85
   1  -9  -1   15.76    1.25
  -1   9   1    4.06    0.36
   0  -9  -1   42.26    2.40
   0  -9  -1   45.58    2.53
   0  -9  -1   51.61    2.41
   0  -9  -1   46.20    2.46
   0   9   1   46.74    2.52
   0   9   1   48.90    2.70
   0   9   1   49.36    2.35
   0   9   1   46.46    2.46
  -1  -9  -1   16.68    0.87
  -1  -9  -1   16.32    1.18
  -1  -9  -1   16.84    0.92
   1   9   1   18.25    0.98
   1   9   1   17.31    1.09
   1   9   1   16.80    1.06
   1   9   1   17.53    1.01
  -2  -9  -1   17.00    0.95
  -2  -9  -1   16.29    1.17
  -2  -9  -1   16.53    0.84
  -2  -9  -1   16.98    0.86
   2   9   1   15.92    1.05
   2   9   1   13.06    0.98
   2   9   1   14.19    0.75
   2   9   1   16.18    0.92
   2   9   1   15.38    0.86
  -3  -9  -1    5.92    0.54
  -3  -9  -1    5.23    0.33
  -3  -9  -1    5.45    0.34
   3   9   1    4.65    0.29
   3   9   1    4.97    0.38
   3   9   1    5.51    0.48
   3 -10  -1    6.07    0.36
   3 -10  -1    6.18    0.35
   3 -10  -1    6.46    0.47
  -3  10   1    5.07    0.41
  -3  10   1    5.45    0.44
  -3  10   1    5.01    0.43
   2 -10  -1   12.00    0.82
   2 -10  -1   13.23    0.70
   2 -10  -1   13.33    0.67
  -2  10   1   11.50    0.67
  -2  10   1   11.02    0.77
   1 -10  -1   13.53    0.77
   1 -10  -1   11.31    0.82
   1 -10  -1   14.71    0.75
  -1  10   1   10.46    0.76
  -1  10   1   12.33    0.71
   0 -10  -1   22.42    1.34
   0 -10  -1   26.38    1.40
   0 -10  -1   26.59    1.21
   0 -10  -1   23.09    1.42
   0  10   1   26.30    1.42
   0  10   1   25.19    1.38
  -1 -10  -1    0.40    0.08
  -1 -10  -1    0.40    0.07
  -1 -10  -1    0.33    0.13
   1  10   1    0.56    0.15
   1  10   1    0.75    0.12
   1  10   1    0.66    0.14
  -2 -10  -1    3.40    0.37
  -2 -10  -1    3.30    0.24
   2  10   1    2.70    0.23
   2  10   1    2.58    0.26
  -2  11   1   21.32    1.13
   1 -11  -1   13.80    0.70
   1 -11  -1   14.31    0.72
  -1  11   1   11.77    0.66
  -1  11   1   12.11    0.78
   0 -11  -1   27.53    1.31
   0 -11  -1   26.74    1.28
   0  11   1   18.61    0.96
  -1 -11  -1   17.95    0.88
   1  11   1   11.27    0.61
  -2 -11   2    0.03    0.03
   1  11  -2    1.45    0.15
   1  11  -2    1.98    0.21
  -1 -11   2    1.92    0.26
   0  11  -2    0.50    0.11
   0  11  -2    0.30    0.07
   0 -11   2    0.46    0.13
   0 -11   2    0.67    0.17
  -1  11  -2    1.11    0.17
  -1  11  -2    1.25    0.16
   1 -11   2    1.67    0.23
   1 -11   2    1.54    0.13
   1 -11   2    1.54    0.15
  -2  11  -2    7.54    0.51
  -2  11  -2    5.98    0.47
   2 -11   2    8.21    0.44
   2 -11   2    8.42    0.47
   3  10  -2    7.76    0.45
  -3 -10   2   12.15    0.63
  -3 -10   2   11.18    0.79
   2  10  -2   13.80    0.87
   2  10  -2   15.31    0.82
  -2 -10   2   19.60    1.24
  -2 -10   2   17.58    0.98
   1  10  -2   15.00    0.91
   1  10  -2   14.32    0.94
  -1 -10   2   15.18    1.10
  -1 -10   2   15.00    0.82
  -1 -10   2   15.33    0.82
   0  10  -2   13.12    0.84
   0  10  -2   11.29    0.83
   0  10  -2   10.35    0.68
   0 -10   2   14.83    1.05
   0 -10   2   13.31    0.73
   0 -10   2   14.06    0.78
  -1  10  -2    9.86    0.71
  -1  10  -2   10.16    0.68
  -1  10  -2    9.13    0.72
   1 -10   2    9.93    0.81
   1 -10   2   10.73    0.62
   1 -10   2   10.43    0.57
  -2  10  -2    6.35    0.64
  -2  10  -2    5.09    0.48
   2 -10   2    4.11    0.39
   2 -10   2    4.14    0.44
   2 -10   2    4.70    0.36
  -3  10  -2    0.32    0.11
  -3  10  -2    0.24    0.10
  -3  10  -2    0.16    0.07
   3 -10   2    0.15    0.05
   3 -10   2    0.16    0.05
   3 -10   2    0.13    0.05
   3 -10   2    0.08    0.06
  -4  10  -2   13.21    0.82
   4 -10   2   16.03    0.76
   4 -10   2   13.36    0.86
   4   9  -2    2.73    0.33
   3   9  -2    8.91    0.56
   3   9  -2    9.40    0.61
   3   9  -2    9.33    0.61
   3   9  -2    9.27    0.49
   3   9  -2    7.43    0.58
   2   9  -2    3.13    0.29
   2   9  -2    2.70    0.21
   2   9  -2    2.94    0.27
   2   9  -2    2.92    0.33
   2   9  -2    2.37    0.29
  -2  -9   2    3.84    0.29
  -2  -9   2    3.41    0.27
  -2  -9   2    3.48    0.47
   1   9  -2    3.40    0.30
   1   9  -2    4.26    0.36
   1   9  -2    4.01    0.43
  -1  -9   2    4.46    0.39
  -1  -9   2    5.21    0.60
  -1  -9   2    4.80    0.36
   0   9  -2    9.80    0.65
   0   9  -2   10.07    0.77
   0   9  -2   10.23    0.57
   0   9  -2   10.14    0.74
   0  -9   2   10.72    0.63
   0  -9   2   10.15    0.59
   0  -9   2    9.67    0.57
   0  -9   2   10.75    0.91
  -1   9  -2   30.67    1.85
  -1   9  -2   34.56    1.60
  -1   9  -2   33.58    1.85
  -1   9  -2   33.06    1.69
   1  -9   2   33.84    1.61
   1  -9   2   32.21    1.91
   1  -9   2   31.42    1.75
   1  -9   2   27.80    1.75
   1  -9   2   32.43    1.56
   1  -9   2   32.40    1.55
   2  -9   2   16.89    1.20
   2  -9   2   18.14    1.15
   2  -9   2   15.76    0.96
   2  -9   2   15.99    0.95
   2  -9   2   18.56    1.40
   2  -9   2   14.91    1.17
   3  -9   2    3.95    0.27
   3  -9   2    4.20    0.43
   3  -9   2    3.87    0.34
   3  -9   2    3.14    0.38
   3  -9   2    3.92    0.30
   3  -9   2    3.70    0.40
   4  -9   2   17.44    1.10
   4  -9   2   22.44    1.11
   4  -9   2   21.93    1.00
   4  -9   2   21.99    1.03
   4  -9   2   17.71    1.14
   4   8  -2    2.70    0.32
   4   8  -2    3.33    0.29
   4   8  -2    3.52    0.33
   4   8  -2    3.45    0.23
   4   8  -2    3.43    0.30
   4   8  -2    3.02    0.26
   4   8  -2    3.05    0.24
  -4  -8   2    3.58    0.26
  -4  -8   2    3.03    0.23
  -4  -8   2    3.22    0.43
   3   8  -2    8.06    0.52
   3   8  -2    6.94    0.57
   3   8  -2    6.79    0.57
   3   8  -2    7.19    0.43
   3   8  -2    7.31    0.65
   3   8  -2    7.35    0.52
   3   8  -2    7.65    0.45
  -3  -8   2    9.20    0.53
  -3  -8   2    9.10    0.57
  -3  -8   2    9.06    0.82
   2   8  -2   14.12    0.95
   2   8  -2   13.67    0.82
   2   8  -2   13.33    0.73
   2   8  -2   13.17    0.84
   2   8  -2   13.42    0.92
   2   8  -2   14.19    0.81
  -2  -8   2   16.01    0.84
  -2  -8   2   14.88    0.84
  -2  -8   2   14.73    1.17
  -2  -8   2   15.27    0.85
   1   8  -2   15.43    0.90
   1   8  -2   15.06    0.97
   1   8  -2   15.07    1.00
   1   8  -2   13.25    0.77
   1   8  -2   15.26    0.79
  -1  -8   2   14.52    0.79
  -1  -8   2   13.46    1.09
  -1  -8   2   13.84    0.80
  -1  -8   2   14.76    0.77
   0   8  -2    9.10    0.70
   0   8  -2    8.87    0.59
   0   8  -2    9.28    0.61
   0   8  -2    7.70    0.49
   0   8  -2    8.67    0.68
   0  -8   2   11.34    0.93
   0  -8   2   12.30    0.70
   0  -8   2    9.94    0.58
   0  -8   2   10.10    0.63
   0  -8   2   10.05    0.62
  -1   8  -2   19.08    1.06
  -1   8  -2   18.86    1.22
  -1   8  -2   19.33    0.98
  -1   8  -2   19.41    1.24
   1  -8   2   19.72    1.08
   1  -8   2   20.18    1.25
   1  -8   2   18.98    1.02
   1  -8   2   21.59    1.39
   1  -8   2   20.51    1.23
   1  -8   2   20.73    1.04
   2  -8   2   31.05    1.67
   2  -8   2   33.02    1.61
   2  -8   2   34.03    1.86
   2  -8   2   32.26    2.00
   2  -8   2   34.77    1.85
   2  -8   2   32.83    1.69
   3  -8   2    9.16    0.55
   3  -8   2    8.59    0.65
   3  -8   2    9.91    0.78
   3  -8   2    9.97    0.76
   3  -8   2    9.05    0.58
   3  -8   2   10.12    0.74
   3  -8   2    9.55    0.66
   3  -8   2    9.03    0.74
   3  -8   2   10.13    0.64
   4  -8   2    9.40    0.52
   4  -8   2    9.19    0.62
   4  -8   2    8.88    0.68
   4  -8   2    7.72    0.61
   4  -8   2    9.41    0.69
   4  -8   2    9.73    0.55
   4  -8   2    8.68    0.68
   5  -8   2    3.14    0.20
   5  -8   2    3.29    0.27
   5  -8   2    2.55    0.27
   5  -8   2    3.15    0.27
   5  -8   2    3.22    0.30
   5  -8   2    3.24    0.28
   5   7  -2    3.67    0.23
   5   7  -2    3.77    0.23
   5   7  -2    3.72    0.27
   5   7  -2    3.81    0.30
   4   7  -2    8.16    0.47
   4   7  -2    8.13    0.64
   4   7  -2    8.01    0.46
   4   7  -2    8.16    0.55
   4   7  -2    7.97    0.58
   4   7  -2    7.80    0.58
   4   7  -2    8.14    0.64
  -4  -7   2    8.42    0.50
  -4  -7   2    8.83    0.54
  -4  -7   2    8.58    0.74
   3   7  -2   31.80    1.89
   3   7  -2   32.50    1.60
   3   7  -2   33.76    1.83
   3   7  -2   33.80    1.78
   3   7  -2   34.05    1.72
   3   7  -2   32.57    1.89
   3   7  -2   32.79    1.60
   3   7  -2   32.74    1.65
   3   7  -2   32.20    1.82
  -3  -7   2   38.15    2.10
  -3  -7   2   41.53    2.39
  -3  -7   2   40.76    1.96
  -3  -7   2   41.96    2.09
   2   7  -2   61.03    2.95
   2   7  -2   58.59    2.77
   2   7  -2   59.45    2.90
   2   7  -2   59.42    3.05
   2   7  -2   54.90    2.78
   2   7  -2   64.10    3.06
   2   7  -2   62.50    3.10
   2   7  -2   57.65    3.12
   2   7  -2   61.62    2.80
  -2  -7   2   66.94    3.11
  -2  -7   2   67.70    3.15
  -2  -7   2   66.67    3.24
  -2  -7   2   66.24    3.57
   1   7  -2   55.58    3.35
   1   7  -2   56.59    2.64
   1   7  -2   55.63    2.52
   1   7  -2   54.59    2.77
   1   7  -2   54.62    2.86
   1   7  -2   47.93    2.51
  -1  -7   2   54.82    2.61
  -1  -7   2   53.05    2.61
  -1  -7   2   56.26    2.59
  -1  -7   2   57.38    3.03
   0  -7   2   13.82    0.73
  -1   7  -2    5.67    0.36
  -1   7  -2    6.34    0.58
   1  -7   2    7.51    0.62
   1  -7   2    7.10    0.44
   1  -7   2    7.44    0.48
   1  -7   2    7.64    0.68
   2  -7   2   81.28    4.08
   2  -7   2   76.52    3.47
   2  -7   2   72.93    3.51
   2  -7   2   75.20    3.88
   2  -7   2   70.51    3.55
   2  -7   2   75.85    3.46
   2  -7   2   77.15    3.73
   2  -7   2   72.42    3.61
   3  -7   2   73.49    3.38
   3  -7   2   71.50    3.38
   3  -7   2   72.64    3.72
   3  -7   2   70.56    3.40
   3  -7   2   69.96    3.52
   3  -7   2   72.38    3.70
   3  -7   2   74.20    3.57
   3  -7   2   74.51    3.67
   3  -7   2   76.76    3.61
   4  -7   2   47.77    2.68
   4  -7   2   42.84    3.45
   4  -7   2   49.66    2.72
   4  -7   2   48.06    2.41
   4  -7   2   44.23    2.75
   4  -7   2   49.73    2.37
   5  -7   2   11.39    0.62
   5  -7   2   12.29    0.73
   5  -7   2   10.05    0.75
   5  -7   2   12.28    0.75
   5  -7   2   10.73    0.74
   5  -7   2   12.08    0.61
   5   6  -2    2.58    0.26
   5   6  -2    2.67    0.30
   5   6  -2    2.69    0.24
   5   6  -2    3.05    0.20
   5   6  -2    2.78    0.27
   5   6  -2    2.88    0.21
   4   6  -2    6.03    0.39
   4   6  -2    6.26    0.46
   4   6  -2    5.99    0.57
   4   6  -2    5.04    0.58
   4   6  -2    6.11    0.50
   4   6  -2    5.42    0.53
   4   6  -2    5.67    0.63
   4   6  -2    6.26    0.39
  -4  -6   2    5.95    0.71
  -4  -6   2    6.69    0.50
  -4  -6   2    6.41    0.40
   3   6  -2   11.80    0.64
   3   6  -2   12.02    0.79
   3   6  -2   11.74    0.84
   3   6  -2   10.56    0.63
   3   6  -2   11.17    0.81
   3   6  -2   11.41    0.67
   3   6  -2   11.48    0.73
   3   6  -2   10.57    0.87
   3   6  -2   11.49    0.64
   3   6  -2   12.30    0.90
  -3  -6   2   13.92    0.76
  -3  -6   2   13.43    0.84
  -3  -6   2   14.36    0.76
  -3  -6   2   14.64    1.11
   2   6  -2   11.87    0.72
   2   6  -2   11.10    0.76
   2   6  -2   11.09    0.71
   2   6  -2   10.94    0.60
   2   6  -2   11.40    1.19
   2   6  -2   11.62    0.84
  -2  -6   2   11.70    0.72
  -2  -6   2   11.86    0.64
  -2  -6   2   11.57    0.63
   1   6  -2    6.98    0.39
   1   6  -2    7.30    0.84
   1   6  -2    7.10    0.40
  -1  -6   2    8.14    0.56
  -1  -6   2    9.34    0.50
  -1  -6   2    9.24    0.52
  -1  -6   2    9.76    0.51
   0   6  -2   69.99    3.15
   0   6  -2   67.96    3.73
   0  -6   2   65.70    3.04
   0  -6   2   66.69    3.07
   1  -6   2   65.14    2.99
   1  -6   2   63.48    2.97
   1  -6   2   66.31    3.03
   2  -6   2    8.69    0.49
   2  -6   2    8.78    0.49
   3  -6   2   10.44    0.60
   3  -6   2   11.17    0.62
   3  -6   2   10.86    0.80
   3  -6   2   10.15    0.77
   3  -6   2   11.39    0.86
   3  -6   2   10.11    0.63
   3  -6   2   11.71    0.78
   3  -6   2   10.87    0.60
   3  -6   2   10.76    0.74
   4  -6   2   14.58    0.96
   4  -6   2   15.52    1.05
   4  -6   2   15.69    0.86
   4  -6   2   16.29    1.00
   4  -6   2   15.09    0.82
   4  -6   2   17.64    1.07
   4  -6   2   14.55    0.84
   4  -6   2   15.55    0.97
  -5   6  -2    0.12    0.08
  -5   6  -2    0.16    0.39
   5  -6   2    5.99    0.50
   5  -6   2    6.63    0.49
   5  -6   2    5.94    0.51
   5  -6   2    6.77    0.56
   5  -6   2    6.79    0.39
   5  -6   2    6.32    0.40
  -6   6  -2    0.16    0.22
   6  -6   2    1.03    0.13
   6  -6   2    0.78    0.12
   6  -6   2    1.00    0.14
   6   5  -2    0.30    0.06
  -6  -5   2    1.70    0.37
   5   5  -2    7.27    0.60
   5   5  -2    7.17    0.50
   5   5  -2    7.83    0.45
   5   5  -2    7.48    0.60
   5   5  -2    7.58    0.43
   5   5  -2    8.25    0.57
   4   5  -2    5.69    0.51
   4   5  -2    5.87    0.38
   4   5  -2    6.08    0.51
   4   5  -2    6.09    0.40
   4   5  -2    6.36    0.47
   4   5  -2    5.22    0.57
   4   5  -2    5.68    0.55
   4   5  -2    6.03    0.56
  -4  -5   2    8.45    0.48
  -4  -5   2    6.83    1.05
  -4  -5   2    8.79    0.57
  -4  -5   2    7.71    0.52
  -4  -5   2    7.99    0.73
   3   5  -2   55.50    2.85
   3   5  -2   56.42    2.61
   3   5  -2   55.23    2.87
   3   5  -2   57.77    2.75
   3   5  -2   58.89    2.82
   3   5  -2   58.06    2.64
   3   5  -2   53.00    2.94
   3   5  -2   55.49    2.65
   3   5  -2   59.26    2.93
   3   5  -2   56.66    2.67
   3   5  -2   54.75    2.64
  -3  -5   2   76.14    3.49
  -3  -5   2   76.24    3.92
  -3  -5   2   74.82    3.49
   2   5  -2    0.58    0.10
   2   5  -2    0.64    0.15
   2   5  -2    0.83    0.26
  -2  -5   2    1.12    0.11
  -2  -5   2    0.96    0.13
  -2  -5   2    1.18    0.12
   1   5  -2   44.28    2.00
   1   5  -2   42.35    1.99
   1   5  -2   44.36    2.60
   1   5  -2   41.86    2.17
  -1  -5   2   46.56    2.10
  -1  -5   2   46.62    2.14
  -1  -5   2   42.05    2.15
   0   5  -2   47.89    2.25
   0   5  -2   50.34    2.79
   0  -5   2   45.14    2.09
   0  -5   2   45.52    2.12
  -1   5  -2   33.53    1.58
  -1   5  -2   29.00    1.55
  -1   5  -2   32.31    1.49
  -1   5  -2   32.82    1.91
   1  -5   2   33.90    1.58
   1  -5   2   33.31    1.58
   1  -5   2   34.27    1.62
   2  -5   2   31.39    1.50
   2  -5   2   30.78    1.46
   2  -5   2   30.96    1.48
   2  -5   2   30.44    1.51
   3  -5   2    5.96    0.38
   3  -5   2    5.75    0.35
   3  -5   2    6.16    0.41
   3  -5   2    6.05    0.40
   4  -5   2   35.38    1.83
   4  -5   2   30.85    1.66
   4  -5   2   32.06    1.83
   4  -5   2   33.27    1.75
   4  -5   2   34.16    1.62
   4  -5   2   31.89    1.58
   4  -5   2   34.08    1.78
   4  -5   2   33.30    1.60
   4  -5   2   30.93    1.61
   4  -5   2   30.09    1.71
  -5   5  -2    0.25    0.42
  -5   5  -2   -0.11    0.06
   5  -5   2    0.26    0.11
   5  -5   2    0.29    0.11
   5  -5   2    0.37    0.13
   5  -5   2    0.35    0.13
   5  -5   2    0.28    0.07
   5  -5   2    0.48    0.10
  -6   5  -2    0.22    0.33
   6  -5   2    8.62    0.54
   6  -5   2    8.67    0.46
   6  -5   2    9.41    0.62
   6   4  -2    1.65    0.17
   6   4  -2    1.59    0.15
   6   4  -2    1.28    0.18
   6   4  -2    1.62    0.13
  -6  -4   2    9.75    1.04
   5   4  -2   23.51    1.23
   5   4  -2   23.24    1.31
   5   4  -2   23.36    1.15
   5   4  -2   22.51    1.12
   5   4  -2   20.20    1.33
   5   4  -2   24.31    1.30
   4   4  -2    7.77    0.57
   4   4  -2    7.05    0.51
   4   4  -2    5.57    0.61
   4   4  -2    6.91    0.44
   4   4  -2    6.82    0.43
   4   4  -2    7.15    0.58
   4   4  -2    7.72    0.63
   4   4  -2    7.27    0.44
  -4  -4   2    8.55    0.59
  -4  -4   2    8.40    0.55
  -4  -4   2    8.51    0.48
   3   4  -2   21.30    1.05
   3   4  -2   20.63    1.02
   3   4  -2   22.50    2.28
   3   4  -2   20.40    1.06
  -3  -4   2   24.62    1.15
  -3  -4   2   23.35    1.16
  -3  -4   2   21.97    1.16
  -3  -4   2   24.37    1.22
   2   4  -2  131.88    6.15
   2   4  -2  137.06    6.19
   2   4  -2  137.54    6.17
   2   4  -2  141.56    6.89
  -2  -4   2  158.71    7.31
  -2  -4   2  160.93    7.35
  -2  -4   2  167.75    7.30
   1   4  -2   17.46    0.87
   1   4  -2   17.68    0.85
   1   4  -2   17.22    0.84
   1   4  -2   18.14    1.28
  -1  -4   2   18.30    0.94
  -1  -4   2   18.62    0.90
  -1  -4   2   18.57    0.89
   0   4  -2  234.00   10.49
   0   4  -2  214.68   10.03
   0  -4   2  206.19    9.44
   0  -4   2  215.78    9.40
  -1   4  -2   46.27    2.51
  -1   4  -2   49.14    2.27
  -1   4  -2   48.55    2.21
  -1   4  -2   50.39    2.25
   1  -4   2   50.11    2.35
   1  -4   2   50.14    2.33
   1  -4   2   51.78    2.33
   1  -4   2   51.85    2.36
  -2   4  -2    3.46    0.39
  -2   4  -2    3.70    0.22
  -2   4  -2    3.70    0.26
   2  -4   2    3.59    0.25
   2  -4   2    4.28    0.27
   2  -4   2    3.38    0.23
   2  -4   2    3.40    0.22
   3  -4   2   30.05    1.43
   3  -4   2   28.30    1.45
   3  -4   2   30.90    1.45
   3  -4   2   28.49    1.39
   4  -4   2   32.09    1.73
   4  -4   2   33.00    2.18
   4  -4   2   34.87    1.70
   4  -4   2   33.91    1.65
   4  -4   2   36.27    1.94
   4  -4   2   38.57    2.34
   4  -4   2   34.47    1.69
   4  -4   2   38.33    1.74
   5  -4   2    7.57    0.62
   5  -4   2    7.67    0.59
   5  -4   2    7.07    0.49
   5  -4   2    7.21    0.57
   5  -4   2    7.81    0.45
   5  -4   2    7.49    0.47
   5  -4   2    7.53    0.55
   6  -4   2    1.24    0.19
   6  -4   2    1.12    0.16
   6  -4   2    1.26    0.21
   6   3  -2    0.66    0.20
   6   3  -2    0.83    0.15
   6   3  -2    1.09    0.11
   6   3  -2    1.07    0.13
   6   3  -2    1.01    0.15
  -6  -3   2    1.22    0.10
   5   3  -2   41.95    2.22
   5   3  -2   42.43    2.06
   5   3  -2   47.73    2.12
   5   3  -2   42.12    2.03
   5   3  -2   37.22    2.32
   5   3  -2   44.67    2.22
   5   3  -2   46.15    2.31
   5   3  -2   44.05    2.14
  -5  -3   2   56.20    2.62
  -5  -3   2   57.39    2.70
   4   3  -2   70.81    3.21
   4   3  -2   68.80    3.36
   4   3  -2   67.70    3.28
   4   3  -2   69.19    3.55
   4   3  -2   65.98    3.21
   4   3  -2   70.24    3.45
   4   3  -2   70.32    3.17
  -4  -3   2   85.18    3.95
  -4  -3   2   85.14    3.90
  -4  -3   2   87.53    3.99
   3   3  -2   31.69    1.56
   3   3  -2   30.63    1.51
   3   3  -2   31.75    1.53
   3   3  -2   36.85    1.65
   3   3  -2   35.62    2.15
   3   3  -2   31.40    1.56
   3   3  -2   32.46    2.19
  -3  -3   2   33.24    1.66
  -3  -3   2   34.41    1.65
  -3  -3   2   35.82    1.61
  -3  -3   2   34.92    1.64
   2   3  -2  211.06    9.92
   2   3  -2  203.35    9.30
   2   3  -2  204.43    9.33
   2   3  -2  216.11    9.32
   2   3  -2  208.14    9.34
  -2  -3   2  242.38   10.83
   1   3  -2   55.07    3.21
   1   3  -2   65.18    2.78
   1   3  -2   63.51    2.79
   1   3  -2   61.73    2.77
  -1  -3   2   63.75    2.92
  -1  -3   2   66.37    2.93
  -1  -3   2   63.62    2.96
   0   3  -2    3.93    2.04
   0  -3   2    1.27    1.16
  -1   3  -2   33.06    1.50
  -1   3  -2   31.30    1.51
  -1   3  -2   31.37    1.47
  -1   3  -2   33.16    1.73
   1  -3   2   28.95    1.32
   1  -3   2   28.99    1.32
   1  -3   2   29.06    1.35
   1  -3   2   28.08    1.33
  -2   3  -2   20.89    1.00
  -2   3  -2   21.49    1.03
  -2   3  -2   20.90    1.03
  -2   3  -2   21.75    1.28
   2  -3   2   20.21    0.95
   2  -3   2   20.51    1.00
   2  -3   2   20.38    0.95
   2  -3   2   20.23    0.99
   2  -3   2   19.56    0.97
  -3   3  -2   73.29    3.42
  -3   3  -2   74.83    3.83
  -3   3  -2   76.20    3.40
  -3   3  -2   75.21    3.45
   3  -3   2   68.11    3.21
   3  -3   2   71.95    3.26
   3  -3   2   73.22    3.22
   3  -3   2   72.35    3.37
   3  -3   2   68.59    3.26
  -4   3  -2   15.34    0.84
  -4   3  -2   18.31    0.84
   4  -3   2   15.68    0.81
   4  -3   2   14.31    0.81
   4  -3   2   13.76    0.88
   4  -3   2   16.29    0.83
   4  -3   2   15.55    0.94
   4  -3   2   14.33    0.81
   4  -3   2   15.66    0.77
   4  -3   2   17.18    1.58
   4  -3   2   14.59    0.79
   4  -3   2   15.94    1.00
  -5   3  -2   41.18    1.95
   5  -3   2   34.10    1.79
   5  -3   2   28.99    2.38
   5  -3   2   37.72    1.87
   5  -3   2   35.28    1.70
   5  -3   2   35.61    1.90
   5  -3   2   36.20    1.66
   6  -3   2    4.98    0.39
   6  -3   2    5.48    0.42
   6   2  -2    0.78    0.11
   6   2  -2    0.74    0.09
   6   2  -2    0.85    0.13
   6   2  -2    0.71    0.14
   5   2  -2    9.26    0.68
   5   2  -2    9.86    0.61
   5   2  -2    9.79    0.72
   5   2  -2    9.63    0.65
   5   2  -2    8.98    0.54
  -5  -2   2   12.82    0.70
  -5  -2   2   12.33    0.63
   4   2  -2   11.42    0.70
   4   2  -2   11.33    0.61
   4   2  -2   12.27    0.82
   4   2  -2   11.07    0.63
   4   2  -2   11.72    1.16
   4   2  -2   11.75    0.78
   4   2  -2   11.92    0.64
  -4  -2   2   18.98    0.92
  -4  -2   2   16.44    0.92
  -4  -2   2   17.18    0.90
   3   2  -2  103.50    4.63
   3   2  -2  108.59    4.63
   3   2  -2  101.01    5.27
   3   2  -2   99.36    4.63
   3   2  -2  100.76    4.65
  -3  -2   2  108.39    4.96
  -3  -2   2  111.33    4.99
   2   2  -2   31.08    1.45
   2   2  -2   30.60    1.43
   2   2  -2   31.75    1.87
   2   2  -2   31.12    1.44
  -2  -2   2   32.36    1.52
  -2  -2   2   31.62    1.51
  -2  -2   2   33.77    1.54
   1   2  -2   21.86    1.01
   1   2  -2   21.38    1.00
   1   2  -2   22.07    1.34
  -1  -2   2   24.04    1.14
  -1  -2   2   25.03    1.13
   0   2  -2   43.83    2.19
   0   2  -2   42.88    1.96
   0  -2   2   52.18    2.36
  -1   2  -2    1.06    1.44
   1  -2   2   -0.49    0.52
  -2   2  -2    6.68    0.33
  -2   2  -2    5.45    0.57
  -2   2  -2    7.19    0.37
   2  -2   2    7.99    0.40
   2  -2   2    7.73    0.42
   2  -2   2    9.75    0.53
   2  -2   2    7.46    0.40
  -3   2  -2  101.99    5.07
  -3   2  -2  116.99    4.93
   3  -2   2  100.31    4.82
   3  -2   2  112.75    4.90
   3  -2   2  104.87    4.87
   3  -2   2  108.20    4.89
   3  -2   2  112.06    4.85
  -4   2  -2   31.27    1.54
  -4   2  -2   30.74    1.44
   4  -2   2   24.25    1.33
   4  -2   2   27.69    1.33
   4  -2   2   27.99    1.31
   4  -2   2   26.39    1.46
  -5   2  -2   11.75    0.76
   5  -2   2    7.49    0.59
   5  -2   2    6.78    0.44
   5  -2   2    7.17    0.42
   5  -2   2    7.08    0.45
   5  -2   2    6.93    0.51
   5  -2   2    7.72    0.56
   5  -2   2    6.24    0.50
   6   1  -2   11.71    0.66
   6   1  -2   10.70    0.72
   6   1  -2   11.62    0.71
   5   1  -2   31.79    1.57
   5   1  -2   35.39    1.59
   5   1  -2   36.22    1.81
   5   1  -2   31.18    1.65
   5   1  -2   35.18    1.57
   5   1  -2   34.35    1.77
   5   1  -2   30.73    1.83
   5   1  -2   27.75    1.75
  -5  -1   2   37.07    1.95
  -5  -1   2   44.40    1.96
   4   1  -2   12.77    1.14
   4   1  -2   12.59    0.65
  -4  -1   2   12.51    0.65
   3   1  -2   15.24    1.16
   3   1  -2   16.10    0.77
   3   1  -2   15.86    0.75
   3   1  -2   15.87    0.79
  -3  -1   2   15.86    0.79
  -3  -1   2   15.62    0.83
  -3  -1   2   17.81    0.84
   2   1  -2   86.11    4.25
   2   1  -2   91.16    3.89
   2   1  -2   83.32    3.87
   2   1  -2   86.27    3.87
   2   1  -2   85.20    3.90
  -2  -1   2   92.83    4.32
  -2  -1   2   99.81    4.35
  -2  -1   2   96.35    4.31
   1   1  -2  133.05    6.17
   1   1  -2  131.59    5.89
  -1  -1   2  152.82    6.80
   0   1  -2    2.08    1.32
   0  -1   2  175.99   12.21
  -1   1  -2   27.86    1.48
  -1   1  -2   25.44    1.23
   1  -1   2   20.74    0.95
   1  -1   2   21.41    0.95
   1  -1   2   19.27    0.94
  -2   1  -2  239.94   10.69
   2  -1   2  228.70   10.01
   2  -1   2  218.27    9.98
   2  -1   2  225.40   10.00
  -3   1  -2  136.75    6.08
  -3   1  -2  127.02    6.65
  -3   1  -2  139.56    6.04
   3  -1   2  129.39    5.78
   3  -1   2  123.51    5.63
   3  -1   2  121.10    5.62
   3  -1   2  128.21    5.67
   3  -1   2  123.77    5.69
   3  -1   2  128.12    5.64
  -4   1  -2    0.85    0.43
   4  -1   2   10.99    0.57
   4  -1   2   11.08    0.62
   4  -1   2   10.63    0.59
  -5   1  -2   21.65    1.12
   5  -1   2   18.23    0.99
   5  -1   2   19.89    1.17
   5  -1   2   19.89    1.24
   5  -1   2   18.77    0.96
   5  -1   2   18.85    1.01
   5  -1   2   20.12    0.95
   6   0  -2   41.77    2.01
   6   0  -2   36.15    1.98
   6   0  -2   38.73    1.91
   6   0  -2   40.72    2.01
   5   0  -2    6.99    0.56
   5   0  -2    7.25    0.56
   5   0  -2    6.96    0.48
   5   0  -2    6.87    0.41
   5   0  -2    7.04    0.57
  -5   0   2    6.54    0.41
   4   0  -2   63.34    2.93
   4   0  -2   64.76    2.95
  -4   0   2   68.90    3.14
  -4   0   2   68.76    3.16
   3   0  -2   55.61    2.92
   3   0  -2   56.89    2.57
   3   0  -2   54.97    2.54
   3   0  -2   55.39    2.53
   3   0  -2   54.94    2.54
  -3   0   2   60.75    2.72
  -3   0   2   59.51    2.78
  -3   0   2   59.99    2.74
   2   0  -2   15.15    0.73
   2   0  -2   14.82    0.71
   2   0  -2   14.20    0.72
   2   0  -2   15.50    0.71
   2   0  -2   15.06    0.94
  -2   0   2   14.25    0.68
  -2   0   2   14.13    0.65
  -2   0   2   13.87    0.65
  -2   0   2   14.88    0.70
   1   0  -2  206.28   13.46
  -1   0   2  223.51   14.41
   0   0  -2  274.65   16.44
   0   0   2  269.61   16.23
  -1   0  -2  216.36   13.57
   1   0   2  204.84   12.93
  -2   0  -2  101.40    5.42
  -2   0  -2  114.79    5.01
  -2   0  -2  117.18    4.99
   2   0   2  106.96    4.77
   2   0   2  111.02    5.18
   2   0   2  104.52    4.74
   2   0   2  102.65    4.76
   2   0   2  106.67    4.76
   2   0   2  104.82    4.78
  -3   0  -2   11.77    0.58
  -3   0  -2   11.66    1.07
  -3   0  -2   11.57    0.60
   3   0   2    9.09    0.47
   3   0   2    9.64    0.52
   3   0   2    9.61    0.88
   3   0   2    9.26    0.49
   3   0   2    9.38    0.48
   3   0   2    9.07    0.48
  -4   0  -2   27.12    1.32
   4   0   2   23.48    1.14
   4   0   2   23.60    1.20
   4   0   2   23.41    1.14
   4   0   2   23.72    1.31
   5   0   2    6.27    0.50
   5   0   2    6.21    0.39
   5   0   2    5.64    0.36
   5   0   2    5.83    0.39
   5   0   2    6.53    0.58
   5   0   2    6.36    0.39
   5   0   2    6.38    0.42
   6  -1  -2   18.89    1.02
   6  -1  -2   18.31    1.08
   6  -1  -2   19.93    1.00
   6  -1  -2   19.14    1.09
   5  -1  -2   22.66    1.24
   5  -1  -2   23.26    1.31
   5  -1  -2   22.22    1.29
   5  -1  -2   21.39    1.27
   5  -1  -2   22.24    1.19
   5  -1  -2   21.58    1.23
   5  -1  -2   22.49    1.10
  -5   1   2   25.66    1.26
   4  -1  -2   40.82    1.92
   4  -1  -2   39.21    1.87
   4  -1  -2   40.40    1.87
   4  -1  -2   39.10    1.87
  -4   1   2   52.64    2.40
  -4   1   2   50.24    2.45
  -4   1   2   52.11    2.41
   3  -1  -2   63.75    2.85
   3  -1  -2   61.63    2.81
   3  -1  -2   59.14    2.81
   3  -1  -2   62.13    2.81
  -3   1   2   68.27    3.13
  -3   1   2   67.68    3.10
   2  -1  -2  172.40    7.33
   2  -1  -2  162.18    7.30
   2  -1  -2  158.64    7.45
   2  -1  -2  165.17    7.30
   2  -1  -2  158.74    7.30
  -2   1   2  181.05    7.76
  -2   1   2  168.43    7.70
  -2   1   2  172.56    7.75
  -2   1   2  176.99    7.75
  -2   1   2  167.39    7.70
   1  -1  -2  452.78   25.66
  -1   1   2  476.00   26.99
   0  -1  -2  358.95   21.31
   0   1   2  374.60   22.05
  -1  -1  -2    0.63    0.16
  -2  -1  -2   34.30    1.51
  -2  -1  -2   32.91    1.54
   2   1   2   27.92    1.34
   2   1   2   28.42    1.37
   2   1   2   29.46    1.34
   2   1   2   29.83    1.75
   2   1   2   28.72    1.34
  -3  -1  -2   59.73    3.05
  -3  -1  -2   63.61    3.76
  -3  -1  -2   74.50    3.02
   3   1   2   51.95    2.39
   3   1   2   51.03    2.44
   3   1   2   54.00    3.02
   3   1   2   52.22    2.42
   3   1   2   51.54    2.39
   3   1   2   52.36    2.44
  -4  -1  -2   10.31    0.59
  -4  -1  -2   10.66    0.55
   4   1   2    7.56    0.43
   4   1   2    7.43    0.46
   4   1   2    7.95    0.58
   4   1   2    7.44    0.57
   4   1   2    7.87    0.42
   4   1   2    6.48    0.67
   4   1   2    7.25    0.46
   4   1   2    6.65    0.98
  -5  -1  -2    1.79    0.15
   5   1   2    1.53    0.16
   5   1   2    1.68    0.23
   5   1   2    1.57    0.16
   5   1   2    1.68    0.28
   5   1   2    1.53    0.16
   5   1   2    1.50    0.17
   6   1   2    6.60    0.39
   6  -2  -2    1.78    0.18
   6  -2  -2    2.24    0.25
   6  -2  -2    2.13    0.22
   6  -2  -2    2.11    0.24
   6  -2  -2    2.13    0.26
  -6   2   2   -0.06    0.08
   5  -2  -2   12.93    0.80
   5  -2  -2   13.05    0.86
   5  -2  -2   11.74    0.79
   5  -2  -2   12.18    0.83
   5  -2  -2   11.55    0.76
   5  -2  -2   12.63    0.73
   5  -2  -2   10.66    0.73
   4  -2  -2   40.61    1.89
   4  -2  -2   41.22    1.88
   4  -2  -2   40.95    2.09
   4  -2  -2   35.86    2.04
   4  -2  -2   41.08    2.33
  -4   2   2   47.63    2.23
  -4   2   2   47.13    2.24
   3  -2  -2   51.56    2.46
   3  -2  -2   55.64    2.48
   3  -2  -2   54.56    2.48
  -3   2   2   66.30    3.03
  -3   2   2   65.23    3.02
   2  -2  -2  156.58    7.02
   2  -2  -2  166.85    7.05
   2  -2  -2  153.48    7.01
   2  -2  -2  150.25    7.00
  -2   2   2  163.89    7.49
  -2   2   2  177.47    7.53
  -2   2   2  162.98    7.49
   1  -2  -2  254.99   17.90
  -1   2   2  278.98   19.30
   0  -2  -2  122.74    5.14
   0  -2  -2  109.87    4.89
   0  -2  -2   96.19    4.90
   0   2   2  104.40    5.11
   0   2   2  116.44    4.94
   0   2   2  111.10    4.94
   0   2   2  109.34    4.94
  -1  -2  -2  109.93    5.10
  -1  -2  -2  116.70    5.08
   1   2   2  115.26    5.33
   1   2   2  109.05    4.98
   1   2   2  107.11    4.97
   1   2   2  112.88    5.00
  -2  -2  -2   93.43    4.37
  -2  -2  -2   94.70    4.36
  -2  -2  -2  101.63    4.34
   2   2   2   90.17    3.95
   2   2   2   86.28    3.92
   2   2   2   83.84    3.89
   2   2   2   83.20    3.95
   2   2   2   85.14    3.91
   2   2   2   91.12    4.44
  -3  -2  -2   94.78    4.31
  -3  -2  -2   94.23    4.29
   3   2   2   83.62    4.58
   3   2   2   84.49    3.87
   3   2   2   88.10    4.09
   3   2   2   84.64    3.93
   3   2   2   85.96    3.89
  -4  -2  -2    8.04    0.47
  -4  -2  -2    8.05    0.49
   4   2   2    5.59    0.36
   4   2   2    5.75    0.35
   4   2   2    5.97    0.41
   4   2   2    6.55    0.85
   4   2   2    5.99    0.51
   4   2   2    5.36    0.49
   4   2   2    5.17    0.37
   4   2   2    5.59    0.69
  -5  -2  -2   11.23    0.59
  -5  -2  -2   11.71    0.70
  -5  -2  -2   11.62    0.64
   5   2   2   11.08    0.78
   5   2   2   10.95    0.62
   5   2   2   11.08    0.63
   5   2   2   10.48    0.62
   5   2   2   11.53    0.75
   5   2   2   12.01    0.83
   5   2   2   11.62    0.67
   5   2   2   11.32    0.86
   5   2   2   11.49    0.78
   5   2   2   11.14    0.70
   6   2   2    5.44    0.47
   6   2   2    5.61    0.33
   6  -3  -2   14.01    0.78
   6  -3  -2   12.53    0.81
   6  -3  -2   12.17    0.78
   6  -3  -2   13.08    0.71
   6  -3  -2   14.11    0.79
  -6   3   2   -0.12    0.06
   5  -3  -2   32.45    1.72
   5  -3  -2   33.25    1.80
   5  -3  -2   32.56    1.59
   5  -3  -2   34.22    1.77
   5  -3  -2   31.44    1.65
   5  -3  -2   32.72    1.81
   5  -3  -2   33.60    1.60
  -5   3   2   39.40    1.95
  -5   3   2   41.06    1.96
   4  -3  -2   27.40    1.34
   4  -3  -2   28.27    2.53
   4  -3  -2   27.84    1.41
   4  -3  -2   29.34    1.33
   4  -3  -2   22.87    1.79
  -4   3   2   28.16    1.42
  -4   3   2   29.32    1.44
   3  -3  -2   23.52    1.13
   3  -3  -2   23.09    1.12
   3  -3  -2   22.84    1.15
  -3   3   2   24.94    1.23
  -3   3   2   25.17    1.25
   2  -3  -2   50.75    2.28
   2  -3  -2   48.61    2.25
   2  -3  -2   48.15    2.23
   2  -3  -2   49.04    2.26
  -2   3   2   50.22    2.32
  -2   3   2   52.17    2.39
  -2   3   2   50.45    2.35
   1  -3  -2  147.04    6.85
   1  -3  -2  160.34    6.87
   1  -3  -2  150.14    6.87
   1  -3  -2  156.59    6.88
  -1   3   2  150.60    6.55
  -1   3   2  152.50    6.63
  -1   3   2  137.35    6.57
   0  -3  -2   55.71    2.49
   0  -3  -2   58.13    2.49
   0  -3  -2   51.68    2.50
   0   3   2   55.79    2.46
   0   3   2   53.35    2.46
   0   3   2   52.78    2.68
   0   3   2   55.79    2.49
  -1  -3  -2   10.69    0.56
  -1  -3  -2   11.19    0.58
  -1  -3  -2   13.49    0.96
   1   3   2    9.82    0.53
   1   3   2    9.96    0.50
   1   3   2   10.47    0.49
   1   3   2    9.53    0.53
   1   3   2   10.03    0.80
   1   3   2    9.93    0.50
  -2  -3  -2  140.94    6.62
  -2  -3  -2  149.70    6.63
  -2  -3  -2  151.12    6.66
   2   3   2  144.60    6.36
   2   3   2  143.14    6.98
   2   3   2  138.33    6.41
   2   3   2  140.54    6.37
  -3  -3  -2   63.78    2.87
  -3  -3  -2   60.57    2.90
  -3  -3  -2   62.74    2.92
   3   3   2   56.21    3.41
   3   3   2   58.93    2.89
   3   3   2   58.19    2.73
   3   3   2   57.70    2.67
   3   3   2   56.83    2.66
  -4  -3  -2   14.07    0.77
  -4  -3  -2   13.98    0.72
   4   3   2    9.86    0.60
   4   3   2   10.83    0.61
   4   3   2   10.66    0.60
   4   3   2   10.41    0.76
   4   3   2   10.31    0.63
   4   3   2   10.09    0.60
   4   3   2   11.15    0.85
   4   3   2   10.42    0.78
   4   3   2   10.71    0.75
   4   3   2    9.85    0.56
  -5  -3  -2   13.50    0.70
   5   3   2    9.54    0.60
   5   3   2   10.82    0.82
   5   3   2    9.92    0.56
   5   3   2   10.98    0.78
   5   3   2    9.80    0.58
   5   3   2    9.60    0.71
   5   3   2    9.95    0.57
   5   3   2    9.41    0.70
   6   3   2    8.01    0.42
   6   3   2    7.38    0.49
   6   3   2    7.70    0.42
   6  -4  -2    8.48    0.54
   6  -4  -2    8.35    0.56
   6  -4  -2    8.36    0.55
  -6   4   2   -0.11    0.34
  -6   4   2    0.02    0.09
   5  -4  -2    9.81    0.70
   5  -4  -2    8.70    0.64
   5  -4  -2    8.59    0.63
   5  -4  -2    8.69    0.67
   5  -4  -2    8.47    0.63
  -5   4   2   10.51    0.61
  -5   4   2    7.60    1.22
   4  -4  -2   15.02    0.96
   4  -4  -2   14.81    0.82
   4  -4  -2   16.39    1.01
   4  -4  -2   14.96    0.94
   4  -4  -2   14.70    0.85
   4  -4  -2   14.47    0.78
   4  -4  -2   13.52    0.89
   4  -4  -2   14.36    0.95
  -4   4   2    9.24    1.69
   3  -4  -2   24.58    1.22
   3  -4  -2   25.26    1.27
   3  -4  -2   25.27    1.23
  -3   4   2   24.23    1.31
  -3   4   2   27.01    1.27
   2  -4  -2    3.08    0.21
   2  -4  -2    3.20    0.21
   2  -4  -2    3.22    0.23
  -2   4   2    2.78    0.20
  -2   4   2    2.51    0.23
   1  -4  -2   40.51    1.86
   1  -4  -2   41.27    1.88
   1  -4  -2   42.31    1.90
   1  -4  -2   39.08    1.88
  -1   4   2   36.92    1.73
  -1   4   2   39.06    1.75
  -1   4   2   37.32    1.82
   0  -4  -2   32.73    1.51
   0  -4  -2   32.85    1.51
   0  -4  -2   32.36    1.51
   0   4   2   38.32    1.76
   0   4   2   36.94    1.73
   0   4   2   37.45    1.99
   0   4   2   37.69    1.73
  -1  -4  -2   38.42    1.95
  -1  -4  -2   44.04    1.94
  -1  -4  -2   38.90    1.89
  -1  -4  -2   42.72    2.42
   1   4   2   35.78    1.69
   1   4   2   36.15    2.13
   1   4   2   35.21    1.69
   1   4   2   37.17    1.74
   1   4   2   37.62    1.74
  -2  -4  -2   22.01    1.08
  -2  -4  -2   20.65    1.11
  -2  -4  -2   22.77    1.07
   2   4   2   20.24    1.03
   2   4   2   20.59    1.08
   2   4   2   21.72    1.59
   2   4   2   20.66    1.03
   2   4   2   22.12    1.21
  -3  -4  -2   41.57    1.93
  -3  -4  -2   38.52    1.95
   3   4   2   36.26    1.62
   3   4   2   31.04    1.66
   3   4   2   35.63    1.86
   3   4   2   31.85    1.63
   3   4   2   34.40    1.95
   3   4   2   33.59    1.86
   3   4   2   32.03    1.64
   3   4   2   33.93    1.68
   3   4   2   35.13    1.63
  -4  -4  -2    1.18    0.13
  -4  -4  -2    1.14    0.15
  -4  -4  -2    1.04    0.16
  -4  -4  -2    1.27    0.16
   4   4   2    1.58    0.19
   4   4   2    1.47    0.23
   4   4   2    1.43    0.16
   4   4   2    1.52    0.24
   4   4   2    1.60    0.26
   4   4   2    1.58    0.17
   4   4   2    1.84    0.18
   4   4   2    1.37    0.16
   4   4   2    1.49    0.15
   4   4   2    1.60    0.29
  -5  -4  -2   12.04    0.64
   5   4   2   11.81    0.86
   5   4   2   10.98    0.67
   5   4   2   11.18    0.77
   5   4   2   11.59    0.65
   5   4   2   12.04    0.81
   5   4   2   12.25    0.64
   6   4   2    0.87    0.08
   6   4   2    0.89    0.14
   6   4   2    0.79    0.08
   6  -5  -2   15.85    0.90
   6  -5  -2   16.80    0.88
   6  -5  -2   13.38    0.85
   6  -5  -2   17.11    0.86
  -6   5   2    0.39    0.28
   5  -5  -2    4.57    0.41
   5  -5  -2    4.90    0.40
   5  -5  -2    4.44    0.34
   5  -5  -2    4.21    0.41
   5  -5  -2    5.04    0.46
   5  -5  -2    4.19    0.40
   4  -5  -2    3.61    0.53
   4  -5  -2    3.58    0.36
   4  -5  -2    3.77    0.27
   4  -5  -2    3.52    0.38
   4  -5  -2    3.67    0.27
   4  -5  -2    3.34    0.33
   4  -5  -2    3.60    0.39
   4  -5  -2    3.14    0.33
  -4   5   2    1.67    0.80
   3  -5  -2    5.38    1.08
   3  -5  -2    5.17    0.39
   3  -5  -2    5.38    0.47
   3  -5  -2    6.02    0.35
   3  -5  -2    4.49    0.41
   3  -5  -2    6.00    0.35
   3  -5  -2    4.85    0.44
   3  -5  -2    5.54    0.50
   3  -5  -2    5.36    0.47
  -3   5   2    6.88    0.41
  -3   5   2    5.65    0.44
   2  -5  -2   15.74    0.80
   2  -5  -2   15.52    0.80
   2  -5  -2   15.85    0.82
  -2   5   2   15.60    0.92
  -2   5   2   18.19    0.87
   1  -5  -2   21.05    1.04
   1  -5  -2   22.06    1.06
  -1   5   2   19.12    0.95
  -1   5   2   19.53    0.93
  -1   5   2   18.59    0.91
  -1   5   2   18.19    1.01
   0  -5  -2   14.25    0.72
   0  -5  -2   15.02    0.73
   0   5   2   16.60    0.90
   0   5   2   18.48    0.89
   0   5   2   17.74    0.85
  -1  -5  -2    7.25    0.42
  -1  -5  -2    7.53    0.39
  -1  -5  -2    7.01    0.46
  -1  -5  -2    7.17    0.40
  -1  -5  -2    6.14    0.76
   1   5   2    9.11    0.54
   1   5   2   10.12    0.69
   1   5   2    9.04    0.86
   1   5   2    8.37    0.49
   1   5   2    8.79    0.49
  -2  -5  -2  100.68    4.67
  -2  -5  -2   93.58    6.37
  -2  -5  -2  105.22    4.59
  -2  -5  -2  101.79    4.63
   2   5   2   99.00    4.68
   2   5   2   97.38    4.48
   2   5   2   97.25    4.46
  -3  -5  -2   23.51    1.27
  -3  -5  -2   27.25    1.29
  -3  -5  -2   26.09    1.37
  -3  -5  -2   26.54    1.32
   3   5   2   23.10    1.36
   3   5   2   23.79    1.22
   3   5   2   22.92    1.14
   3   5   2   23.47    1.49
   3   5   2   21.77    1.16
   3   5   2   21.21    1.20
   3   5   2   24.30    1.16
   3   5   2   22.07    1.16
   3   5   2   21.91    1.37
   3   5   2   21.33    1.14
   3   5   2   21.00    1.11
   3   5   2   24.21    1.34
  -4  -5  -2    9.56    1.10
  -4  -5  -2    9.21    0.59
  -4  -5  -2    8.36    0.55
  -4  -5  -2    9.55    0.58
  -4  -5  -2    8.37    0.52
   4   5   2    6.07    0.40
   4   5   2    8.06    0.53
   4   5   2    7.20    0.66
   4   5   2    7.05    0.57
   4   5   2    7.03    0.59
   4   5   2    6.76    0.45
   4   5   2    6.65    0.44
   4   5   2    6.76    0.61
   4   5   2    6.47    0.55
   4   5   2    6.56    0.43
   4   5   2    6.59    0.47
   4   5   2    6.98    0.43
   5   5   2    1.71    0.16
   5   5   2    1.76    0.15
   5   5   2    1.56    0.22
   5   5   2    1.44    0.20
   5   5   2    1.47    0.23
   6  -6  -2   14.25    0.79
   6  -6  -2   15.15    0.78
   6  -6  -2   13.52    0.76
  -6   6   2    0.24    0.27
   5  -6  -2    4.84    0.59
   5  -6  -2    5.53    0.44
   5  -6  -2    5.49    0.52
   5  -6  -2    4.73    0.34
   4  -6  -2   11.71    0.83
   4  -6  -2   11.04    0.76
   4  -6  -2   11.31    0.61
   4  -6  -2   11.21    0.63
   4  -6  -2   11.73    0.64
   4  -6  -2   11.87    0.83
   4  -6  -2   10.81    0.68
   4  -6  -2   10.79    0.72
   4  -6  -2   10.88    0.80
   3  -6  -2    3.01    0.32
   3  -6  -2    2.90    0.24
   3  -6  -2    2.77    0.29
   3  -6  -2    3.16    0.29
   3  -6  -2    3.41    0.37
   3  -6  -2    3.01    0.36
   3  -6  -2    3.40    0.39
   3  -6  -2    3.11    0.25
   3  -6  -2    3.00    0.23
   2  -6  -2   27.48    1.36
   2  -6  -2   29.83    1.64
   2  -6  -2   26.56    1.44
   2  -6  -2   28.33    1.40
   2  -6  -2   29.09    1.38
   2  -6  -2   29.40    1.57
   2  -6  -2   26.55    1.37
   1  -6  -2  109.00    4.93
   1  -6  -2  108.03    4.95
  -1   6   2  118.52    5.26
  -1   6   2  113.66    5.24
   0  -6  -2   16.48    0.83
   0   6   2   15.06    0.77
  -1  -6  -2    0.52    0.09
  -1  -6  -2    0.63    0.12
  -1  -6  -2    0.43    0.07
  -1  -6  -2    0.41    0.08
   1   6   2    0.17    0.05
   1   6   2    0.31    0.10
   1   6   2    0.35    0.13
   1   6   2    0.03    0.08
  -2  -6  -2    2.45    0.26
  -2  -6  -2    2.61    0.21
  -2  -6  -2    2.32    0.24
  -2  -6  -2    2.61    0.22
  -2  -6  -2    2.11    0.25
   2   6   2    2.76    0.33
   2   6   2    2.37    0.20
   2   6   2    2.34    0.33
   2   6   2    2.33    0.20
   2   6   2    2.47    0.24
   2   6   2    2.55    0.34
   2   6   2    2.24    0.23
   2   6   2    2.62    0.23
   2   6   2    2.49    0.31
   2   6   2    2.37    0.36
   2   6   2    2.40    0.25
  -3  -6  -2   23.95    1.21
  -3  -6  -2   22.86    1.18
  -3  -6  -2   22.16    1.39
  -3  -6  -2   23.58    1.24
  -3  -6  -2   25.31    1.46
   3   6   2   24.17    1.36
   3   6   2   24.38    1.26
   3   6   2   24.10    1.26
   3   6   2   24.72    1.32
   3   6   2   25.32    1.51
   3   6   2   23.82    1.22
   3   6   2   26.62    1.60
   3   6   2   25.14    1.46
   3   6   2   23.09    1.31
   3   6   2   26.52    1.43
   3   6   2   24.01    1.24
  -4  -6  -2   19.81    0.99
  -4  -6  -2   18.70    1.01
   4   6   2   15.09    0.89
   4   6   2   17.63    1.15
   4   6   2   18.15    1.00
   4   6   2   15.14    0.98
   4   6   2   16.27    1.07
   4   6   2   15.77    0.85
   4   6   2   16.41    0.85
   4   6   2   15.70    1.02
   4   6   2   16.62    0.87
  -5  -6  -2    3.14    0.36
   5   6   2    3.50    0.22
   5   6   2    3.32    0.21
   5   6   2    3.05    0.29
   5   6   2    2.38    0.28
   5   6   2    2.37    0.24
   5  -7  -2    4.62    0.37
   5  -7  -2    4.41    0.37
   5  -7  -2    3.40    0.32
   5  -7  -2    4.25    0.33
   4  -7  -2    4.72    0.30
   4  -7  -2    4.46    0.44
   4  -7  -2    4.45    0.38
   4  -7  -2    4.29    0.35
   4  -7  -2    4.98    0.45
   4  -7  -2    4.77    0.41
   4  -7  -2    4.45    0.45
   3  -7  -2   23.99    1.43
   3  -7  -2   24.97    1.23
   3  -7  -2   25.75    1.50
   3  -7  -2   25.75    1.46
   3  -7  -2   23.84    1.33
   3  -7  -2   24.15    1.37
   3  -7  -2   25.86    1.33
   3  -7  -2   23.75    1.25
   2  -7  -2    5.35    0.39
   2  -7  -2    5.64    0.50
   2  -7  -2    5.94    0.56
   2  -7  -2    5.73    0.43
   2  -7  -2    6.08    0.50
   2  -7  -2    5.98    0.38
   2  -7  -2    5.39    0.37
  -2   7   2    6.25    0.50
  -2   7   2    6.53    0.60
   1  -7  -2   16.02    1.05
   1  -7  -2   14.30    0.80
   1  -7  -2   15.10    0.80
  -1   7   2   18.69    1.34
  -1   7   2   17.96    1.03
  -1   7   2   16.85    1.14
  -1   7   2   17.43    0.89
   0  -7  -2   43.56    2.10
   0  -7  -2   45.69    2.48
   0   7   2   45.14    2.42
   0   7   2   45.46    2.18
   0   7   2   48.39    2.47
  -1  -7  -2   36.00    2.06
  -1  -7  -2   33.23    1.62
  -1  -7  -2   32.78    1.70
  -1  -7  -2   32.55    1.65
  -1  -7  -2   35.25    1.90
   1   7   2   32.06    1.84
   1   7   2   30.15    1.55
   1   7   2   30.21    1.57
   1   7   2   32.00    1.63
   1   7   2   29.96    1.76
  -2  -7  -2   43.29    2.63
  -2  -7  -2   46.63    2.27
  -2  -7  -2   46.93    2.21
  -2  -7  -2   48.18    2.36
  -2  -7  -2   48.79    2.22
  -2  -7  -2   45.19    2.20
   2   7   2   46.23    2.15
   2   7   2   47.60    2.37
   2   7   2   42.99    2.13
   2   7   2   45.42    2.26
   2   7   2   45.02    2.33
   2   7   2   45.70    2.48
   2   7   2   42.47    2.12
   2   7   2   43.15    2.17
   2   7   2   45.02    2.21
   2   7   2   44.67    2.41
  -3  -7  -2   10.69    0.92
  -3  -7  -2    9.57    0.57
  -3  -7  -2    9.70    0.55
  -3  -7  -2    9.93    0.69
  -3  -7  -2    9.54    0.60
   3   7   2    8.12    0.56
   3   7   2    8.70    0.53
   3   7   2    8.12    0.57
   3   7   2    9.44    0.77
   3   7   2    8.08    0.61
   3   7   2    8.83    0.66
   3   7   2    8.84    0.51
   3   7   2    8.60    0.70
   3   7   2    8.68    0.52
  -4  -7  -2   12.08    0.65
  -4  -7  -2   11.84    0.92
  -4  -7  -2   11.93    0.66
  -4  -7  -2   13.13    1.34
   4   7   2   12.34    0.87
   4   7   2   11.36    0.69
   4   7   2   12.88    0.83
   4   7   2   12.07    0.64
   4   7   2   12.32    0.75
   4   7   2   12.37    0.65
   5  -8  -2    2.10    0.20
   5  -8  -2    1.60    0.22
   5  -8  -2    1.96    0.18
  -5   8   2    1.32    0.17
   4  -8  -2    1.04    0.18
   4  -8  -2    1.24    0.16
   4  -8  -2    0.99    0.17
   4  -8  -2    1.08    0.16
   4  -8  -2    1.32    0.12
   4  -8  -2    1.32    0.20
   3  -8  -2   11.23    0.79
   3  -8  -2    8.97    0.71
   3  -8  -2   11.15    0.61
   3  -8  -2    9.60    0.74
   3  -8  -2   11.29    0.59
   3  -8  -2   10.96    0.69
  -3   8   2   11.85    0.88
  -3   8   2   11.48    0.74
   2  -8  -2    9.24    0.56
   2  -8  -2    8.84    0.66
   2  -8  -2   10.02    0.75
   2  -8  -2    8.47    0.53
   2  -8  -2    8.96    0.70
   2  -8  -2    9.75    0.54
  -2   8   2    9.39    0.76
  -2   8   2    9.27    0.70
  -2   8   2    9.80    0.66
   1  -8  -2    0.15    0.06
   1  -8  -2    0.17    0.07
   1  -8  -2    0.21    0.09
   1  -8  -2    0.24    0.10
   1  -8  -2    0.26    0.13
   1  -8  -2    0.21    0.50
  -1   8   2    0.48    0.16
  -1   8   2    0.49    0.14
  -1   8   2    0.16    0.11
  -1   8   2    0.59    0.20
   0  -8  -2   27.94    1.72
   0  -8  -2   28.88    1.67
   0  -8  -2   29.14    1.47
   0  -8  -2   28.39    1.42
   0  -8  -2   28.69    1.48
   0   8   2   28.65    1.64
   0   8   2   29.43    1.52
   0   8   2   27.73    1.46
   0   8   2   27.41    1.52
   0   8   2   28.73    1.62
  -1  -8  -2    7.67    0.63
  -1  -8  -2    7.68    0.46
  -1  -8  -2    7.23    0.50
  -1  -8  -2    7.14    0.69
   1   8   2    6.34    0.59
   1   8   2    6.46    0.46
   1   8   2    6.49    0.40
   1   8   2    6.61    0.50
   1   8   2    6.34    0.58
   1   8   2    6.45    0.57
  -2  -8  -2   41.18    1.99
  -2  -8  -2   40.28    2.34
  -2  -8  -2   39.86    1.93
   2   8   2   37.29    2.04
   2   8   2   39.93    1.88
   2   8   2   38.17    1.90
   2   8   2   32.96    1.75
   2   8   2   38.07    2.12
  -3  -8  -2    0.80    0.10
  -3  -8  -2    0.88    0.10
  -3  -8  -2    0.90    0.25
  -3  -8  -2    0.96    0.13
   3   8   2    1.02    0.11
   3   8   2    1.13    0.24
   3   8   2    1.02    0.14
   3   8   2    1.07    0.11
   3   8   2    1.06    0.15
   3   8   2    1.14    0.24
  -4  -8  -2    1.54    0.14
  -4  -8  -2    1.47    0.23
   4   8   2    1.30    0.17
   4   8   2    1.21    0.17
   4   8   2    1.43    0.19
   4   8   2    1.38    0.11
   4  -9  -2    1.16    0.15
  -4   9   2    1.98    0.23
  -4   9   2    1.35    0.25
  -4   9   2    1.90    0.23
   3  -9  -2    5.17    0.45
   3  -9  -2    5.14    0.32
   3  -9  -2    4.51    0.44
   3  -9  -2    5.45    0.32
   3  -9  -2    5.32    0.42
  -3   9   2    5.72    0.47
  -3   9   2    4.95    0.40
  -3   9   2    6.24    0.52
   2  -9  -2   19.56    1.19
   2  -9  -2   18.00    0.97
   2  -9  -2   18.46    0.95
  -2   9   2   19.46    1.12
  -2   9   2   20.70    1.26
   1  -9  -2   16.88    1.09
   1  -9  -2   17.49    0.89
   1  -9  -2   16.71    0.92
  -1   9   2   16.48    0.99
  -1   9   2   17.44    1.09
   0  -9  -2   42.84    2.39
   0  -9  -2   44.72    2.17
   0  -9  -2   46.06    2.36
   0  -9  -2   44.12    2.11
   0   9   2   41.07    2.23
   0   9   2   42.24    2.20
   0   9   2   43.97    2.15
  -1  -9  -2   23.60    1.20
  -1  -9  -2   22.68    1.44
  -1  -9  -2   22.83    1.14
  -1  -9  -2   22.10    1.49
   1   9   2   21.79    1.19
   1   9   2   20.30    1.26
   1   9   2   22.92    1.20
  -2  -9  -2    1.24    0.24
  -2  -9  -2    1.09    0.14
  -2  -9  -2    1.11    0.12
   2   9   2    0.53    0.10
   2   9   2    0.71    0.16
   2   9   2    0.64    0.14
  -3  -9  -2    4.80    0.30
   3   9   2    2.69    0.30
   3 -10  -2   11.49    0.56
   3 -10  -2   10.67    0.68
  -3  10   2   10.36    0.61
  -3  10   2   12.16    0.72
   2 -10  -2    6.21    0.36
   2 -10  -2    6.26    0.40
   2 -10  -2    6.47    0.50
  -2  10   2    5.44    0.50
  -2  10   2    7.06    0.44
   1 -10  -2    0.28    0.11
   1 -10  -2    0.44    0.09
   1 -10  -2    0.42    0.07
  -1  10   2    0.16    0.08
  -1  10   2    0.14    0.06
   0 -10  -2    8.67    0.49
   0 -10  -2    6.83    0.55
   0 -10  -2    8.60    0.46
   0  10   2    6.93    0.58
   0  10   2    7.99    0.51
  -1 -10  -2   21.93    1.10
  -1 -10  -2   21.69    1.27
   1  10   2   17.36    1.00
   1  10   2   20.55    1.08
  -2 -10  -2   11.21    0.54
  -2 -10  -2    8.32    0.71
   2  10   2    6.66    0.50
   2  10   2    6.83    0.41
   1 -11  -2    0.43    0.09
   1 -11  -2    0.39    0.05
  -1  11   2    0.60    0.09
   0 -11  -2    7.65    0.42
   0  11   2    8.60    0.49
  -2 -11   3    1.27    0.19
   1  11  -3    2.48    0.25
   1  11  -3    2.25    0.19
  -1 -11   3    3.64    0.39
   0  11  -3    4.05    0.37
   0 -11   3    5.55    0.52
   0 -11   3    4.89    0.32
  -1  11  -3    4.64    0.38
  -1  11  -3    4.36    0.39
   1 -11   3    5.94    0.34
   1 -11   3    6.41    0.46
   1 -11   3    6.03    0.52
  -2  11  -3    1.00    0.15
  -2  11  -3    0.87    0.14
   2 -11   3    0.85    0.08
   2 -11   3    0.88    0.10
   2 -11   3    0.63    0.13
   3  10  -3    4.24    0.29
  -3 -10   3    5.66    0.46
   2  10  -3    0.75    0.14
   2  10  -3    0.57    0.10
  -2 -10   3    1.46    0.25
  -2 -10   3    1.18    0.13
   1  10  -3    4.76    0.36
   1  10  -3    4.56    0.43
  -1 -10   3    5.30    0.55
  -1 -10   3    4.70    0.31
  -1 -10   3    4.70    0.32
   0  10  -3    6.80    0.51
   0  10  -3    6.11    0.52
   0  10  -3    7.13    0.58
   0 -10   3    8.01    0.48
   0 -10   3    6.77    0.67
  -1  10  -3    5.60    0.49
  -1  10  -3    5.22    0.49
   1 -10   3    3.92    0.46
   1 -10   3    4.21    0.28
   1 -10   3    4.41    0.32
  -2  10  -3    3.58    0.37
  -2  10  -3    3.17    0.37
   2 -10   3    4.17    0.44
   2 -10   3    4.34    0.28
   2 -10   3    4.05    0.37
  -3  10  -3    5.72    0.47
  -3  10  -3    4.18    0.39
  -3  10  -3    5.24    0.38
   3 -10   3    5.21    0.31
   3 -10   3    5.33    0.34
   3 -10   3    5.08    0.45
   3 -10   3    5.50    0.38
  -4  10  -3    2.54    0.25
   4 -10   3    1.88    0.19
   4 -10   3    2.04    0.14
   4   9  -3    3.54    0.30
   3   9  -3    1.50    0.22
   3   9  -3    1.68    0.14
   3   9  -3    1.84    0.19
   3   9  -3    1.65    0.18
   3   9  -3    1.66    0.21
  -3  -9   3    3.26    0.40
  -3  -9   3    3.02    0.30
  -3  -9   3    3.10    0.25
   2   9  -3    2.94    0.22
   2   9  -3    2.90    0.34
   2   9  -3    3.02    0.28
  -2  -9   3    3.29    0.27
  -2  -9   3    3.62    0.47
   1   9  -3    9.06    0.66
   1   9  -3    7.47    0.83
   1   9  -3    7.87    0.66
  -1  -9   3    8.07    0.78
  -1  -9   3    8.31    0.64
   0   9  -3    1.52    0.16
   0   9  -3    1.61    0.20
   0   9  -3    1.75    0.27
   0   9  -3    1.77    0.27
   0  -9   3    1.80    0.17
   0  -9   3    1.90    0.19
   0  -9   3    1.86    0.19
   0  -9   3    1.96    0.34
   0  -9   3    2.15    0.21
  -1   9  -3   65.90    3.37
  -1   9  -3   66.32    3.09
  -1   9  -3   67.12    3.37
   1  -9   3   69.57    3.29
   1  -9   3   66.03    3.24
   1  -9   3   73.11    3.69
   1  -9   3   70.04    3.23
   2  -9   3   28.76    1.55
   2  -9   3   29.96    1.60
   2  -9   3   28.13    1.46
   2  -9   3   31.20    1.66
   2  -9   3   28.37    1.75
   3  -9   3    1.17    0.17
   3  -9   3    1.23    0.21
   3  -9   3    1.13    0.21
   3  -9   3    1.35    0.16
   3  -9   3    1.27    0.13
   3  -9   3    1.24    0.44
   3  -9   3    1.11    0.27
   3  -9   3    1.41    0.19
  -4   9  -3    2.26    0.25
  -4   9  -3    2.25    0.28
  -4   9  -3    1.77    0.21
   4  -9   3    1.89    0.23
   4  -9   3    1.51    0.19
   4  -9   3    2.11    0.22
   4  -9   3    2.03    0.25
   4  -9   3    1.96    0.17
   4  -9   3    2.06    0.16
   4   8  -3   11.84    0.82
   4   8  -3   14.87    0.70
   4   8  -3   14.22    0.76
   4   8  -3   13.53    0.83
   4   8  -3   13.30    0.79
  -4  -8   3   17.45    0.87
   3   8  -3    1.89    0.29
   3   8  -3    2.10    0.25
   3   8  -3    2.75    0.31
   3   8  -3    2.67    0.21
   3   8  -3    2.37    0.30
   3   8  -3    2.68    0.26
   3   8  -3    2.33    0.19
   3   8  -3    2.65    0.24
  -3  -8   3    2.23    0.36
  -3  -8   3    2.12    0.20
  -3  -8   3    2.34    0.23
   2   8  -3    0.57    0.10
   2   8  -3    0.43    0.15
   2   8  -3    0.49    0.16
   2   8  -3    0.34    0.08
   2   8  -3    0.50    0.11
   2   8  -3    0.50    0.11
   2   8  -3    0.64    0.13
   2   8  -3    0.78    0.17
  -2  -8   3    0.76    0.13
  -2  -8   3    0.93    0.15
  -2  -8   3    0.86    0.24
   1   8  -3   26.32    1.45
   1   8  -3   29.67    1.79
   1   8  -3   25.58    1.38
   1   8  -3   28.81    1.36
   1   8  -3   28.83    1.59
  -1  -8   3   30.21    2.12
  -1  -8   3   29.49    1.54
  -1  -8   3   31.72    1.58
  -1  -8   3   32.85    1.53
   0   8  -3    0.39    0.09
   0   8  -3    0.54    0.15
   0   8  -3    0.60    0.16
   0   8  -3    0.46    0.11
   0  -8   3    0.55    0.21
   0  -8   3    0.36    0.08
   0  -8   3    0.32    0.09
   0  -8   3    0.56    0.11
   0  -8   3    0.44    0.09
  -1   8  -3   46.96    2.19
  -1   8  -3   47.20    2.49
  -1   8  -3   41.74    2.32
  -1   8  -3   49.97    2.50
   1  -8   3   42.68    2.26
   1  -8   3   46.90    2.37
   1  -8   3   44.78    2.41
   1  -8   3   44.78    2.19
   1  -8   3   43.81    2.14
   1  -8   3   49.02    2.58
   1  -8   3   44.20    2.15
   2  -8   3    3.04    0.24
   2  -8   3    2.88    0.26
   2  -8   3    3.04    0.36
   2  -8   3    3.52    0.40
   2  -8   3    2.70    0.23
   2  -8   3    2.58    0.30
  -3   8  -3    3.34    0.42
  -3   8  -3    3.04    0.37
  -3   8  -3    4.09    0.39
   3  -8   3    2.69    0.22
   3  -8   3    2.68    0.30
   3  -8   3    2.44    0.34
   3  -8   3    1.91    0.48
   3  -8   3    2.47    0.36
   3  -8   3    2.55    0.29
   3  -8   3    2.67    0.34
   3  -8   3    2.39    0.23
   4  -8   3    3.23    0.26
   4  -8   3    3.47    0.37
   4  -8   3    3.40    0.33
   4  -8   3    3.30    0.24
   4  -8   3    2.63    0.30
   4  -8   3    3.70    0.38
   5  -8   3   10.91    0.67
   5  -8   3   11.83    0.67
   5  -8   3    9.81    0.68
   5  -8   3   11.77    0.59
   5  -8   3   12.11    0.58
   5   7  -3    5.90    0.41
   5   7  -3    5.69    0.30
   5   7  -3    4.36    0.33
   5   7  -3    5.71    0.31
   4   7  -3   10.54    0.64
   4   7  -3   10.07    0.56
   4   7  -3    9.41    0.67
   4   7  -3    9.78    0.55
   4   7  -3   10.14    0.71
   4   7  -3   10.64    0.74
  -4  -7   3   11.76    0.90
  -4  -7   3   14.04    0.75
  -4  -7   3   13.43    0.70
   3   7  -3    0.54    0.16
   3   7  -3    0.42    0.10
   3   7  -3    0.41    0.18
   3   7  -3    0.77    0.16
   3   7  -3    0.45    0.08
   3   7  -3    0.47    0.11
   3   7  -3    0.58    0.15
   3   7  -3    0.44    0.09
   3   7  -3    0.45    0.12
  -3  -7   3    0.83    0.14
  -3  -7   3    0.95    0.22
  -3  -7   3    0.84    0.22
  -3  -7   3    0.81    0.13
  -3  -7   3    0.86    0.11
   2   7  -3   62.00    2.95
   2   7  -3   58.80    2.81
   2   7  -3   57.91    2.83
   2   7  -3   61.78    3.19
   2   7  -3   62.61    3.10
   2   7  -3   63.09    3.06
   2   7  -3   57.87    3.04
   2   7  -3   61.95    3.00
  -2  -7   3   72.71    3.49
  -2  -7   3   74.94    3.54
  -2  -7   3   76.30    3.48
  -2  -7   3   74.29    3.61
  -2  -7   3   77.87    3.97
   1   7  -3   57.28    2.85
   1   7  -3   60.12    3.06
   1   7  -3   63.01    2.83
   1   7  -3   63.81    2.94
  -1  -7   3   66.05    3.31
  -1  -7   3   71.26    3.19
   0   7  -3   54.79    3.32
   0   7  -3   55.64    2.60
   0   7  -3   57.74    2.86
   0  -7   3   62.26    2.93
   0  -7   3   61.48    2.98
   0  -7   3   65.67    3.36
  -1   7  -3   30.35    1.74
  -1   7  -3   30.39    1.48
  -1   7  -3   31.24    1.73
   1  -7   3   30.40    1.79
   1  -7   3   27.73    1.47
   1  -7   3   28.32    1.42
   1  -7   3   31.07    1.68
  -2   7  -3    6.73    0.41
  -2   7  -3    7.17    0.60
  -2   7  -3    6.76    0.51
  -2   7  -3    6.77    0.61
   2  -7   3    5.40    0.46
   2  -7   3    5.86    0.53
   2  -7   3    6.16    0.38
   2  -7   3    6.26    0.38
   2  -7   3    6.05    0.52
   2  -7   3    5.60    0.65
   2  -7   3    6.09    0.54
  -3   7  -3   36.45    1.79
  -3   7  -3   36.50    2.45
  -3   7  -3   38.66    1.93
  -3   7  -3   37.93    2.11
   3  -7   3   36.61    2.31
   3  -7   3   30.92    1.79
   3  -7   3   33.21    1.88
   3  -7   3   35.75    1.90
   3  -7   3   32.33    1.63
   3  -7   3   33.53    1.62
   3  -7   3   32.03    1.79
   3  -7   3   32.72    1.67
   3  -7   3   35.91    2.67
   3  -7   3   31.84    1.63
   4  -7   3   35.39    1.70
   4  -7   3   35.66    1.74
   4  -7   3   35.33    1.93
   4  -7   3   34.19    1.98
   4  -7   3   35.49    1.95
   4  -7   3   34.67    1.88
   4  -7   3   35.02    1.86
  -5   7  -3    0.13    0.05
  -5   7  -3    0.10    0.31
   5  -7   3    0.15    0.07
   5  -7   3    0.13    0.07
   5  -7   3    0.14    0.08
   5  -7   3    0.15    0.04
   5  -7   3    0.16    0.15
   5  -7   3    0.15    0.07
   5  -7   3    0.17    0.05
   5   6  -3    0.37    0.11
   5   6  -3    0.33    0.09
   5   6  -3    0.23    0.11
   5   6  -3    0.37    0.06
   5   6  -3    0.52    0.09
   5   6  -3    0.35    0.06
   5   6  -3    0.38    0.09
  -5  -6   3    0.34    0.07
  -5  -6   3    0.49    0.07
   4   6  -3   27.77    1.74
   4   6  -3   27.35    1.58
   4   6  -3   26.21    1.62
  -4  -6   3   48.61    2.12
  -4  -6   3   37.85    2.18
   3   6  -3   17.65    0.98
   3   6  -3   17.01    0.88
   3   6  -3   16.25    0.88
   3   6  -3   18.00    0.99
   3   6  -3   16.38    0.89
   3   6  -3   15.98    1.08
   3   6  -3   16.88    1.12
   3   6  -3   15.14    1.06
   3   6  -3   18.60    1.18
   3   6  -3   16.82    1.05
   3   6  -3   17.35    0.91
   3   6  -3   17.76    1.05
  -3  -6   3   21.73    1.10
  -3  -6   3   20.60    1.42
  -3  -6   3   22.28    1.21
  -3  -6   3   21.10    1.09
   2   6  -3   29.78    1.55
   2   6  -3   33.51    1.54
   2   6  -3   33.21    1.65
   2   6  -3   30.88    1.69
   2   6  -3   33.65    1.79
   2   6  -3   31.57    1.81
   2   6  -3   33.41    1.55
  -2  -6   3   41.95    1.92
  -2  -6   3   39.67    2.27
  -2  -6   3   38.72    1.94
  -2  -6   3   39.66    1.89
  -2  -6   3   39.18    1.92
  -2  -6   3   38.69    1.99
   1   6  -3   28.65    1.45
   1   6  -3   31.98    1.47
   1   6  -3   32.05    2.18
  -1  -6   3   33.43    1.58
  -1  -6   3   31.16    1.66
  -1  -6   3   34.90    1.59
  -1  -6   3   33.48    1.62
   0   6  -3   20.88    2.08
   0   6  -3   20.48    1.01
   0  -6   3   23.32    1.16
   0  -6   3   24.57    1.20
  -1   6  -3   83.40    4.90
  -1   6  -3  102.98    4.28
  -1   6  -3   95.81    4.38
   1  -6   3  106.10    4.76
   1  -6   3  103.62    4.81
   2  -6   3   29.90    1.42
   2  -6   3   29.92    1.41
   2  -6   3   27.97    1.46
   3  -6   3   35.19    1.93
   3  -6   3   36.20    1.77
   3  -6   3   35.46    1.79
   3  -6   3   35.13    1.83
   3  -6   3   41.75    2.88
   3  -6   3   37.17    1.97
   3  -6   3   38.14    1.81
   3  -6   3   37.71    2.29
   3  -6   3   35.62    2.03
   3  -6   3   41.66    2.08
   4  -6   3   16.55    1.02
   4  -6   3   17.87    1.20
   4  -6   3   16.34    0.88
   4  -6   3   16.43    0.92
   4  -6   3   18.22    1.14
   4  -6   3   15.55    1.64
   4  -6   3   17.81    1.09
   4  -6   3   16.06    1.08
   4  -6   3   18.00    1.08
   5  -6   3   10.12    0.68
   5  -6   3    9.71    0.74
   5  -6   3   10.98    0.73
   5  -6   3   10.65    0.88
   5  -6   3   10.87    0.58
   5  -6   3   11.47    0.70
  -6   6  -3    0.33    0.37
   6  -6   3    6.63    0.50
   6  -6   3    6.13    0.43
   6   5  -3    4.41    0.33
   6   5  -3    4.47    0.25
  -6  -5   3   29.00    1.99
   5   5  -3    7.19    0.42
   5   5  -3    7.32    0.58
   5   5  -3    5.97    0.62
   5   5  -3    6.80    0.47
   5   5  -3    6.40    0.50
   5   5  -3    7.69    0.44
   4   5  -3   22.58    1.34
   4   5  -3   20.86    1.11
   4   5  -3   22.67    1.23
   4   5  -3   22.86    1.30
   4   5  -3   23.01    1.17
   4   5  -3   22.35    1.14
   4   5  -3   22.72    1.37
  -4  -5   3   26.08    1.38
  -4  -5   3   28.87    1.36
   3   5  -3   18.67    1.33
   3   5  -3   18.29    0.94
   3   5  -3   21.48    1.27
   3   5  -3   15.20    1.14
   3   5  -3   16.57    1.05
   3   5  -3   19.13    1.18
   3   5  -3   18.83    1.12
  -3  -5   3   25.34    1.27
  -3  -5   3   24.25    1.57
  -3  -5   3   26.19    1.26
  -3  -5   3   26.11    1.37
   2   5  -3   17.15    0.88
   2   5  -3   16.92    1.49
   2   5  -3   20.38    1.16
   2   5  -3   16.99    0.90
  -2  -5   3   23.22    1.13
  -2  -5   3   23.67    1.14
  -2  -5   3   22.86    1.22
  -2  -5   3   22.52    1.16
   1   5  -3   32.98    1.51
   1   5  -3   28.27    1.54
   1   5  -3   32.98    1.51
   1   5  -3   34.52    2.16
  -1  -5   3   35.79    1.69
  -1  -5   3   36.44    1.72
   0   5  -3    6.12    0.72
   0   5  -3    6.99    0.47
   0   5  -3    6.35    0.35
   0  -5   3    6.32    0.38
   0  -5   3    6.50    0.36
  -1   5  -3   21.87    1.03
  -1   5  -3   21.35    1.10
  -1   5  -3   21.06    1.06
  -1   5  -3   21.00    1.42
   1  -5   3   19.81    0.97
   1  -5   3   19.66    1.00
   1  -5   3   20.05    0.96
  -2   5  -3   68.04    3.09
  -2   5  -3   66.92    3.17
   2  -5   3   64.40    2.95
   2  -5   3   64.42    2.97
   2  -5   3   66.05    3.01
   2  -5   3   62.70    3.01
   3  -5   3   43.41    2.28
   3  -5   3   44.91    2.09
   3  -5   3   41.34    2.08
   3  -5   3   46.80    2.07
   3  -5   3   39.91    2.17
   3  -5   3   44.56    2.10
   3  -5   3   40.85    2.04
   3  -5   3   44.17    2.22
   3  -5   3   43.15    2.02
   4  -5   3   34.22    1.90
   4  -5   3   33.58    1.67
   4  -5   3   35.31    1.87
   4  -5   3   32.74    1.84
   4  -5   3   33.86    1.65
   4  -5   3   35.59    2.00
   4  -5   3   32.04    1.69
   4  -5   3   32.74    1.94
   4  -5   3   32.69    1.63
   5  -5   3   33.03    1.80
   5  -5   3   33.31    1.80
   5  -5   3   32.75    1.86
   5  -5   3   33.88    1.77
   5  -5   3   34.75    1.63
   5  -5   3   34.98    1.67
  -6   5  -3   -0.24    0.34
   6  -5   3    0.02    0.04
   6  -5   3    0.04    0.07
   6  -5   3   -0.01    0.04
   6  -5   3    0.00    0.03
   6  -5   3    0.01    0.03
   6   4  -3    7.85    0.56
   6   4  -3    9.25    0.45
   6   4  -3    7.75    0.55
   6   4  -3    8.63    0.49
   6   4  -3    8.73    0.51
   5   4  -3   29.67    1.76
   5   4  -3   34.85    1.77
   5   4  -3   33.91    1.66
   5   4  -3   33.34    1.57
   5   4  -3   30.22    1.69
   5   4  -3   31.94    1.53
  -5  -4   3   43.31    2.13
  -5  -4   3   46.01    2.10
   4   4  -3    9.25    0.61
   4   4  -3    9.19    0.55
   4   4  -3    9.11    0.67
   4   4  -3    9.49    0.86
   4   4  -3    9.80    0.56
   4   4  -3    9.66    0.69
   4   4  -3    9.86    0.74
   4   4  -3    9.18    0.53
   4   4  -3    9.05    0.70
  -4  -4   3   11.10    0.67
  -4  -4   3   11.01    0.59
  -4  -4   3   10.16    0.60
   3   4  -3   23.90    1.24
   3   4  -3   26.76    1.54
   3   4  -3   25.35    1.96
  -3  -4   3   26.42    1.28
  -3  -4   3   26.95    1.30
  -3  -4   3   27.36    1.37
  -3  -4   3   25.42    1.36
   2   4  -3   27.28    1.26
   2   4  -3   27.18    1.89
   2   4  -3   26.31    1.29
   2   4  -3   26.45    1.28
  -2  -4   3   29.63    1.45
  -2  -4   3   30.59    1.43
  -2  -4   3   29.90    1.42
  -2  -4   3   30.22    1.49
   1   4  -3  170.19    7.32
   1   4  -3  154.58    7.33
   1   4  -3  164.96    7.30
  -1  -4   3  186.21    8.46
  -1  -4   3  182.36    8.49
  -1  -4   3  196.56    8.43
   0   4  -3  150.56    7.00
   0   4  -3  148.72    6.54
   0   4  -3  137.17    6.51
   0  -4   3  148.97    6.78
   0  -4   3  153.85    6.82
   0  -4   3  151.59    6.78
  -1   4  -3  144.05    6.57
  -1   4  -3  147.86    6.54
  -1   4  -3  143.73    6.60
  -1   4  -3  147.90    6.97
   1  -4   3  144.52    6.28
   1  -4   3  142.73    6.26
   1  -4   3  138.73    6.28
   1  -4   3  131.12    6.24
  -2   4  -3    9.14    0.88
  -2   4  -3    8.05    0.49
  -2   4  -3    7.66    0.47
   2  -4   3    7.56    0.41
   2  -4   3    7.79    0.46
   2  -4   3    8.06    0.44
   2  -4   3    7.99    0.46
   3  -4   3    5.03    0.33
   3  -4   3    4.50    0.27
   3  -4   3    4.49    0.28
   3  -4   3    4.18    0.30
   3  -4   3    4.52    0.32
   4  -4   3   26.67    1.39
   4  -4   3   27.86    1.38
   4  -4   3   30.08    1.72
   4  -4   3   28.17    1.41
   4  -4   3   28.46    1.61
   4  -4   3   26.76    1.36
   4  -4   3   28.24    1.54
   4  -4   3   27.54    2.24
   4  -4   3   25.79    1.48
   5  -4   3    8.17    0.69
   5  -4   3    7.71    0.51
   5  -4   3    7.57    0.49
   5  -4   3    7.63    0.63
   5  -4   3    7.68    0.66
   6  -4   3    5.30    0.45
   6  -4   3    5.73    0.33
   6  -4   3    5.57    0.31
   6  -4   3    5.11    0.41
   6  -4   3    5.55    0.49
   6   3  -3    3.99    0.28
   6   3  -3    3.46    0.30
   6   3  -3    3.28    0.26
   6   3  -3    3.77    0.30
   6   3  -3    3.17    0.31
  -6  -3   3    5.23    0.41
  -6  -3   3    5.62    0.47
   5   3  -3    1.76    0.26
   5   3  -3    1.72    0.25
   5   3  -3    1.33    0.31
   5   3  -3    1.82    0.25
   5   3  -3    1.67    0.25
   5   3  -3    1.60    0.20
   5   3  -3    1.60    0.16
  -5  -3   3    1.55    0.18
  -5  -3   3    1.56    0.19
   4   3  -3   16.86    0.97
   4   3  -3   17.47    0.87
   4   3  -3   16.24    1.09
   4   3  -3   17.40    1.07
   4   3  -3   18.09    1.19
   4   3  -3   16.19    0.89
   4   3  -3   17.12    1.06
   4   3  -3   17.38    0.90
   4   3  -3   17.07    1.03
  -4  -3   3   22.21    1.13
  -4  -3   3   22.09    1.16
  -4  -3   3   22.66    1.09
   3   3  -3    4.19    0.44
   3   3  -3    4.72    0.28
   3   3  -3    4.48    0.65
   3   3  -3    4.39    0.29
  -3  -3   3    4.83    0.29
  -3  -3   3    4.03    0.42
  -3  -3   3    4.93    0.31
  -3  -3   3    5.23    0.33
   2   3  -3   54.26    2.55
   2   3  -3   55.84    2.53
   2   3  -3   54.87    2.51
   2   3  -3   54.75    2.53
   2   3  -3   57.47    3.13
  -2  -3   3   61.61    2.82
  -2  -3   3   60.40    2.76
  -2  -3   3   58.80    2.78
   1   3  -3   19.36    1.00
   1   3  -3   24.33    1.50
   1   3  -3   22.15    1.03
   1   3  -3   20.62    1.02
   1   3  -3   21.74    1.01
  -1  -3   3   21.27    1.00
  -1  -3   3   20.33    0.99
  -1  -3   3   20.90    1.04
   0   3  -3   73.44    3.34
   0   3  -3   76.32    3.36
   0   3  -3   75.41    3.73
   0   3  -3   72.21    3.34
   0  -3   3   85.81    3.86
   0  -3   3   87.97    3.88
   0  -3   3   83.66    3.87
  -1   3  -3   82.33    4.16
  -1   3  -3   91.55    3.91
  -1   3  -3   83.24    3.83
  -1   3  -3   81.00    3.80
   1  -3   3   87.43    3.97
   1  -3   3   89.59    4.00
   1  -3   3   87.46    3.97
   1  -3   3   89.20    3.99
  -2   3  -3    0.71    0.07
  -2   3  -3    0.62    0.17
  -2   3  -3    0.52    0.09
  -2   3  -3    0.57    0.08
   2  -3   3    0.98    0.10
   2  -3   3    0.98    0.09
   2  -3   3    0.78    0.08
   2  -3   3    0.91    0.10
   2  -3   3    0.97    0.10
  -3   3  -3   13.65    1.13
  -3   3  -3   15.05    0.73
  -3   3  -3   14.80    0.76
   3  -3   3   12.64    0.69
   3  -3   3   13.22    0.66
   3  -3   3   13.31    0.76
   3  -3   3   13.30    0.72
  -4   3  -3   39.85    1.96
  -4   3  -3   42.65    1.95
   4  -3   3   38.68    2.10
   4  -3   3   37.88    1.88
   4  -3   3   43.12    2.83
   4  -3   3   37.67    2.19
   4  -3   3   39.12    1.84
   4  -3   3   38.85    1.91
   5  -3   3   14.55    0.79
   5  -3   3   13.47    0.85
   5  -3   3   14.48    0.91
   5  -3   3   14.83    0.92
   5  -3   3   14.59    1.02
   5  -3   3   14.12    0.75
   5  -3   3   14.69    0.97
   5  -3   3   13.75    0.74
   5  -3   3   14.22    0.77
  -6   3  -3    1.13    0.14
   6  -3   3    7.56    0.44
   6  -3   3    6.49    0.50
   6  -3   3    8.01    0.44
   6   2  -3    3.61    0.31
   6   2  -3    3.30    0.21
   6   2  -3    2.74    0.29
   6   2  -3    2.50    0.33
   6   2  -3    3.17    0.26
   5   2  -3    4.63    0.45
   5   2  -3    4.93    0.32
   5   2  -3    5.06    0.39
   5   2  -3    4.70    0.50
   5   2  -3    5.48    0.35
   5   2  -3    4.84    0.33
   5   2  -3    5.27    0.45
   5   2  -3    4.96    0.41
   5   2  -3    5.26    0.49
  -5  -2   3    7.20    0.46
  -5  -2   3    7.64    0.42
  -5  -2   3    7.82    0.48
   4   2  -3    8.32    0.69
   4   2  -3    7.94    0.57
   4   2  -3    7.85    0.45
   4   2  -3    8.35    0.62
   4   2  -3    7.82    0.48
  -4  -2   3    9.47    0.52
  -4  -2   3   10.18    0.60
  -4  -2   3    9.73    0.56
   3   2  -3   50.05    2.45
   3   2  -3   55.30    2.43
   3   2  -3   53.30    3.11
  -3  -2   3   64.62    2.97
  -3  -2   3   63.47    2.94
   2   2  -3    1.94    0.14
   2   2  -3    1.83    0.33
   2   2  -3    1.80    0.12
   2   2  -3    1.93    0.12
   2   2  -3    1.86    0.13
  -2  -2   3    1.44    0.10
  -2  -2   3    1.76    0.14
  -2  -2   3    1.61    0.12
   1   2  -3   49.05    2.15
   1   2  -3   45.67    2.16
   1   2  -3   48.55    2.52
   1   2  -3   46.22    2.14
  -1  -2   3   60.15    2.67
  -1  -2   3   57.93    2.69
   0   2  -3    2.25    0.14
   0   2  -3    1.88    0.12
   0   2  -3    2.04    0.27
   0   2  -3    2.19    0.12
   0  -2   3    1.94    0.11
   0  -2   3    1.76    0.11
   0  -2   3    1.67    0.12
   0  -2   3    1.73    0.12
  -1   2  -3   12.31    0.63
  -1   2  -3   12.89    0.60
  -1   2  -3   12.47    0.62
  -1   2  -3   12.48    0.87
   1  -2   3   10.93    0.51
   1  -2   3    9.96    0.52
   1  -2   3   10.56    0.52
  -2   2  -3   66.51    3.00
  -2   2  -3   57.45    2.95
  -2   2  -3   74.98    3.52
  -2   2  -3   63.67    2.99
   2  -2   3   64.20    2.93
   2  -2   3   62.56    2.97
   2  -2   3   67.26    2.98
   2  -2   3   65.63    3.00
   2  -2   3   66.65    2.95
  -3   2  -3    7.05    0.39
   3  -2   3    7.77    0.46
   3  -2   3    8.25    0.45
   3  -2   3    8.37    0.48
   3  -2   3    8.06    0.43
  -4   2  -3   40.72    1.89
  -4   2  -3   39.85    1.90
   4  -2   3   37.49    1.88
   4  -2   3   41.33    2.12
   4  -2   3   39.46    2.04
   4  -2   3   40.30    1.93
   4  -2   3   37.66    1.91
   4  -2   3   40.26    1.86
   4  -2   3   40.82    2.22
   4  -2   3   39.93    1.90
   4  -2   3   39.95    2.71
  -5   2  -3    3.26    0.24
  -5   2  -3    3.68    0.28
   5  -2   3    2.54    0.26
   5  -2   3    2.71    0.25
   5  -2   3    2.82    0.24
   5  -2   3    3.08    0.36
   5  -2   3    2.86    0.23
   5  -2   3    3.07    0.32
   5  -2   3    3.09    0.39
   5  -2   3    3.61    0.24
   6  -2   3    4.55    0.26
   6  -2   3    4.55    0.34
   6  -2   3    3.74    0.34
   6   1  -3    4.11    0.36
   6   1  -3    4.55    0.37
   6   1  -3    3.89    0.36
   6   1  -3    4.61    0.33
   6   1  -3    4.25    0.26
  -6  -1   3    0.19    0.08
   5   1  -3   32.19    1.65
   5   1  -3   30.03    1.56
   5   1  -3   33.21    1.77
   5   1  -3   31.70    1.77
   5   1  -3   34.12    1.63
   5   1  -3   33.99    1.82
  -5  -1   3   41.05    1.93
  -5  -1   3   43.61    2.03
  -5  -1   3   39.83    2.13
   4   1  -3    1.64    0.19
   4   1  -3    2.08    0.40
   4   1  -3    1.42    0.16
   4   1  -3    1.97    0.16
   4   1  -3    1.59    0.24
   4   1  -3    1.77    0.24
   4   1  -3    2.20    0.27
   4   1  -3    1.87    0.16
  -4  -1   3    2.51    0.17
  -4  -1   3    2.50    0.21
   3   1  -3   28.70    1.83
   3   1  -3   28.69    1.37
   3   1  -3   28.27    1.35
  -3  -1   3   34.36    1.68
  -3  -1   3   35.43    1.64
  -3  -1   3   36.44    1.81
   2   1  -3   42.33    2.25
   2   1  -3   40.37    1.81
   2   1  -3   37.78    1.82
   2   1  -3   37.87    1.77
  -2  -1   3   38.08    1.75
  -2  -1   3   38.21    1.75
  -2  -1   3   39.67    1.83
  -2  -1   3   40.35    1.79
   1   1  -3  175.83    8.10
   1   1  -3  166.89    7.77
   1   1  -3  180.69    7.76
  -1  -1   3  187.07    7.97
  -1  -1   3  171.35    7.99
   0   1  -3  145.27    6.35
   0   1  -3  139.50    6.36
  -1   1  -3    0.59    0.06
  -1   1  -3    0.68    0.06
   1  -1   3    0.63    0.05
   1  -1   3    0.51    0.06
   1  -1   3    0.73    0.06
  -2   1  -3   10.83    0.56
  -2   1  -3   10.62    0.55
  -2   1  -3   12.34    0.97
  -2   1  -3   11.49    0.58
   2  -1   3   10.73    0.54
   2  -1   3   11.03    0.58
   2  -1   3   11.29    0.54
   2  -1   3   10.72    0.54
   2  -1   3   11.04    0.56
  -3   1  -3   33.79    1.67
  -3   1  -3   36.44    1.70
  -3   1  -3   39.79    1.85
   3  -1   3   32.26    1.47
   3  -1   3   28.19    1.56
   3  -1   3   30.09    1.46
   3  -1   3   33.18    1.53
   3  -1   3   32.91    1.47
   4  -1   3   24.72    1.25
   4  -1   3   25.31    1.93
   4  -1   3   25.81    1.22
   4  -1   3   27.22    1.48
   4  -1   3   24.00    1.27
   4  -1   3   27.22    1.57
   4  -1   3   24.66    1.29
   4  -1   3   23.93    1.24
  -5   1  -3    0.31    0.07
   5  -1   3    0.19    0.12
   5  -1   3    0.27    0.07
   5  -1   3    0.20    0.09
   5  -1   3    0.24    0.07
   5  -1   3    0.34    0.12
   6   0  -3   12.36    0.79
   6   0  -3   13.76    0.72
   6   0  -3   11.25    0.76
   6   0  -3   13.26    0.80
  -6   0   3    0.01    0.08
   5   0  -3    5.17    0.46
   5   0  -3    4.94    0.45
   5   0  -3    4.69    0.45
   5   0  -3    4.71    0.31
   5   0  -3    4.66    0.40
   5   0  -3    4.84    0.49
   5   0  -3    4.88    0.38
   5   0  -3    4.44    0.30
  -5   0   3    6.64    0.57
  -5   0   3    6.31    0.41
   4   0  -3    0.81    0.19
   4   0  -3    0.60    0.13
   4   0  -3    0.56    0.13
   4   0  -3    0.53    0.13
   4   0  -3    0.43    0.09
   4   0  -3    0.65    0.11
   4   0  -3    0.65    0.10
  -4   0   3    0.80    0.08
  -4   0   3    0.89    0.11
  -4   0   3    0.79    0.10
   3   0  -3   17.77    0.87
   3   0  -3   17.68    1.20
   3   0  -3   17.73    0.88
  -3   0   3   17.81    0.89
  -3   0   3   18.38    0.91
   2   0  -3  101.09    4.80
   2   0  -3  102.45    4.51
   2   0  -3   94.89    4.47
  -2   0   3  107.19    4.88
  -2   0   3  112.26    4.92
  -2   0   3  104.86    4.86
   1   0  -3  105.67    4.80
   1   0  -3  108.68    4.79
   1   0  -3  106.71    5.03
  -1   0   3  124.91    5.59
  -1   0   3  124.40    5.58
   0   0  -3  273.08   18.41
   0   0   3  289.11   19.22
  -1   0  -3   87.25    4.96
  -1   0  -3  108.52    4.63
  -1   0  -3  114.18    4.65
   1   0   3  120.72    5.43
   1   0   3  120.09    5.44
   1   0   3  120.87    5.46
   1   0   3  125.69    5.47
  -2   0  -3   57.38    2.61
  -2   0  -3   57.16    2.61
  -2   0  -3   57.00    2.63
   2   0   3   49.22    2.22
   2   0   3   47.72    2.22
   2   0   3   49.59    2.68
   2   0   3   51.60    2.25
   2   0   3   48.69    2.23
   2   0   3   47.24    2.19
   2   0   3   45.97    2.35
  -3   0  -3   91.30    4.26
  -3   0  -3   97.40    5.12
  -3   0  -3   94.53    4.28
   3   0   3   81.03    3.76
   3   0   3   81.40    3.71
   3   0   3   81.68    3.71
   3   0   3   82.90    3.73
  -4   0  -3    7.65    0.43
  -4   0  -3    8.17    0.46
   4   0   3    7.48    0.58
   4   0   3    7.24    0.44
   4   0   3    7.88    0.58
   4   0   3    8.42    0.62
   4   0   3    8.02    0.44
   4   0   3    7.82    0.49
   4   0   3    7.75    0.44
   4   0   3    7.27    0.45
   4   0   3    7.81    0.68
   4   0   3    7.17    0.47
  -5   0  -3   27.00    1.30
   5   0   3   24.51    1.28
   5   0   3   25.91    1.44
   5   0   3   25.83    1.45
   5   0   3   25.80    1.32
   5   0   3   27.22    1.26
   5   0   3   26.85    1.59
   5   0   3   25.41    1.28
   5   0   3   25.16    1.25
   6   0   3    4.81    0.51
   6  -1  -3   11.72    0.65
   6  -1  -3   12.66    0.76
   6  -1  -3    9.69    0.71
   6  -1  -3   10.52    0.70
   6  -1  -3   11.70    0.67
  -6   1   3    0.00    0.07
   5  -1  -3   19.81    1.15
   5  -1  -3   19.25    1.03
   5  -1  -3   21.09    1.22
   5  -1  -3   19.89    1.14
   5  -1  -3   19.22    1.20
   5  -1  -3   21.73    1.25
   5  -1  -3   20.95    1.11
  -5   1   3   26.39    1.34
   4  -1  -3    0.41    0.11
   4  -1  -3    0.42    0.13
   4  -1  -3    0.40    0.07
   4  -1  -3    0.21    0.10
   4  -1  -3    0.34    0.09
   4  -1  -3    0.63    0.16
   4  -1  -3    0.36    0.07
   4  -1  -3    0.35    0.13
  -4   1   3    0.87    0.18
  -4   1   3    0.92    0.12
  -4   1   3    0.70    0.11
   3  -1  -3   18.71    0.93
   3  -1  -3   17.74    0.89
   3  -1  -3   18.73    0.91
   3  -1  -3   18.01    0.90
  -3   1   3   24.98    1.21
  -3   1   3   25.03    1.22
  -3   1   3   24.11    1.24
   2  -1  -3   10.32    0.54
   2  -1  -3   10.93    0.53
   2  -1  -3   10.50    0.68
   2  -1  -3   10.80    0.54
   2  -1  -3   10.98    0.56
  -2   1   3    9.73    0.53
  -2   1   3    9.77    0.52
   1  -1  -3  215.20   16.29
  -1   1   3  239.47   18.58
   0  -1  -3  315.86   21.15
   0   1   3  345.58   22.70
  -1  -1  -3   42.06    1.95
  -1  -1  -3   40.97    1.97
  -1  -1  -3   44.96    2.38
   1   1   3   39.94    1.81
   1   1   3   41.36    1.83
   1   1   3   39.31    2.15
   1   1   3   38.44    1.81
   1   1   3   39.22    1.81
  -2  -1  -3   89.12    4.07
  -2  -1  -3   92.58    4.07
  -2  -1  -3   87.97    4.09
   2   1   3   87.23    3.86
   2   1   3   83.23    3.90
   2   1   3   84.64    3.87
   2   1   3   83.95    3.86
   2   1   3   85.48    3.90
   2   1   3   88.73    4.42
  -3  -1  -3   12.78    0.64
  -3  -1  -3   12.68    0.64
  -3  -1  -3   10.43    1.15
   3   1   3   13.23    0.70
   3   1   3   13.49    0.74
   3   1   3   14.28    0.69
   3   1   3   13.13    0.69
   3   1   3   13.89    0.86
   3   1   3   14.16    1.23
  -4  -1  -3   54.23    2.54
  -4  -1  -3   54.43    2.56
   4   1   3   50.66    2.59
   4   1   3   49.99    2.35
   4   1   3   52.48    2.96
   4   1   3   49.17    2.42
   4   1   3   49.51    2.56
   4   1   3   50.96    2.37
   4   1   3   52.56    2.59
   4   1   3   49.02    2.69
  -5  -1  -3    6.25    0.38
  -5  -1  -3    5.87    0.35
   5   1   3    4.86    0.44
   5   1   3    4.50    0.33
   5   1   3    4.96    0.44
   5   1   3    4.91    0.45
   5   1   3    4.93    0.34
   5   1   3    4.95    0.52
   5   1   3    5.61    0.43
   5   1   3    4.81    0.34
   5   1   3    5.64    0.37
   6   1   3    3.26    0.28
   6   1   3    2.64    0.24
   6   1   3    2.37    0.29
   6  -2  -3   15.74    0.91
   6  -2  -3   14.93    0.90
   6  -2  -3   14.01    0.84
   6  -2  -3   15.42    0.81
   6  -2  -3   15.19    0.85
  -6   2   3   -0.06    0.08
   5  -2  -3    2.24    0.23
   5  -2  -3    2.10    0.26
   5  -2  -3    2.02    0.28
   5  -2  -3    2.00    0.27
   5  -2  -3    2.16    0.29
   5  -2  -3    2.12    0.26
   5  -2  -3    2.30    0.19
  -5   2   3    4.06    0.32
  -5   2   3    3.68    0.29
   4  -2  -3    2.87    0.21
   4  -2  -3    3.02    0.33
   4  -2  -3    2.94    0.31
   4  -2  -3    2.28    0.43
   4  -2  -3    3.01    0.22
   4  -2  -3    2.51    0.68
   4  -2  -3    2.64    0.46
  -4   2   3    3.35    0.24
  -4   2   3    2.85    0.25
   3  -2  -3   56.50    2.62
   3  -2  -3   57.42    2.66
   3  -2  -3   58.86    2.63
   3  -2  -3   55.02    2.61
  -3   2   3   67.57    3.17
  -3   2   3   66.95    3.14
  -3   2   3   70.23    3.18
   2  -2  -3  121.31    5.49
   2  -2  -3  127.30    5.51
   2  -2  -3  123.31    5.52
   2  -2  -3  117.26    5.49
  -2   2   3  137.99    6.31
  -2   2   3  136.97    6.28
  -2   2   3  143.40    6.28
   1  -2  -3  358.12   16.06
   0  -2  -3   19.21    1.12
   0  -2  -3   17.52    0.82
   0  -2  -3   16.96    0.85
   0   2   3   21.50    1.01
   0   2   3   21.33    1.01
   0   2   3   21.35    0.98
  -1  -2  -3  182.70    7.99
  -1  -2  -3  161.73    7.46
  -1  -2  -3  155.66    7.49
   1   2   3  155.23    6.92
   1   2   3  147.88    6.90
   1   2   3  156.69    6.89
   1   2   3  155.47    6.91
   1   2   3  155.54    7.33
  -2  -2  -3   21.81    1.14
  -2  -2  -3   22.25    1.12
  -2  -2  -3   26.35    1.76
   2   2   3   20.70    1.01
   2   2   3   20.95    1.47
   2   2   3   20.64    1.02
   2   2   3   19.93    0.97
   2   2   3   19.39    0.96
   2   2   3   20.09    0.99
  -3  -2  -3   24.65    1.22
  -3  -2  -3   24.95    1.23
   3   2   3   25.32    1.20
   3   2   3   23.68    1.25
   3   2   3   25.16    1.22
   3   2   3   24.89    1.40
  -4  -2  -3   68.25    3.21
  -4  -2  -3   68.83    3.22
  -4  -2  -3   69.15    3.17
   4   2   3   60.92    2.77
   4   2   3   58.30    3.00
   4   2   3   56.46    2.81
   4   2   3   56.68    2.79
   4   2   3   61.34    2.85
   4   2   3   55.33    2.80
   4   2   3   62.29    2.80
   4   2   3   65.03    3.19
   4   2   3   61.24    3.15
   4   2   3   60.51    3.03
  -5  -2  -3   14.21    0.79
  -5  -2  -3   14.33    0.73
   5   2   3   10.99    0.77
   5   2   3   11.31    0.86
   5   2   3   11.40    0.68
   5   2   3   10.07    0.58
   5   2   3   10.95    0.62
   5   2   3   11.17    0.62
   5   2   3   10.65    0.65
   5   2   3   10.75    0.76
   6   2   3    0.35    0.08
   6   2   3    0.41    0.10
   6  -3  -3    7.03    0.47
   6  -3  -3    7.32    0.47
   6  -3  -3    6.76    0.50
   6  -3  -3    5.94    0.44
   6  -3  -3    6.56    0.48
   5  -3  -3    4.02    0.50
   5  -3  -3    3.61    0.31
   5  -3  -3    3.94    0.40
   5  -3  -3    3.45    0.34
   5  -3  -3    3.59    0.38
   5  -3  -3    3.39    0.35
  -5   3   3    5.66    0.42
   4  -3  -3   34.98    1.95
   4  -3  -3   37.39    1.83
   4  -3  -3   36.51    1.74
   4  -3  -3   37.20    1.75
   4  -3  -3   37.46    1.98
   4  -3  -3   36.88    1.93
   4  -3  -3   32.58    1.86
   4  -3  -3   38.76    1.98
  -4   3   3   42.75    2.05
  -4   3   3   42.28    2.08
   3  -3  -3   21.31    1.10
   3  -3  -3   23.10    1.12
   3  -3  -3   24.02    1.27
  -3   3   3   23.14    1.20
  -3   3   3   23.28    1.30
  -3   3   3   22.56    1.14
   2  -3  -3  119.60    5.33
   2  -3  -3  117.64    5.32
   2  -3  -3  115.74    5.30
  -2   3   3  133.79    6.00
  -2   3   3  131.58    6.05
   1  -3  -3   12.55    0.60
   1  -3  -3   12.23    0.61
   1  -3  -3   12.09    0.61
  -1   3   3   11.08    0.56
  -1   3   3   10.70    0.61
  -1   3   3   11.46    0.55
   0  -3  -3   24.16    1.11
   0  -3  -3   26.12    1.44
   0  -3  -3   21.48    1.15
   0  -3  -3   23.56    1.09
   0   3   3   28.15    1.30
   0   3   3   28.01    1.32
   0   3   3   29.00    1.33
   0   3   3   29.03    1.35
  -1  -3  -3   24.61    1.23
  -1  -3  -3   28.71    1.74
  -1  -3  -3   24.83    1.28
   1   3   3   23.75    1.12
   1   3   3   23.49    1.53
   1   3   3   23.85    1.16
   1   3   3   23.48    1.17
   1   3   3   24.76    1.13
   1   3   3   24.00    1.14
  -2  -3  -3   60.53    2.79
  -2  -3  -3   61.20    2.75
  -2  -3  -3   51.47    3.40
  -2  -3  -3   63.79    2.74
   2   3   3   61.41    2.63
   2   3   3   56.82    2.81
   2   3   3   53.36    3.22
   2   3   3   56.81    2.68
   2   3   3   56.90    2.63
  -3  -3  -3   27.25    1.24
  -3  -3  -3   24.90    1.26
  -3  -3  -3   23.83    1.29
   3   3   3   21.80    1.22
   3   3   3   25.08    1.19
   3   3   3   23.88    1.16
   3   3   3   23.14    1.86
   3   3   3   24.91    1.40
  -4  -3  -3   64.95    3.04
  -4  -3  -3   63.96    3.05
  -4  -3  -3   64.14    3.03
   4   3   3   57.71    2.74
   4   3   3   59.47    3.07
   4   3   3   55.42    2.90
   4   3   3   53.68    2.64
   4   3   3   60.12    2.94
   4   3   3   55.61    2.91
   4   3   3   58.13    2.68
   4   3   3   56.97    2.85
   4   3   3   53.07    2.70
   4   3   3   59.90    3.30
   4   3   3   56.46    2.65
  -5  -3  -3    7.09    0.86
  -5  -3  -3    6.53    0.39
   5   3   3    6.61    0.60
   5   3   3    5.99    0.39
   5   3   3    7.06    0.54
   5   3   3    6.12    0.53
   5   3   3    5.99    0.39
   5   3   3    4.80    0.48
   5   3   3    6.59    0.41
   5   3   3    5.68    0.52
   5   3   3    6.02    0.36
   6   3   3    4.25    0.25
   6   3   3    3.98    0.31
   6   3   3    3.77    0.34
   6   3   3    4.66    0.25
   6  -4  -3    4.87    0.32
   6  -4  -3    5.60    0.40
   6  -4  -3    5.10    0.38
   6  -4  -3    4.81    0.40
   5  -4  -3   28.61    1.44
   5  -4  -3   26.33    1.55
   5  -4  -3   27.39    1.56
   5  -4  -3   28.04    1.49
   5  -4  -3   28.88    1.53
  -5   4   3   15.51    1.83
   4  -4  -3   44.07    2.11
   4  -4  -3   46.07    2.30
   4  -4  -3   44.35    2.30
   4  -4  -3   47.13    2.21
   4  -4  -3   43.15    2.26
   4  -4  -3   44.21    2.33
   4  -4  -3   38.94    3.46
   4  -4  -3   45.41    2.12
   4  -4  -3   44.18    2.31
   4  -4  -3   46.92    2.37
  -4   4   3   52.03    3.82
  -4   4   3   53.00    2.53
  -4   4   3   52.86    2.80
  -4   4   3   54.01    2.59
   3  -4  -3    3.01    0.22
   3  -4  -3    3.11    0.24
   3  -4  -3    3.03    0.23
  -3   4   3    3.01    0.24
  -3   4   3    2.51    0.23
   2  -4  -3   18.81    0.95
   2  -4  -3   19.55    0.97
   2  -4  -3   19.31    0.95
  -2   4   3   19.25    1.06
  -2   4   3   20.34    0.99
   1  -4  -3    2.72    0.19
   1  -4  -3    2.83    0.18
   1  -4  -3    2.92    0.19
  -1   4   3    3.29    0.22
  -1   4   3    3.36    0.28
  -1   4   3    3.38    0.22
   0  -4  -3   24.27    1.53
   0  -4  -3   26.64    1.22
   0  -4  -3   27.15    1.24
   0   4   3   24.57    1.22
   0   4   3   25.43    1.19
   0   4   3   25.29    1.18
   0   4   3   25.17    1.23
  -1  -4  -3   68.73    3.23
  -1  -4  -3   70.77    3.30
  -1  -4  -3   72.19    3.85
   1   4   3   67.37    3.58
   1   4   3   65.55    3.04
   1   4   3   67.84    3.10
   1   4   3   66.89    3.09
   1   4   3   66.01    3.06
  -2  -4  -3   48.37    2.22
  -2  -4  -3   45.18    3.00
  -2  -4  -3   48.70    2.21
  -2  -4  -3   45.79    2.27
   2   4   3   43.41    2.20
   2   4   3   42.44    2.68
   2   4   3   41.61    1.99
   2   4   3   43.28    2.06
   2   4   3   41.60    2.00
  -3  -4  -3   41.26    2.01
  -3  -4  -3   48.02    3.71
  -3  -4  -3   40.52    2.04
  -3  -4  -3   41.07    2.26
   3   4   3   38.45    2.03
   3   4   3   38.51    2.00
   3   4   3   36.65    1.78
   3   4   3   37.23    1.76
   3   4   3   37.13    1.99
   3   4   3   36.54    1.96
   3   4   3   35.34    2.00
   3   4   3   39.59    2.51
   3   4   3   35.76    1.81
   3   4   3   34.55    1.83
  -4  -4  -3    3.64    0.66
  -4  -4  -3    3.11    0.24
  -4  -4  -3    3.16    0.30
  -4  -4  -3    2.62    0.36
   4   4   3    2.02    0.19
   4   4   3    2.02    0.29
   4   4   3    2.39    0.24
   4   4   3    1.89    0.29
   4   4   3    2.06    0.20
   4   4   3    2.22    0.35
   4   4   3    2.13    0.28
   4   4   3    2.02    0.24
   4   4   3    1.93    0.18
   4   4   3    1.98    0.20
   4   4   3    2.49    0.24
  -5  -4  -3   10.41    0.58
  -5  -4  -3    9.54    0.55
   5   4   3    8.45    0.67
   5   4   3    7.50    0.57
   5   4   3    9.01    0.65
   5   4   3    8.37    0.47
   5   4   3    7.29    0.76
   6  -5  -3    2.64    0.21
   6  -5  -3    2.41    0.23
   6  -5  -3    2.40    0.22
  -6   5   3   -0.07    0.23
   5  -5  -3    5.75    0.48
   5  -5  -3    6.26    0.43
   5  -5  -3    6.34    0.47
   5  -5  -3    6.91    0.53
   5  -5  -3    6.65    0.54
   4  -5  -3    9.18    0.58
   4  -5  -3    9.42    0.71
   4  -5  -3    9.91    0.72
   4  -5  -3    9.41    0.66
   4  -5  -3    9.48    0.62
   4  -5  -3    9.37    0.69
   4  -5  -3   10.07    0.73
   3  -5  -3   18.25    1.09
   3  -5  -3   17.49    1.25
   3  -5  -3   17.64    0.90
   3  -5  -3   17.41    1.02
   3  -5  -3   17.35    0.93
   3  -5  -3   16.52    1.17
   3  -5  -3   17.38    1.10
   2  -5  -3   22.69    1.11
   2  -5  -3   21.54    1.20
  -2   5   3   24.91    1.23
  -2   5   3   24.81    1.33
   1  -5  -3    5.34    0.32
   1  -5  -3    5.15    0.32
  -1   5   3    6.36    0.31
  -1   5   3    4.43    0.34
  -1   5   3    5.08    0.32
   0  -5  -3   14.26    0.74
   0  -5  -3   14.87    0.73
   0   5   3   15.97    0.78
   0   5   3   16.48    0.84
   0   5   3   14.88    0.78
  -1  -5  -3   10.25    0.56
  -1  -5  -3   11.23    0.58
  -1  -5  -3    9.07    0.98
  -1  -5  -3   10.43    0.64
   1   5   3    9.05    0.50
   1   5   3    9.25    0.55
   1   5   3    8.88    0.89
  -2  -5  -3    6.00    0.40
  -2  -5  -3    6.95    0.49
  -2  -5  -3    6.69    0.57
  -2  -5  -3    5.04    1.06
  -2  -5  -3    6.83    0.41
  -2  -5  -3    6.44    0.41
   2   5   3    4.58    0.34
   2   5   3    5.46    0.49
   2   5   3    5.13    0.34
   2   5   3    5.35    0.49
   2   5   3    5.81    0.57
   2   5   3    5.03    0.50
   2   5   3    5.20    0.38
   2   5   3    4.96    0.36
   2   5   3    4.99    0.33
   2   5   3    5.33    0.46
   2   5   3    5.14    0.83
   2   5   3    5.03    0.34
   2   5   3    5.09    0.34
  -3  -5  -3   54.64    2.78
  -3  -5  -3   55.21    3.01
  -3  -5  -3   61.70    2.91
  -3  -5  -3   64.27    2.84
  -3  -5  -3   59.44    3.88
  -3  -5  -3   61.72    2.82
   3   5   3   52.11    2.74
   3   5   3   55.76    2.55
   3   5   3   51.11    2.49
   3   5   3   54.23    2.69
   3   5   3   51.33    2.45
   3   5   3   50.75    2.52
   3   5   3   48.36    2.47
   3   5   3   55.00    2.69
   3   5   3   48.21    2.51
   3   5   3   52.60    2.45
   3   5   3   54.03    2.87
   3   5   3   50.13    2.71
   3   5   3   55.34    2.49
  -4  -5  -3    1.64    0.16
  -4  -5  -3    1.85    0.47
  -4  -5  -3    1.94    0.18
  -4  -5  -3    1.82    0.19
   4   5   3    1.75    0.27
   4   5   3    1.58    0.17
   4   5   3    1.72    0.29
   4   5   3    1.71    0.25
   4   5   3    1.68    0.19
   4   5   3    1.48    0.15
   4   5   3    1.64    0.24
   4   5   3    1.71    0.18
   4   5   3    1.55    0.16
   5   5   3    8.18    0.46
   5   5   3    8.46    0.65
   5   5   3    8.71    0.58
   5   5   3    8.49    0.48
   5   5   3    8.76    0.59
   5   5   3    8.47    0.47
   5  -6  -3    2.97    0.27
   5  -6  -3    2.69    0.23
   5  -6  -3    3.02    0.31
   5  -6  -3    2.78    0.28
   5  -6  -3    2.75    0.30
   4  -6  -3    2.06    0.25
   4  -6  -3    2.16    0.29
   4  -6  -3    2.36    0.38
   4  -6  -3    2.38    0.30
   4  -6  -3    2.18    0.23
   4  -6  -3    1.53    0.80
   4  -6  -3    2.07    0.28
   3  -6  -3    0.88    0.19
   3  -6  -3    0.74    0.13
   3  -6  -3    0.95    0.15
   3  -6  -3    0.91    0.14
   3  -6  -3    1.47    0.85
   3  -6  -3    0.84    0.33
   3  -6  -3    0.92    0.21
  -3   6   3    1.73    0.18
  -3   6   3    1.85    0.25
  -3   6   3    1.66    0.27
  -3   6   3    1.24    0.23
   2  -6  -3   41.79    2.17
   2  -6  -3   37.48    2.12
   2  -6  -3   43.42    2.12
   2  -6  -3   42.48    1.95
   2  -6  -3   44.38    2.09
   2  -6  -3   39.01    4.02
   2  -6  -3   38.42    1.95
   1  -6  -3   15.85    0.85
   1  -6  -3   17.49    1.09
   1  -6  -3   16.98    0.84
   1  -6  -3   15.62    0.92
   1  -6  -3   16.43    2.58
  -1   6   3   19.45    0.98
  -1   6   3   19.88    1.02
  -1   6   3   20.74    1.26
  -1   6   3   20.33    1.13
   0  -6  -3    5.95    0.38
   0  -6  -3    6.76    0.37
   0  -6  -3    5.49    0.40
   0  -6  -3    6.05    0.54
   0   6   3    5.66    0.40
   0   6   3    6.46    0.56
   0   6   3    6.02    0.45
   0   6   3    5.93    0.36
  -1  -6  -3    0.51    0.10
  -1  -6  -3    0.59    0.26
  -1  -6  -3    0.55    0.09
   1   6   3    0.12    0.09
   1   6   3    0.19    0.12
   1   6   3    0.18    0.07
   1   6   3    0.14    0.09
   1   6   3    0.14    0.12
   1   6   3    0.22    0.08
   1   6   3    0.18    0.06
  -2  -6  -3   24.51    1.34
  -2  -6  -3   24.90    1.24
  -2  -6  -3   25.11    1.46
  -2  -6  -3   24.30    1.25
  -2  -6  -3   23.96    1.28
  -2  -6  -3   24.00    1.23
   2   6   3   23.42    1.19
   2   6   3   24.99    1.37
   2   6   3   23.14    1.19
   2   6   3   25.36    1.20
   2   6   3   23.90    1.40
   2   6   3   23.56    1.23
   2   6   3   25.63    1.54
   2   6   3   22.29    1.20
   2   6   3   22.94    1.30
   2   6   3   23.64    1.46
   2   6   3   23.06    1.28
  -3  -6  -3   11.87    0.67
  -3  -6  -3   11.52    0.66
  -3  -6  -3   11.29    0.68
  -3  -6  -3   10.34    0.62
  -3  -6  -3   11.86    0.75
   3   6   3   11.86    0.67
   3   6   3   12.01    0.69
   3   6   3   12.87    0.83
   3   6   3   11.80    0.73
   3   6   3   12.11    0.66
   3   6   3   12.26    0.74
   3   6   3   12.23    0.66
   3   6   3   11.31    0.84
   3   6   3   12.38    0.90
   3   6   3   12.04    0.95
   3   6   3   12.22    0.70
  -4  -6  -3    8.41    0.46
  -4  -6  -3    8.26    0.49
   4   6   3    8.33    0.67
   4   6   3    8.69    0.49
   4   6   3    9.14    0.80
   4   6   3   10.28    0.78
   4   6   3    9.30    0.64
   4   6   3    9.24    0.54
   4   6   3    9.49    0.52
   5   6   3    3.79    0.29
   5   6   3    3.71    0.23
   5   6   3    3.78    0.23
   5  -7  -3    5.78    0.40
   5  -7  -3    5.01    0.41
   5  -7  -3    5.01    0.40
   5  -7  -3    6.45    0.40
   5  -7  -3    6.53    0.54
  -5   7   3    6.21    0.50
  -5   7   3    7.07    0.43
   4  -7  -3    3.01    0.34
   4  -7  -3    2.93    0.27
   4  -7  -3    3.72    0.36
   4  -7  -3    2.93    0.30
   4  -7  -3    3.06    0.33
   3  -7  -3    0.60    0.12
   3  -7  -3    0.49    0.20
   3  -7  -3    0.62    0.12
   3  -7  -3    0.65    0.16
   3  -7  -3    0.63    0.09
   3  -7  -3    0.60    0.14
   3  -7  -3    0.57    0.13
  -3   7   3    1.17    0.24
  -3   7   3    1.11    0.18
  -3   7   3    1.27    0.28
   2  -7  -3   20.21    1.11
   2  -7  -3   21.61    1.18
   2  -7  -3   22.84    1.37
   2  -7  -3   21.46    1.27
   2  -7  -3   20.85    1.09
   2  -7  -3   21.83    1.09
  -2   7   3   29.09    1.64
  -2   7   3   28.69    1.53
  -2   7   3   26.92    1.39
  -2   7   3   26.77    1.63
   1  -7  -3   54.26    2.56
   1  -7  -3   55.17    2.87
   1  -7  -3   56.18    2.76
   1  -7  -3   53.47    2.55
   1  -7  -3   53.50    2.60
  -1   7   3   60.17    2.99
  -1   7   3   62.53    3.13
  -1   7   3   61.36    3.15
   0  -7  -3   37.82    1.93
   0  -7  -3   40.05    1.87
   0  -7  -3   38.44    1.89
   0  -7  -3   41.46    2.18
   0   7   3   42.65    2.19
   0   7   3   39.62    2.01
   0   7   3   42.52    2.40
   0   7   3   41.20    2.09
   0   7   3   39.95    2.24
  -1  -7  -3    3.87    0.39
  -1  -7  -3    3.98    0.61
   1   7   3    4.16    0.29
   1   7   3    4.03    0.38
   1   7   3    3.51    0.50
   1   7   3    4.24    0.33
   1   7   3    3.81    0.53
   1   7   3    4.13    0.55
  -2  -7  -3    4.40    0.32
  -2  -7  -3    4.18    0.31
  -2  -7  -3    4.68    0.56
  -2  -7  -3    4.51    0.45
  -2  -7  -3    4.60    0.36
  -2  -7  -3    4.18    0.31
   2   7   3    4.58    0.30
   2   7   3    4.16    0.41
   2   7   3    3.94    0.47
   2   7   3    3.98    0.34
   2   7   3    4.14    0.36
   2   7   3    4.30    0.46
   2   7   3    4.10    0.30
   2   7   3    4.29    0.33
   2   7   3    3.82    0.28
  -3  -7  -3   29.20    1.48
  -3  -7  -3   30.19    1.88
  -3  -7  -3   30.64    1.47
  -3  -7  -3   31.42    1.53
   3   7   3   28.13    1.53
   3   7   3   30.62    1.46
   3   7   3   29.45    1.42
   3   7   3   29.38    1.68
   3   7   3   29.03    1.72
   3   7   3   30.46    1.57
   3   7   3   27.83    1.48
   3   7   3   26.87    1.59
   3   7   3   30.70    1.44
  -4  -7  -3    0.36    0.28
  -4  -7  -3    0.53    0.08
  -4  -7  -3    0.50    0.07
  -4  -7  -3    0.43    0.14
   4   7   3    0.55    0.08
   4   7   3    0.55    0.12
   4   7   3    0.56    0.14
   4   7   3    0.42    0.10
   4  -8  -3    5.89    0.48
   4  -8  -3    6.03    0.46
   4  -8  -3    5.22    0.37
   4  -8  -3    5.97    0.46
  -4   8   3    6.34    0.44
  -4   8   3    6.55    0.54
   3  -8  -3   28.88    1.87
   3  -8  -3   34.53    1.52
   3  -8  -3   29.39    1.69
   3  -8  -3   35.69    1.78
   3  -8  -3   28.93    1.64
  -3   8   3   39.30    2.12
  -3   8   3   38.34    1.97
   2  -8  -3   35.02    2.17
   2  -8  -3   28.68    1.53
   2  -8  -3   30.50    1.71
   2  -8  -3   31.66    1.64
  -2   8   3   38.00    2.08
  -2   8   3   35.20    1.98
  -2   8   3   33.95    1.92
   1  -8  -3    1.97    0.19
   1  -8  -3    2.12    0.20
   1  -8  -3    2.00    0.21
   1  -8  -3    2.12    0.31
  -1   8   3    2.02    0.29
  -1   8   3    2.04    0.25
  -1   8   3    2.06    0.29
   0  -8  -3    3.27    0.40
   0  -8  -3    3.58    0.30
   0  -8  -3    3.36    0.26
   0   8   3    3.21    0.39
   0   8   3    3.22    0.25
   0   8   3    2.87    0.30
   0   8   3    2.98    0.32
   0   8   3    2.87    0.37
  -1  -8  -3   52.38    2.74
  -1  -8  -3   49.82    2.70
  -1  -8  -3   46.96    2.69
  -1  -8  -3   52.00    2.44
   1   8   3   55.51    2.83
   1   8   3   45.26    2.52
   1   8   3   43.86    2.33
  -2  -8  -3   11.26    0.89
  -2  -8  -3   11.35    0.65
  -2  -8  -3    9.60    0.82
  -2  -8  -3   11.09    0.60
   2   8   3    9.37    0.71
   2   8   3    9.46    0.74
   2   8   3    7.38    0.63
   2   8   3    9.39    0.59
  -3  -8  -3    9.63    0.62
  -3  -8  -3   11.42    0.61
  -3  -8  -3   10.69    0.82
   3   8   3   10.74    0.71
   3   8   3    9.61    0.66
   3   8   3    7.85    0.56
   3   8   3    9.63    0.71
  -4  -8  -3    1.67    0.22
   4   8   3    1.10    0.18
   4   8   3    1.42    0.18
  -4   9   3    4.68    0.37
   3  -9  -3   18.29    1.12
   3  -9  -3   21.16    1.12
  -3   9   3   26.44    1.46
  -3   9   3   26.35    1.36
   2  -9  -3    6.80    0.76
   2  -9  -3    8.77    0.50
   2  -9  -3    8.81    0.49
  -2   9   3   10.43    0.70
  -2   9   3    7.90    0.65
   1  -9  -3    8.22    0.50
   1  -9  -3    8.43    0.48
   1  -9  -3    8.09    0.65
  -1   9   3    9.80    0.62
  -1   9   3    9.06    0.78
  -1   9   3    8.20    0.74
   0  -9  -3    4.78    0.35
   0  -9  -3    4.93    0.32
   0  -9  -3    4.32    0.44
   0   9   3    4.98    0.40
   0   9   3    4.86    0.46
  -1  -9  -3    1.75    0.27
  -1  -9  -3    1.31    0.20
   1   9   3    0.97    0.18
   1   9   3    1.05    0.19
  -2  -9  -3   13.02    0.67
  -2  -9  -3   12.14    0.63
  -2  -9  -3   10.09    0.84
   2   9   3    9.39    0.66
   2   9   3    8.92    0.77
   2   9   3   10.71    0.59
  -3  -9  -3    8.55    0.60
  -3  -9  -3    8.01    0.45
   3   9   3    4.34    0.34
   2 -10  -3    6.27    0.35
   2 -10  -3    5.96    0.35
   2 -10  -3    6.66    0.47
  -2  10   3    6.54    0.49
  -2  10   3    6.10    0.41
   1 -10  -3   23.34    1.10
   1 -10  -3   23.14    1.12
   1 -10  -3   21.80    1.28
  -1  10   3   18.32    1.04
   0 -10  -3   13.60    0.71
   0 -10  -3   12.90    0.79
   0  10   3   11.31    0.69
   0  10   3   11.11    0.69
  -1 -10  -3   14.43    0.75
  -1 -10  -3   14.28    0.71
   1  10   3   12.77    0.74
   1  10   3   11.51    0.66
   1  11  -4    0.95    0.14
  -1 -11   4    1.31    0.21
   0  11  -4    7.19    0.49
   0 -11   4   10.72    0.67
   0 -11   4   12.97    1.05
  -1  11  -4   12.47    0.80
  -1  11  -4   14.09    0.81
   1 -11   4   12.89    0.95
   1 -11   4   17.87    0.80
  -2  11  -4    9.30    0.60
   2 -11   4    8.13    0.48
   2 -11   4    8.50    0.46
   3  10  -4    0.68    0.12
   3  10  -4    0.75    0.11
  -3 -10   4    1.47    0.14
   2  10  -4    2.69    0.28
   2  10  -4    2.35    0.24
  -2 -10   4    3.00    0.37
  -2 -10   4    3.36    0.24
   1  10  -4    0.96    0.19
   1  10  -4    1.11    0.14
   1  10  -4    0.79    0.15
  -1 -10   4    0.93    0.11
  -1 -10   4    0.81    0.20
   0  10  -4    0.66    0.15
   0  10  -4    0.96    0.18
   0 -10   4    0.89    0.21
   0 -10   4    0.95    0.12
   0 -10   4    0.74    0.12
  -1  10  -4   10.47    0.75
  -1  10  -4    9.85    0.72
   1 -10   4   11.81    0.94
   1 -10   4   13.94    0.79
   1 -10   4   13.11    0.67
  -2  10  -4    0.19    0.10
  -2  10  -4    0.21    0.08
  -2  10  -4    0.14    0.08
   2 -10   4    0.41    0.07
   2 -10   4    0.40    0.08
   2 -10   4    0.28    0.13
   2 -10   4    0.39    0.12
  -3  10  -4    6.14    0.45
  -3  10  -4    6.68    0.45
   3 -10   4    6.79    0.43
   3 -10   4    6.26    0.43
   3 -10   4    6.68    0.41
   3 -10   4    6.66    0.52
  -4  -9   4   13.43    0.68
   3   9  -4    3.92    0.32
   3   9  -4    4.31    0.39
   3   9  -4    4.74    0.29
   3   9  -4    5.51    0.48
  -3  -9   4    5.15    0.33
  -3  -9   4    4.51    0.47
   2   9  -4    2.72    0.25
   2   9  -4    2.56    0.26
   2   9  -4    1.97    0.25
   2   9  -4    2.47    0.20
   2   9  -4    2.56    0.41
   2   9  -4    2.33    0.29
  -2  -9   4    3.67    0.28
  -2  -9   4    3.72    0.43
  -2  -9   4    3.20    0.44
   1   9  -4    0.78    0.13
   1   9  -4    0.84    0.18
   1   9  -4    0.81    0.16
  -1  -9   4    0.39    0.10
  -1  -9   4    0.42    0.17
   0   9  -4   25.54    1.52
   0   9  -4   26.75    1.54
   0  -9   4   29.41    1.79
   0  -9   4   27.22    1.40
   0  -9   4   26.61    1.37
  -1   9  -4   11.91    0.84
  -1   9  -4   11.23    0.85
   1  -9   4   10.92    0.66
   1  -9   4   12.09    0.96
   1  -9   4   11.27    0.67
  -2   9  -4   18.09    1.10
  -2   9  -4   19.09    1.22
  -2   9  -4   18.87    1.16
   2  -9   4   17.49    1.29
   2  -9   4   19.37    0.98
   2  -9   4   19.09    1.15
   2  -9   4   19.91    1.12
   2  -9   4   20.32    1.03
  -3   9  -4    0.50    0.17
  -3   9  -4    0.37    0.10
  -3   9  -4    0.01    0.28
   3  -9   4    0.82    0.12
   3  -9   4    0.80    0.16
   3  -9   4    1.03    0.20
   3  -9   4    0.72    0.18
   3  -9   4    0.51    0.21
   3  -9   4    0.61    0.12
   3  -9   4    0.90    0.10
   4  -9   4   11.48    0.87
   4  -9   4   11.29    0.71
   4  -9   4   14.28    0.80
   4  -9   4   12.81    0.68
   4   8  -4   17.47    1.03
   4   8  -4   21.96    1.12
   4   8  -4   20.83    1.10
   4   8  -4   20.21    0.98
   4   8  -4   20.99    0.99
   3   8  -4   23.92    1.23
   3   8  -4   21.08    1.18
   3   8  -4   24.00    1.35
   3   8  -4   24.29    1.29
   3   8  -4   23.56    1.14
   3   8  -4   20.83    1.28
  -3  -8   4   33.71    1.76
  -3  -8   4   32.40    1.55
  -3  -8   4   26.58    1.77
   2   8  -4   12.49    0.74
   2   8  -4   13.27    0.81
   2   8  -4   12.33    0.77
   2   8  -4   10.19    0.81
   2   8  -4   10.55    0.78
   2   8  -4   11.43    0.65
   2   8  -4   13.02    0.76
  -2  -8   4   12.52    0.74
  -2  -8   4   13.48    1.06
  -2  -8   4   12.37    0.71
  -2  -8   4   12.96    0.89
   1   8  -4    0.25    0.07
   1   8  -4    0.08    0.08
   1   8  -4    0.25    0.08
   1   8  -4    0.27    0.08
   1   8  -4    0.26    0.12
   1   8  -4    0.20    0.10
  -1  -8   4    0.59    0.11
  -1  -8   4    0.74    0.12
  -1  -8   4    0.44    0.19
   0   8  -4   46.27    2.13
   0   8  -4   44.70    2.39
   0   8  -4   44.40    2.40
   0  -8   4   45.00    2.25
   0  -8   4   44.54    2.23
   0  -8   4   49.96    2.68
   0  -8   4   48.05    2.23
  -1   8  -4   21.15    1.09
  -1   8  -4   20.49    1.24
  -1   8  -4   22.81    1.45
  -1   8  -4   22.19    1.33
   1  -8   4   21.72    1.11
   1  -8   4   21.31    1.11
   1  -8   4   20.67    1.09
   1  -8   4   20.72    1.24
   1  -8   4   24.71    1.50
   1  -8   4   21.22    1.21
   1  -8   4   22.71    1.81
   2  -8   4  101.06    4.84
   2  -8   4   91.71    4.36
   2  -8   4   91.70    4.54
   2  -8   4   91.66    4.41
   2  -8   4  105.67    4.73
   2  -8   4   99.80    4.63
   2  -8   4   86.37    4.50
   2  -8   4   93.81    4.37
   3  -8   4    8.57    0.57
   3  -8   4    8.59    0.70
   3  -8   4    8.26    1.01
   3  -8   4    8.39    0.66
   3  -8   4    8.41    0.62
   3  -8   4    8.87    0.71
   3  -8   4    7.59    0.73
   3  -8   4    7.45    0.59
  -4   8  -4   -0.06    0.32
   4  -8   4    0.81    0.16
   4  -8   4    0.59    0.24
   4  -8   4    1.02    0.19
   4  -8   4    0.87    0.15
   4  -8   4    0.83    0.17
   5  -8   4    3.81    0.23
   5  -8   4    3.52    0.29
   5  -8   4    3.80    0.30
   5  -8   4    3.81    0.32
   5  -8   4    3.75    0.30
   5   7  -4    3.24    0.27
   5   7  -4    3.35    0.29
   5   7  -4    4.08    0.32
   5   7  -4    3.51    0.25
   4   7  -4    3.11    0.26
   4   7  -4    3.54    0.33
   4   7  -4    2.51    0.34
   4   7  -4    3.29    0.28
   4   7  -4    2.63    0.33
   4   7  -4    3.22    0.40
   3   7  -4    0.70    0.10
   3   7  -4    0.83    0.17
   3   7  -4    0.57    0.14
   3   7  -4    0.59    0.10
   3   7  -4    0.73    0.15
   3   7  -4    0.64    0.20
   3   7  -4    0.60    0.15
  -3  -7   4    1.27    0.27
  -3  -7   4    1.58    0.18
  -3  -7   4    1.47    0.15
  -3  -7   4    1.45    0.18
  -3  -7   4    1.50    0.27
   2   7  -4   16.80    0.89
   2   7  -4   18.47    1.13
   2   7  -4   17.14    0.99
   2   7  -4   18.30    1.03
   2   7  -4   17.81    1.09
   2   7  -4   17.49    1.05
   2   7  -4   17.02    1.12
  -2  -7   4   18.75    0.99
  -2  -7   4   18.82    0.99
  -2  -7   4   18.41    1.03
  -2  -7   4   20.43    1.37
   1   7  -4    5.95    0.50
   1   7  -4    6.06    0.37
   1   7  -4    6.19    0.55
  -1  -7   4    9.21    0.72
  -1  -7   4    8.67    0.86
  -1  -7   4    8.65    0.52
   0   7  -4    6.60    0.86
   0   7  -4    6.73    0.56
   0   7  -4    6.64    0.58
   0   7  -4    6.40    0.39
   0  -7   4    7.45    0.50
   0  -7   4    9.00    0.77
   0  -7   4    8.33    0.47
   0  -7   4    7.60    0.48
  -1   7  -4   42.44    2.40
  -1   7  -4   48.11    2.24
  -1   7  -4   49.71    2.50
  -1   7  -4   50.68    2.93
   1  -7   4   56.36    3.22
   1  -7   4   53.39    2.68
   1  -7   4   47.97    2.38
   1  -7   4   47.89    2.55
   1  -7   4   53.66    2.40
   1  -7   4   48.19    2.40
   2  -7   4    8.04    0.69
   2  -7   4    9.14    0.64
   2  -7   4    8.36    0.77
   2  -7   4    8.41    0.50
   2  -7   4    8.23    0.53
   2  -7   4    8.59    0.63
   2  -7   4    9.12    0.69
   2  -7   4    8.79    0.50
   2  -7   4    8.55    0.50
   3  -7   4   52.46    3.11
   3  -7   4   55.61    2.92
   3  -7   4   56.59    2.75
   3  -7   4   58.10    3.02
   3  -7   4   54.52    2.79
   3  -7   4   67.63    2.99
   3  -7   4   59.42    3.02
   3  -7   4   59.28    2.95
   3  -7   4   66.49    3.84
  -4   7  -4    0.05    0.36
  -4   7  -4    0.03    0.06
  -4   7  -4    0.18    0.19
   4  -7   4    0.45    0.15
   4  -7   4    0.39    0.13
   4  -7   4    0.41    0.10
   4  -7   4    0.52    0.10
   4  -7   4    0.36    0.16
   4  -7   4    0.39    0.24
   4  -7   4    0.40    0.08
   4  -7   4    0.43    0.15
   5  -7   4    5.47    0.45
   5  -7   4    5.68    0.33
   5  -7   4    5.33    0.43
   5  -7   4    5.47    0.41
   5  -7   4    5.61    0.35
   5  -7   4    4.78    0.40
   5   6  -4    6.19    0.51
   5   6  -4    5.66    0.59
   5   6  -4    6.42    0.46
   5   6  -4    6.67    0.42
   5   6  -4    6.25    0.48
   5   6  -4    7.10    0.38
   5   6  -4    6.59    0.35
   4   6  -4   10.95    0.71
   4   6  -4   11.28    0.77
   4   6  -4   11.90    0.65
   4   6  -4   11.36    0.82
   4   6  -4   12.78    0.85
   4   6  -4   11.94    0.64
   4   6  -4   12.09    0.91
   4   6  -4   12.53    0.79
  -4  -6   4   17.95    0.90
  -4  -6   4   16.40    0.92
  -4  -6   4   17.05    1.00
   3   6  -4   38.61    2.06
   3   6  -4   38.98    2.01
   3   6  -4   42.99    2.22
   3   6  -4   37.56    2.05
   3   6  -4   39.73    1.88
   3   6  -4   37.32    2.10
  -3  -6   4   51.18    2.39
  -3  -6   4   53.09    2.54
  -3  -6   4   49.57    2.37
  -3  -6   4   48.52    2.73
  -3  -6   4   48.75    2.68
   2   6  -4   22.97    1.37
   2   6  -4   24.85    1.42
   2   6  -4   21.41    1.13
   2   6  -4   22.84    1.26
   2   6  -4   23.50    1.13
   2   6  -4   23.09    1.34
  -2  -6   4   27.86    1.33
  -2  -6   4   27.13    1.67
  -2  -6   4   26.84    1.32
  -2  -6   4   25.06    1.43
   1   6  -4   14.86    0.73
   1   6  -4   13.73    0.72
   0   6  -4   11.88    1.22
   0  -6   4   20.32    1.01
  -1   6  -4   43.77    1.87
  -1   6  -4   33.74    2.44
  -1   6  -4   41.77    1.99
   1  -6   4   40.11    1.92
   1  -6   4   40.78    1.92
   1  -6   4   42.11    2.13
   2  -6   4   26.49    1.26
   2  -6   4   27.64    1.49
   2  -6   4   24.18    1.28
   2  -6   4   23.06    1.38
   2  -6   4   27.50    1.62
   2  -6   4   23.71    1.38
   2  -6   4   25.70    1.26
   3  -6   4   32.45    1.68
   3  -6   4   33.74    1.92
   3  -6   4   38.52    2.12
   3  -6   4   36.84    1.96
   3  -6   4   35.67    1.76
   3  -6   4   36.95    1.90
   3  -6   4   31.92    1.83
   3  -6   4   33.93    1.74
  -4   6  -4   34.46    1.66
  -4   6  -4   28.12    1.75
  -4   6  -4   32.37    1.55
   4  -6   4   32.45    1.66
   4  -6   4   33.03    1.63
   4  -6   4   30.82    1.80
   4  -6   4   34.75    1.82
   4  -6   4   34.41    1.98
   4  -6   4   33.28    1.62
   4  -6   4   33.51    1.88
   4  -6   4   32.88    1.77
   5  -6   4    1.77    0.34
   5  -6   4    1.51    0.20
   5  -6   4    1.61    0.20
   5  -6   4    1.20    0.23
   5  -6   4    1.70    0.19
   5  -6   4    1.48    0.16
   5  -6   4    1.39    0.23
   6  -6   4    1.63    0.41
   5   5  -4    4.47    0.46
   5   5  -4    4.56    0.40
   5   5  -4    4.60    0.40
   5   5  -4    4.74    0.28
   5   5  -4    4.31    0.38
   4   5  -4   49.78    2.53
   4   5  -4   46.92    2.38
   4   5  -4   49.58    2.47
   4   5  -4   44.15    2.59
   4   5  -4   46.15    2.46
   4   5  -4   50.70    2.30
   4   5  -4   46.95    2.27
   4   5  -4   46.90    2.28
   4   5  -4   53.53    2.57
  -4  -5   4   61.31    3.07
  -4  -5   4   69.87    3.21
  -4  -5   4   67.71    3.06
  -4  -5   4   63.85    3.10
   3   5  -4   34.90    1.81
   3   5  -4   31.95    1.63
   3   5  -4   31.36    1.65
   3   5  -4   35.24    2.21
   3   5  -4   33.94    1.86
   3   5  -4   34.73    1.65
   3   5  -4   34.91    1.95
   3   5  -4   33.97    1.86
   3   5  -4   34.55    1.74
  -3  -5   4   47.55    2.19
  -3  -5   4   46.91    2.31
  -3  -5   4   44.97    2.26
  -3  -5   4   45.87    2.20
   2   5  -4   32.92    2.80
   2   5  -4   35.42    1.61
   2   5  -4   33.97    1.63
  -2  -5   4   41.73    1.97
  -2  -5   4   43.41    1.98
  -2  -5   4   40.29    2.01
  -2  -5   4   41.52    2.07
   1   5  -4   17.49    1.52
  -1  -5   4   42.60    2.04
  -1  -5   4   44.98    2.01
  -1  -5   4   41.04    2.10
   0   5  -4  113.96    5.32
   0   5  -4  125.41    6.07
   0   5  -4  115.34    5.37
   0  -5   4  123.37    5.61
   0  -5   4  126.18    5.67
  -1   5  -4   34.52    1.59
  -1   5  -4   33.67    1.68
  -1   5  -4   33.74    2.11
   1  -5   4   38.91    1.87
   1  -5   4   38.34    1.82
   1  -5   4   40.14    1.84
  -2   5  -4    5.19    0.46
  -2   5  -4    4.86    0.29
  -2   5  -4    3.74    0.62
   2  -5   4    3.93    0.29
   2  -5   4    3.92    0.29
   2  -5   4    3.69    0.24
   2  -5   4    4.03    0.27
   3  -5   4   10.36    0.87
   3  -5   4    9.46    0.57
   3  -5   4    9.97    0.61
   3  -5   4    9.94    0.73
   4  -5   4   16.89    0.96
   4  -5   4   17.75    0.92
   4  -5   4   17.54    1.69
   4  -5   4   16.36    1.04
   4  -5   4   18.45    1.11
   4  -5   4   17.79    0.97
   4  -5   4   17.81    1.16
   4  -5   4   18.02    1.10
   4  -5   4   16.90    0.95
   4  -5   4   19.09    1.28
  -5   5  -4   -0.04    0.05
  -5   5  -4    0.23    0.35
  -5   5  -4    0.06    0.14
   5  -5   4    2.51    0.32
   5  -5   4    2.72    0.31
   5  -5   4    2.91    0.23
   5  -5   4    2.63    0.35
   5  -5   4    2.37    0.23
   5  -5   4    2.74    0.21
   5  -5   4    2.72    0.28
  -6   5  -4   -0.23    0.26
   6  -5   4    1.83    0.18
   6  -5   4    1.40    0.18
   6  -5   4    1.94    0.20
   6   4  -4    1.63    0.17
   6   4  -4    1.94    0.13
   6   4  -4    1.56    0.15
   6   4  -4    1.82    0.20
  -6  -4   4   10.67    1.09
   5   4  -4    7.91    0.71
   5   4  -4    8.60    0.49
   5   4  -4    8.17    0.58
   5   4  -4    7.83    0.58
   5   4  -4    8.61    0.55
   5   4  -4    8.20    0.63
   5   4  -4    9.31    0.67
   4   4  -4    5.83    0.49
   4   4  -4    5.70    0.52
   4   4  -4    6.10    0.46
   4   4  -4    5.92    0.59
   4   4  -4    5.83    0.51
   4   4  -4    6.30    0.55
   4   4  -4    6.04    0.39
   4   4  -4    5.50    0.38
  -4  -4   4    7.70    0.48
  -4  -4   4    8.76    0.56
  -4  -4   4    7.26    0.65
  -4  -4   4    7.97    0.47
   3   4  -4    0.17    0.06
   3   4  -4    0.46    0.18
   3   4  -4    0.25    0.07
   3   4  -4    0.32    0.07
   3   4  -4    0.26    0.08
   3   4  -4    0.27    0.10
   3   4  -4    0.20    0.11
   3   4  -4    0.25    0.10
   3   4  -4    0.32    0.12
  -3  -4   4    0.15    0.08
  -3  -4   4    0.17    0.06
  -3  -4   4    0.15    0.05
   2   4  -4   47.32    2.40
   2   4  -4   53.05    2.42
   2   4  -4   55.96    3.19
  -2  -4   4   57.91    2.71
  -2  -4   4   55.31    2.79
  -2  -4   4   60.06    2.67
  -2  -4   4   58.09    2.76
   1   4  -4    4.03    0.28
   1   4  -4    4.50    0.26
   1   4  -4    4.91    0.66
   1   4  -4    5.28    0.28
  -1  -4   4    5.22    0.33
  -1  -4   4    5.42    0.30
  -1  -4   4    4.84    0.35
   0   4  -4  158.66    7.10
   0   4  -4  152.54    7.06
   0   4  -4  159.03    7.06
   0   4  -4  160.91    7.64
   0  -4   4  181.53    7.90
   0  -4   4  176.95    7.94
   0  -4   4  170.93    7.90
  -1   4  -4   42.87    2.05
  -1   4  -4   43.16    2.50
  -1   4  -4   44.56    2.09
  -1   4  -4   44.68    2.01
   1  -4   4   48.51    2.29
   1  -4   4   48.71    2.23
   1  -4   4   49.19    2.28
   1  -4   4   49.07    2.26
   2  -4   4    1.65    0.15
   2  -4   4    1.78    0.13
   2  -4   4    1.66    0.16
   2  -4   4    1.85    0.14
   3  -4   4   34.84    1.70
   3  -4   4   35.92    1.73
   3  -4   4   34.69    1.76
   3  -4   4   35.02    1.66
   4  -4   4    7.76    0.71
   4  -4   4    7.10    0.44
   4  -4   4    7.10    0.42
   4  -4   4    6.93    0.61
   4  -4   4    6.92    0.45
   4  -4   4    7.06    0.54
   4  -4   4    6.91    0.46
   4  -4   4    5.91    0.92
   4  -4   4    7.37    0.58
   4  -4   4    7.23    0.48
   5  -4   4   32.69    1.61
   5  -4   4   31.72    1.65
   5  -4   4   31.82    1.74
   5  -4   4   32.50    1.88
   5  -4   4   34.21    1.83
   5  -4   4   32.40    1.57
   5  -4   4   31.79    1.69
  -6   4  -4    0.65    0.34
   6  -4   4    8.99    0.45
   6  -4   4    8.63    0.46
   6  -4   4    8.34    0.57
   6   3  -4    1.60    0.17
   6   3  -4    1.75    0.20
   6   3  -4    1.92    0.24
   6   3  -4    1.84    0.14
  -6  -3   4   14.76    1.38
   5   3  -4   29.47    1.63
   5   3  -4   31.23    1.62
   5   3  -4   28.82    1.40
   5   3  -4   29.61    1.49
   5   3  -4   26.15    1.51
   5   3  -4   26.87    1.55
   4   3  -4   14.28    0.85
   4   3  -4   13.62    0.94
   4   3  -4   17.12    1.10
   4   3  -4   13.25    0.77
   4   3  -4   14.54    0.91
   4   3  -4   13.73    0.96
   4   3  -4   14.76    0.96
   4   3  -4   14.44    0.75
   4   3  -4   15.06    0.79
  -4  -3   4   16.87    0.94
  -4  -3   4   16.97    0.90
  -4  -3   4   17.34    0.87
   3   3  -4    1.62    0.41
   3   3  -4    1.60    0.14
   3   3  -4    1.58    0.16
   3   3  -4    2.14    0.29
  -3  -3   4    1.42    0.17
  -3  -3   4    1.30    0.14
  -3  -3   4    1.26    0.12
  -3  -3   4    1.16    0.14
   2   3  -4   26.96    1.35
   2   3  -4   31.30    2.02
   2   3  -4   28.32    1.38
  -2  -3   4   34.90    1.71
  -2  -3   4   34.20    1.64
  -2  -3   4   35.60    1.67
   1   3  -4    0.73    0.20
   1   3  -4    0.64    0.06
   1   3  -4    0.70    0.07
   1   3  -4    0.58    0.07
   1   3  -4    0.63    0.06
  -1  -3   4    0.32    0.05
  -1  -3   4    0.19    0.04
  -1  -3   4    0.32    0.08
  -1  -3   4    0.25    0.04
   0   3  -4   87.76    4.83
   0   3  -4   80.66    3.74
   0   3  -4   83.13    3.76
   0   3  -4   80.92    3.73
   0  -3   4   91.49    4.26
   0  -3   4   97.89    4.29
   0  -3   4   94.19    4.25
  -1   3  -4  139.47    6.68
  -1   3  -4  141.58    6.18
  -1   3  -4  133.79    6.25
  -1   3  -4  137.10    6.21
   1  -3   4  124.58    6.11
   1  -3   4  135.67    6.03
   1  -3   4  136.12    6.06
   1  -3   4  135.42    6.02
   1  -3   4  141.34    6.08
  -2   3  -4   33.87    1.58
  -2   3  -4   32.02    1.59
  -2   3  -4   32.89    2.02
   2  -3   4   37.39    1.74
   2  -3   4   36.13    1.76
  -3   3  -4   17.74    0.91
  -3   3  -4   17.73    0.86
  -3   3  -4   16.17    1.35
   3  -3   4   17.75    0.96
   3  -3   4   18.32    0.94
   3  -3   4   18.82    0.95
   3  -3   4   18.45    0.91
  -4   3  -4   25.58    1.32
  -4   3  -4   26.94    1.29
   4  -3   4   25.92    2.03
   4  -3   4   23.90    1.28
   4  -3   4   26.07    1.31
   4  -3   4   25.74    1.23
   4  -3   4   25.75    1.60
   4  -3   4   26.36    1.43
   4  -3   4   26.02    1.49
   4  -3   4   22.40    1.36
   4  -3   4   25.52    1.27
   4  -3   4   24.45    1.25
  -5   3  -4   -0.01    0.10
  -5   3  -4   -0.02    0.06
   5  -3   4    1.25    0.16
   5  -3   4    0.74    0.48
   5  -3   4    1.54    0.28
   5  -3   4    0.98    0.21
   5  -3   4    1.34    0.21
   6  -3   4    4.82    0.39
   6  -3   4    4.84    0.28
   6  -3   4    4.76    0.29
   6   2  -4    7.75    0.49
   6   2  -4    8.83    0.56
   6   2  -4    8.50    0.49
   6   2  -4    7.21    0.54
   6   2  -4    7.44    0.51
   5   2  -4    7.06    0.60
   5   2  -4    7.64    0.51
   5   2  -4    6.14    0.64
   5   2  -4    7.97    0.59
   5   2  -4    7.30    0.59
   5   2  -4    7.10    0.44
  -5  -2   4   12.25    0.71
   4   2  -4   15.42    1.01
   4   2  -4   18.14    1.14
   4   2  -4   16.05    1.02
   4   2  -4   15.77    0.84
   4   2  -4   14.95    0.99
   4   2  -4   15.46    0.90
   4   2  -4   16.08    0.95
   4   2  -4   15.77    0.81
   4   2  -4   14.31    0.82
  -4  -2   4   22.00    1.17
  -4  -2   4   24.67    1.25
  -4  -2   4   23.13    1.14
   3   2  -4    8.21    0.50
   3   2  -4    8.90    0.48
   3   2  -4    8.02    0.89
   3   2  -4   10.59    0.73
  -3  -2   4    8.06    0.44
  -3  -2   4    8.08    0.50
  -3  -2   4    8.70    0.47
   2   2  -4    5.03    0.29
   2   2  -4    5.23    0.27
   2   2  -4    3.71    0.56
  -2  -2   4    3.79    0.23
  -2  -2   4    4.52    0.25
  -2  -2   4    4.33    0.27
  -2  -2   4    3.37    0.29
   1   2  -4   20.63    1.33
   1   2  -4   18.58    0.95
   1   2  -4   20.51    0.93
   1   2  -4   19.55    0.92
  -1  -2   4   21.23    1.19
  -1  -2   4   21.97    1.05
  -1  -2   4   23.63    1.08
  -1  -2   4   23.11    1.05
   0   2  -4  198.22    8.86
   0   2  -4  195.60    8.88
   0   2  -4  202.75    8.88
   0  -2   4  229.61    9.85
   0  -2   4  220.57    9.82
   0  -2   4  209.95    9.81
   0  -2   4  221.75    9.84
  -1   2  -4   40.38    1.94
  -1   2  -4   43.48    2.00
  -1   2  -4   43.03    1.97
  -1   2  -4   43.54    2.37
  -1   2  -4   43.22    1.95
   1  -2   4   44.81    2.07
   1  -2   4   44.99    2.03
   1  -2   4   43.75    2.06
   1  -2   4   44.99    2.05
  -2   2  -4   45.26    2.59
  -2   2  -4   44.58    2.06
  -2   2  -4   43.94    2.06
  -2   2  -4   41.97    2.01
   2  -2   4   41.72    1.95
   2  -2   4   42.39    1.92
   2  -2   4   41.30    1.93
   2  -2   4   41.34    1.97
  -3   2  -4   10.11    1.05
  -3   2  -4   10.64    0.59
   3  -2   4   12.51    0.70
   3  -2   4   13.02    0.68
   3  -2   4   12.11    0.64
   4  -2   4    4.28    0.43
   4  -2   4    3.39    0.27
   4  -2   4    4.21    0.29
   4  -2   4    3.85    0.68
   4  -2   4    4.06    0.38
   4  -2   4    3.76    0.31
   4  -2   4    4.24    0.27
   4  -2   4    3.36    0.30
   4  -2   4    3.60    0.29
   4  -2   4    3.57    0.47
  -5   2  -4    5.26    0.35
   5  -2   4    6.03    0.59
   5  -2   4    5.86    0.51
   5  -2   4    5.80    0.41
   5  -2   4    5.56    0.36
   5  -2   4    5.73    0.39
   5  -2   4    5.54    0.51
   6  -2   4    3.35    0.24
   6  -2   4    2.98    0.30
   6  -2   4    3.61    0.24
   6  -2   4    3.28    0.33
   6   1  -4   13.99    0.71
   6   1  -4   12.43    0.82
   6   1  -4   15.43    0.80
   6   1  -4   16.20    0.87
   6   1  -4   13.14    0.85
  -6  -1   4   17.58    0.91
   5   1  -4    3.99    0.36
   5   1  -4    4.39    0.42
   5   1  -4    4.13    0.28
   5   1  -4    4.41    0.32
   5   1  -4    4.25    0.42
   5   1  -4    3.74    0.28
   5   1  -4    4.21    0.35
   5   1  -4    4.26    0.42
   5   1  -4    3.41    0.42
  -5  -1   4    4.70    0.33
  -5  -1   4    4.65    0.47
  -5  -1   4    4.21    0.36
   4   1  -4   23.65    1.28
   4   1  -4   26.89    1.45
   4   1  -4   22.76    1.39
   4   1  -4   24.99    1.32
   4   1  -4   23.48    1.49
   4   1  -4   23.04    1.38
   4   1  -4   24.96    1.22
   4   1  -4   25.00    1.19
  -4  -1   4   26.28    1.48
  -4  -1   4   27.68    1.35
  -4  -1   4   28.15    1.31
   3   1  -4   10.36    0.56
   3   1  -4   10.24    0.95
   3   1  -4   10.47    0.55
  -3  -1   4   15.16    0.82
  -3  -1   4   15.39    0.77
  -3  -1   4   15.21    0.82
  -3  -1   4   15.22    0.76
   2   1  -4    8.54    0.86
   2   1  -4    8.96    0.48
   2   1  -4    9.65    0.47
  -2  -1   4   12.39    0.63
  -2  -1   4   12.62    0.66
  -2  -1   4   12.50    0.68
   1   1  -4   35.01    1.94
   1   1  -4   33.00    1.54
   1   1  -4   34.99    1.57
   1   1  -4   34.22    1.59
  -1  -1   4   42.83    1.98
  -1  -1   4   40.10    1.92
  -1  -1   4   42.85    1.94
   0   1  -4  132.15    5.98
   0   1  -4  122.29    5.57
   0   1  -4  120.89    5.56
   0   1  -4  123.46    5.59
   0  -1   4  130.89    6.15
   0  -1   4  137.72    6.18
   0  -1   4  145.08    6.18
  -1   1  -4    8.00    0.73
  -1   1  -4    8.57    0.45
  -1   1  -4    7.77    0.42
  -1   1  -4    7.91    0.41
   1  -1   4    6.67    0.39
   1  -1   4    7.19    0.36
   1  -1   4    6.84    0.35
  -2   1  -4   60.12    2.72
  -2   1  -4   58.11    2.77
  -2   1  -4   61.22    2.78
   2  -1   4   53.51    2.47
   2  -1   4   53.92    2.45
   2  -1   4   52.03    2.43
   2  -1   4   54.84    2.50
  -3   1  -4    5.50    0.79
   3  -1   4   14.10    0.77
   3  -1   4   14.53    0.75
   3  -1   4   13.88    0.71
  -4   1  -4    0.03    0.07
   4  -1   4    7.59    0.89
   4  -1   4    8.35    0.47
   4  -1   4    6.59    0.61
   4  -1   4    7.69    0.50
   4  -1   4    7.83    0.44
  -5   1  -4   27.91    1.37
   5  -1   4   24.93    1.30
   5  -1   4   26.34    1.60
   5  -1   4   26.03    1.49
   5  -1   4   27.03    1.34
   5  -1   4   25.49    1.29
   5  -1   4   26.32    1.28
   6  -1   4    1.71    0.20
   6  -1   4    1.44    0.21
   6  -1   4    1.82    0.14
   6  -1   4    2.00    0.16
   6   0  -4    0.99    0.16
   6   0  -4    1.19    0.18
   6   0  -4    0.99    0.13
   6   0  -4    0.86    0.15
   5   0  -4   26.62    1.32
   5   0  -4   28.38    1.34
   5   0  -4   28.93    1.56
   5   0  -4   28.37    1.48
   5   0  -4   24.34    1.53
   5   0  -4   26.39    1.43
   5   0  -4   28.18    1.55
   5   0  -4   27.88    1.56
  -5   0   4   41.20    1.90
  -5   0   4   36.81    1.84
  -5   0   4   36.01    2.04
   4   0  -4   13.38    0.89
   4   0  -4   10.51    0.63
   4   0  -4   12.48    0.62
   4   0  -4   11.58    0.80
   4   0  -4   11.00    0.80
   4   0  -4   11.56    0.74
   4   0  -4   11.05    0.78
   4   0  -4   11.19    0.70
   4   0  -4   11.44    0.63
  -4   0   4   14.17    0.75
  -4   0   4   13.59    0.95
  -4   0   4   14.48    0.80
   3   0  -4   17.65    0.88
   3   0  -4   17.73    0.89
  -3   0   4   20.82    1.24
  -3   0   4   21.52    1.10
  -3   0   4   21.41    1.05
  -3   0   4   21.85    1.09
   2   0  -4   19.05    0.87
   2   0  -4   18.34    0.89
   2   0  -4   17.19    1.24
  -2   0   4   22.22    1.09
  -2   0   4   22.39    1.08
  -2   0   4   22.42    1.12
   1   0  -4  163.26    7.47
   1   0  -4  159.12    7.12
   1   0  -4  156.08    7.14
  -1   0   4  176.27    8.07
  -1   0   4  186.80    8.08
  -1   0   4  178.30    8.12
   0   0  -4   86.46    3.88
   0   0  -4   83.57    3.90
   0   0  -4   89.58    4.24
   0   0   4   90.76    3.97
   0   0   4   88.98    3.97
   0   0   4   84.43    3.95
   0   0   4   89.33    3.98
  -1   0  -4   19.91    0.94
  -1   0  -4   19.34    0.93
  -1   0  -4   19.06    0.95
   1   0   4   17.21    0.81
   1   0   4   17.69    0.86
   1   0   4   18.37    0.86
   1   0   4   17.39    0.83
  -2   0  -4   19.30    0.93
  -2   0  -4   18.63    0.93
  -2   0  -4   19.14    0.91
  -2   0  -4   17.20    1.41
   2   0   4   20.22    0.98
   2   0   4   20.26    1.01
   2   0   4   19.12    1.00
   2   0   4   20.84    0.96
  -3   0  -4   10.66    0.59
  -3   0  -4   11.38    0.56
  -3   0  -4    8.22    1.03
   3   0   4   13.12    0.68
   3   0   4   12.98    0.72
   3   0   4   12.48    0.81
   3   0   4   13.19    0.66
  -4   0  -4    3.99    0.29
  -4   0  -4    3.69    0.27
   4   0   4    3.00    0.21
   4   0   4    2.60    0.23
   4   0   4    2.97    0.22
   4   0   4    2.68    0.22
   4   0   4    2.77    0.25
   4   0   4    2.89    0.32
   4   0   4    3.27    0.36
   4   0   4    2.79    0.24
   4   0   4    3.04    0.41
   4   0   4    2.46    0.37
  -5   0  -4    1.12    0.12
   5   0   4    1.97    0.19
   5   0   4    2.32    0.38
   5   0   4    2.06    0.34
   5   0   4    2.34    0.27
   5   0   4    1.63    0.27
   5   0   4    1.71    0.20
   6   0   4    6.87    0.36
   6   0   4    6.41    0.52
   6   0   4    6.67    0.37
   6   0   4    7.08    0.39
   6  -1  -4    5.37    0.37
   6  -1  -4    4.92    0.35
   6  -1  -4    4.34    0.40
   6  -1  -4    5.48    0.41
   6  -1  -4    5.30    0.42
   5  -1  -4   15.11    0.91
   5  -1  -4   14.66    0.91
   5  -1  -4   14.16    0.96
   5  -1  -4   15.52    0.88
   5  -1  -4   15.33    0.98
   5  -1  -4   15.23    0.97
   5  -1  -4   14.94    0.79
   4  -1  -4   72.72    3.52
   4  -1  -4   73.48    3.28
   4  -1  -4   65.44    3.66
   4  -1  -4   74.67    3.54
   4  -1  -4   76.23    3.29
   4  -1  -4   72.27    3.62
   4  -1  -4   63.96    3.26
  -4   1   4   96.96    4.62
  -4   1   4   93.75    4.63
  -4   1   4   96.37    4.39
   3  -1  -4    3.88    0.27
   3  -1  -4    3.92    0.26
   3  -1  -4    5.14    0.43
  -3   1   4    5.20    0.36
  -3   1   4    4.83    0.31
  -3   1   4    4.60    0.42
   2  -1  -4   34.16    1.55
   2  -1  -4   32.07    1.56
   2  -1  -4   33.86    1.58
  -2   1   4   34.70    1.59
  -2   1   4   34.37    1.61
  -2   1   4   32.36    1.68
   1  -1  -4   32.50    1.49
   1  -1  -4   33.13    1.77
   1  -1  -4   32.13    1.52
  -1   1   4   39.38    1.91
  -1   1   4   41.66    1.87
  -1   1   4   39.88    1.86
   0  -1  -4  134.82    5.87
   0  -1  -4  127.26    5.89
   0  -1  -4  131.51    6.25
   0   1   4  143.26    6.26
   0   1   4  133.87    6.24
   0   1   4  139.27    6.28
   0   1   4  143.44    6.25
  -1  -1  -4   51.33    2.37
  -1  -1  -4   51.03    2.41
  -1  -1  -4   52.78    2.39
   1   1   4   54.66    2.58
   1   1   4   55.65    2.59
   1   1   4   58.84    2.59
  -2  -1  -4   40.04    1.96
  -2  -1  -4   48.00    2.71
  -2  -1  -4   40.96    1.98
  -2  -1  -4   39.86    1.98
   2   1   4   35.22    1.67
   2   1   4   37.02    1.71
   2   1   4   35.36    1.70
   2   1   4   36.33    1.66
   2   1   4   34.24    1.67
  -3  -1  -4   12.31    0.66
  -3  -1  -4   12.26    0.68
   3   1   4   10.33    0.60
   3   1   4    9.74    0.55
   3   1   4    9.31    0.53
   3   1   4   10.15    0.54
   3   1   4   10.11    0.70
  -4  -1  -4    4.06    0.31
  -4  -1  -4    4.92    0.33
  -4  -1  -4    5.04    0.34
   4   1   4    4.50    0.50
   4   1   4    3.60    0.28
   4   1   4    3.71    0.29
   4   1   4    3.91    0.40
   4   1   4    4.15    0.32
   4   1   4    3.78    0.41
   4   1   4    3.62    0.29
   4   1   4    3.95    0.41
   4   1   4    4.19    0.29
   4   1   4    3.09    0.53
   4   1   4    3.50    0.26
  -5  -1  -4   10.24    0.56
   5   1   4   10.89    0.74
   5   1   4   10.76    0.61
   5   1   4   10.98    0.61
   5   1   4    9.62    0.63
   5   1   4   10.83    0.74
   5   1   4   11.57    0.76
   5   1   4   10.45    0.60
   5   1   4   10.50    0.84
   6   1   4    3.34    0.21
   6   1   4    2.81    0.27
   6   1   4    3.32    0.23
   6   1   4    3.19    0.32
   6  -2  -4    0.67    0.13
   6  -2  -4    0.67    0.11
   6  -2  -4    0.55    0.09
   6  -2  -4    0.73    0.13
   6  -2  -4    0.63    0.11
   6  -2  -4    0.60    0.11
  -6   2   4    0.70    0.14
   5  -2  -4    6.52    0.57
   5  -2  -4    6.89    0.55
   5  -2  -4    7.34    0.61
   5  -2  -4    7.67    0.60
   5  -2  -4    7.16    0.50
   5  -2  -4    8.37    0.80
  -5   2   4    9.26    0.60
   4  -2  -4   18.24    0.94
   4  -2  -4   17.29    1.09
   4  -2  -4   18.93    1.15
   4  -2  -4   19.37    1.05
   4  -2  -4   19.01    1.14
   4  -2  -4   19.44    1.16
   4  -2  -4   18.29    1.10
  -4   2   4   25.96    1.58
  -4   2   4   27.93    1.42
  -4   2   4   27.33    1.36
   3  -2  -4   18.75    1.01
   3  -2  -4   19.14    0.97
   3  -2  -4   19.11    0.97
   3  -2  -4   21.93    1.14
  -3   2   4   23.44    1.18
  -3   2   4   23.79    1.16
  -3   2   4   24.01    1.21
  -3   2   4   21.82    1.29
   2  -2  -4   17.18    0.82
   2  -2  -4   16.70    0.83
   2  -2  -4   16.42    0.84
  -2   2   4   16.72    0.84
  -2   2   4   16.60    0.84
  -2   2   4   16.43    0.88
   1  -2  -4  100.82    4.51
   1  -2  -4   96.15    4.71
   1  -2  -4  103.41    4.49
   1  -2  -4   99.64    4.51
  -1   2   4  116.60    5.30
  -1   2   4  115.72    5.42
  -1   2   4  121.34    5.34
  -1   2   4  121.40    5.36
   0  -2  -4   73.07    3.13
   0  -2  -4   72.43    3.09
   0  -2  -4   60.45    3.45
   0   2   4   81.26    3.70
   0   2   4   83.38    3.69
   0   2   4   80.84    3.73
   0   2   4   83.86    3.73
  -1  -2  -4  147.01    6.80
  -1  -2  -4  151.53    6.76
  -1  -2  -4  152.69    7.35
   1   2   4  161.11    7.50
   1   2   4  171.28    7.52
   1   2   4  167.76    7.53
   1   2   4  168.68    7.48
  -2  -2  -4   40.01    1.97
  -2  -2  -4   48.26    1.99
  -2  -2  -4   38.89    2.00
  -2  -2  -4   40.66    2.67
   2   2   4   33.57    1.58
   2   2   4   31.39    1.57
   2   2   4   33.86    1.76
   2   2   4   34.19    2.19
   2   2   4   34.34    1.60
   2   2   4   33.98    1.63
  -3  -2  -4   12.69    0.70
  -3  -2  -4   13.10    0.69
  -3  -2  -4   12.27    0.72
   3   2   4   12.61    0.86
   3   2   4   12.89    0.70
   3   2   4   12.93    0.74
   3   2   4   13.21    0.68
  -4  -2  -4   65.75    3.03
  -4  -2  -4   64.52    3.01
  -4  -2  -4   61.81    3.00
   4   2   4   58.10    3.01
   4   2   4   64.84    2.95
   4   2   4   66.87    3.87
   4   2   4   61.40    3.07
   4   2   4   63.85    3.22
   4   2   4   63.27    3.18
   4   2   4   67.21    2.98
   4   2   4   60.11    3.32
   4   2   4   66.17    3.03
  -5  -2  -4   21.10    1.04
   5   2   4   19.80    1.19
   5   2   4   20.51    1.30
   5   2   4   20.49    1.03
   5   2   4   22.37    1.19
   5   2   4   20.69    1.04
   5   2   4   18.88    1.18
   5   2   4   18.14    1.13
   5   2   4   20.61    1.03
   5   2   4   20.26    1.00
   6   2   4    4.34    0.50
   6   2   4    5.37    0.29
   6   2   4    4.99    0.35
   6  -3  -4   27.82    1.43
   6  -3  -4   28.94    1.49
   6  -3  -4   33.80    1.72
   6  -3  -4   28.47    1.58
   5  -3  -4   33.07    1.61
   5  -3  -4   27.73    1.71
   5  -3  -4   32.58    1.67
   5  -3  -4   33.08    1.74
   5  -3  -4   30.23    1.68
   5  -3  -4   32.57    1.69
   4  -3  -4   21.87    1.26
   4  -3  -4   21.64    1.30
   4  -3  -4   22.79    1.11
   4  -3  -4   23.56    1.21
   4  -3  -4   20.81    1.30
   4  -3  -4   21.32    1.30
   4  -3  -4   22.72    1.28
  -4   3   4   31.30    1.64
  -4   3   4   32.27    1.58
   3  -3  -4   27.27    1.37
   3  -3  -4   28.13    1.34
  -3   3   4   28.92    1.50
  -3   3   4   31.06    1.49
  -3   3   4   30.74    1.55
   2  -3  -4   10.76    0.56
   2  -3  -4   10.57    0.56
  -2   3   4   14.14    0.74
  -2   3   4   14.19    0.80
   1  -3  -4  117.92    5.41
   1  -3  -4  120.93    5.39
   1  -3  -4  120.91    5.40
  -1   3   4  134.71    6.00
  -1   3   4  133.88    5.98
  -1   3   4  130.12    6.07
   0  -3  -4   22.17    0.98
   0  -3  -4   21.16    1.01
   0  -3  -4   18.95    1.33
   0  -3  -4   21.36    1.07
   0   3   4   20.50    0.99
   0   3   4   20.43    1.00
   0   3   4   20.07    0.96
   0   3   4   20.47    0.99
  -1  -3  -4   41.95    1.90
  -1  -3  -4   39.05    1.95
   1   3   4   45.83    2.15
   1   3   4   45.81    2.10
   1   3   4   44.76    2.10
  -2  -3  -4    7.82    0.98
  -2  -3  -4    8.28    0.49
  -2  -3  -4    9.26    0.50
   2   3   4    9.88    0.69
   2   3   4    9.20    0.57
   2   3   4    9.97    0.54
   2   3   4    9.33    0.51
   2   3   4    9.52    0.99
  -3  -3  -4   15.25    0.87
  -3  -3  -4   17.48    0.95
  -3  -3  -4   18.18    0.91
  -3  -3  -4   16.83    1.76
   3   3   4   17.78    1.22
   3   3   4   18.94    0.93
   3   3   4   18.79    1.00
   3   3   4   19.19    1.17
   3   3   4   18.01    1.13
   3   3   4   19.74    0.96
   3   3   4   18.76    1.20
   3   3   4   15.51    1.02
   3   3   4   17.76    1.11
  -4  -3  -4   30.58    1.60
  -4  -3  -4   26.54    1.35
  -4  -3  -4   26.51    1.42
   4   3   4   24.99    1.47
   4   3   4   26.27    1.34
   4   3   4   25.38    1.25
   4   3   4   26.19    1.61
   4   3   4   25.16    1.30
   4   3   4   25.28    1.30
   4   3   4   24.55    1.46
   4   3   4   26.03    1.29
   4   3   4   25.81    1.51
   4   3   4   24.10    1.44
  -5  -3  -4    2.18    0.48
   5   3   4    3.98    0.44
   5   3   4    4.01    0.39
   5   3   4    3.60    0.37
   5   3   4    3.94    0.27
   5   3   4    3.96    0.25
   6  -4  -4    4.53    0.31
   6  -4  -4    4.14    0.31
   6  -4  -4    4.51    0.35
   6  -4  -4    3.82    0.30
   6  -4  -4    4.70    0.35
   5  -4  -4   12.36    0.74
   5  -4  -4   11.25    0.69
   5  -4  -4   12.72    0.77
   5  -4  -4   10.57    0.80
   5  -4  -4   13.19    0.82
   5  -4  -4    9.58    0.75
   4  -4  -4   15.79    0.99
   4  -4  -4   16.26    1.02
   4  -4  -4   15.05    1.01
   4  -4  -4   14.86    0.94
   4  -4  -4   15.95    0.90
   4  -4  -4   14.41    0.97
  -4   4   4   13.14    1.77
   3  -4  -4   51.57    2.61
   3  -4  -4   47.41    2.28
   3  -4  -4   46.97    2.46
   3  -4  -4   48.75    2.39
   3  -4  -4   49.23    2.51
  -3   4   4   27.31    1.94
   2  -4  -4   29.45    1.42
   2  -4  -4   28.70    1.39
  -2   4   4   33.87    1.61
  -2   4   4   32.70    1.61
   1  -4  -4   49.67    2.34
   1  -4  -4   50.66    2.34
   1  -4  -4   51.80    2.33
  -1   4   4   59.79    2.76
  -1   4   4   60.00    2.78
  -1   4   4   60.74    2.88
   0  -4  -4   60.23    2.75
   0  -4  -4   59.06    2.71
   0   4   4   64.71    3.09
   0   4   4   68.05    3.05
   0   4   4   68.39    3.07
  -1  -4  -4   17.76    0.92
  -1  -4  -4   19.62    0.98
  -1  -4  -4   17.17    0.97
   1   4   4   20.04    0.99
   1   4   4   20.41    1.17
   1   4   4   19.98    1.04
  -2  -4  -4  110.01    4.94
  -2  -4  -4  107.76    5.02
  -2  -4  -4  106.53    4.93
   2   4   4   96.68    4.82
   2   4   4  106.24    4.76
   2   4   4  106.89    5.15
   2   4   4  110.82    4.83
   2   4   4   99.45    4.80
   2   4   4  109.09    4.84
   2   4   4  103.46    5.61
  -3  -4  -4   13.02    0.95
  -3  -4  -4   13.76    1.45
  -3  -4  -4   12.89    0.74
  -3  -4  -4   13.85    0.76
  -3  -4  -4   14.08    0.82
   3   4   4   12.45    0.73
   3   4   4   12.20    0.89
   3   4   4   12.10    0.69
   3   4   4   12.97    0.88
   3   4   4   12.73    0.69
   3   4   4   13.89    0.89
   3   4   4   12.83    0.74
   3   4   4   13.00    0.88
   3   4   4   13.64    0.93
   3   4   4   12.47    0.71
   3   4   4   13.42    1.00
  -4  -4  -4   12.46    0.88
  -4  -4  -4   12.78    0.73
  -4  -4  -4   13.40    0.84
   4   4   4   11.60    0.80
   4   4   4   12.43    0.77
   4   4   4   10.46    0.87
   4   4   4   10.85    0.76
   4   4   4   11.38    0.91
   4   4   4   10.76    0.68
   4   4   4   10.70    0.93
   4   4   4   11.42    0.73
  -5  -4  -4    2.58    0.19
  -5  -4  -4    2.56    0.20
  -5  -4  -4    2.06    0.42
  -5  -4  -4    2.03    0.18
   5   4   4    1.46    0.20
   5   4   4    1.72    0.26
   5   4   4    1.81    0.15
   5   4   4    1.95    0.19
   5   4   4    1.50    0.22
   5   4   4    1.79    0.16
   5   4   4    1.80    0.16
   6  -5  -4    1.12    0.15
   6  -5  -4    1.04    0.15
   5  -5  -4    0.97    0.17
   5  -5  -4    1.09    0.17
   5  -5  -4    1.21    0.18
   5  -5  -4    1.10    0.14
   5  -5  -4    1.23    0.16
   4  -5  -4    0.80    0.16
   4  -5  -4    0.82    0.14
   4  -5  -4    0.84    0.17
   4  -5  -4    0.75    0.16
   4  -5  -4    1.02    0.19
   4  -5  -4    0.82    0.17
   4  -5  -4    0.80    0.16
  -4   5   4    1.17    0.20
  -4   5   4    1.18    0.22
  -4   5   4    1.01    0.20
   3  -5  -4    6.03    0.45
   3  -5  -4    5.90    0.47
   3  -5  -4    5.74    0.49
   3  -5  -4    5.80    0.38
   3  -5  -4    5.95    0.51
   3  -5  -4    6.02    0.53
   3  -5  -4    6.22    0.53
   3  -5  -4    5.91    0.51
  -3   5   4    7.29    0.49
  -3   5   4    7.73    0.56
  -3   5   4    7.99    0.69
  -3   5   4    8.00    0.61
   2  -5  -4    1.46    0.14
   2  -5  -4    0.88    0.61
   2  -5  -4    1.43    0.21
   2  -5  -4    1.00    0.19
   2  -5  -4    1.50    0.20
   2  -5  -4    1.49    0.25
   2  -5  -4    1.27    0.21
  -2   5   4    1.60    0.28
  -2   5   4    2.26    0.28
  -2   5   4    1.82    0.26
  -2   5   4    1.89    0.21
  -2   5   4    1.68    0.17
  -2   5   4    2.05    0.25
   1  -5  -4   20.54    1.01
  -1   5   4   26.23    1.29
   0  -5  -4   32.09    1.54
   0   5   4   36.11    1.91
   0   5   4   37.41    1.78
   0   5   4   36.77    1.72
   0   5   4   36.38    1.73
  -1  -5  -4   51.87    2.30
  -1  -5  -4   50.20    2.57
  -1  -5  -4   47.39    2.29
  -1  -5  -4   48.76    2.38
  -1  -5  -4   49.14    2.30
  -1  -5  -4   45.19    2.33
   1   5   4   50.67    2.58
   1   5   4   56.17    2.54
   1   5   4   51.57    2.55
   1   5   4   56.14    2.77
   1   5   4   59.09    2.87
   1   5   4   56.86    2.84
   1   5   4   53.25    2.61
  -2  -5  -4   18.75    1.03
  -2  -5  -4   21.05    1.29
  -2  -5  -4   20.00    1.13
  -2  -5  -4   20.83    1.05
  -2  -5  -4   20.95    1.87
  -2  -5  -4   19.57    1.04
   2   5   4   19.94    1.08
   2   5   4   19.03    1.30
   2   5   4   19.59    1.26
   2   5   4   18.34    1.00
   2   5   4   20.19    1.07
   2   5   4   20.99    1.01
   2   5   4   21.38    1.26
   2   5   4   19.55    1.17
   2   5   4   19.02    1.04
   2   5   4   18.58    1.02
   2   5   4   19.89    1.22
  -3  -5  -4   41.02    1.96
  -3  -5  -4   45.70    2.14
  -3  -5  -4   38.91    1.96
  -3  -5  -4   41.26    2.07
  -3  -5  -4   37.88    2.19
   3   5   4   44.81    2.38
   3   5   4   40.99    2.03
   3   5   4   39.66    2.15
   3   5   4   40.08    2.21
   3   5   4   40.28    2.22
   3   5   4   39.60    1.99
   3   5   4   40.95    2.03
   3   5   4   44.41    2.21
   3   5   4   38.34    1.95
   3   5   4   39.71    1.94
   3   5   4   38.98    1.97
  -4  -5  -4   10.45    0.57
  -4  -5  -4   10.04    0.59
  -4  -5  -4   10.80    0.63
   4   5   4   11.13    0.80
   4   5   4   11.75    0.65
   4   5   4   11.47    0.64
   4   5   4   10.80    0.79
   4   5   4   11.57    0.63
   4   5   4   12.22    0.90
   4   5   4    9.09    0.77
   4   5   4   11.89    0.61
   4   5   4   11.37    0.78
   5   5   4   11.75    0.60
   5   5   4   10.93    0.69
   5   5   4   11.74    0.60
   5   5   4   12.18    0.61
   5  -6  -4    6.18    0.52
   5  -6  -4    7.76    0.53
   5  -6  -4    7.75    0.51
   4  -6  -4    3.96    0.33
   4  -6  -4    3.91    0.39
   4  -6  -4    3.90    0.37
   4  -6  -4    4.01    0.34
   4  -6  -4    4.53    0.41
   4  -6  -4    4.22    0.41
   3  -6  -4    4.70    0.38
   3  -6  -4    5.01    0.47
   3  -6  -4    4.31    0.39
   3  -6  -4    4.31    0.42
   3  -6  -4    4.82    0.43
   3  -6  -4    4.52    0.30
   3  -6  -4    4.18    0.43
   3  -6  -4    4.05    0.37
   2  -6  -4   19.69    1.19
   2  -6  -4   18.16    1.01
   2  -6  -4   17.83    1.05
   2  -6  -4   17.80    1.09
   2  -6  -4   17.84    0.91
   2  -6  -4   15.23    2.02
   2  -6  -4   17.86    0.92
   1  -6  -4   69.45    5.70
   1  -6  -4   59.69    3.06
   1  -6  -4   66.88    3.28
   1  -6  -4   63.04    3.07
   1  -6  -4   65.20    2.96
   1  -6  -4   61.31    3.02
   1  -6  -4   64.34    3.24
  -1   6   4   78.23    3.89
  -1   6   4   77.98    3.96
  -1   6   4   72.10    3.70
  -1   6   4   78.34    3.58
  -1   6   4   81.86    3.86
   0  -6  -4    7.15    0.43
   0  -6  -4    7.42    0.63
   0  -6  -4    6.17    0.43
   0   6   4    9.29    0.74
   0   6   4    9.25    0.81
   0   6   4    8.63    0.49
   0   6   4    9.29    0.74
   0   6   4    8.36    0.54
  -1  -6  -4    4.74    0.37
  -1  -6  -4    5.45    0.52
  -1  -6  -4    5.01    0.34
  -1  -6  -4    4.66    0.33
   1   6   4    3.79    0.31
   1   6   4    3.89    0.30
   1   6   4    3.76    0.31
   1   6   4    3.89    0.44
   1   6   4    3.81    0.39
   1   6   4    4.07    0.29
   1   6   4    3.99    0.35
   1   6   4    3.87    0.44
   1   6   4    3.68    0.29
  -2  -6  -4   10.41    0.65
  -2  -6  -4   10.58    0.61
  -2  -6  -4   10.11    0.79
  -2  -6  -4   11.86    0.73
  -2  -6  -4   12.32    0.75
  -2  -6  -4   10.08    0.62
   2   6   4   11.93    0.70
   2   6   4   11.52    0.67
   2   6   4   12.56    0.83
   2   6   4   13.65    0.96
   2   6   4   13.25    0.78
   2   6   4   12.53    0.76
   2   6   4   12.85    0.73
   2   6   4   12.29    0.69
   2   6   4   12.13    0.95
   2   6   4   13.18    0.90
  -3  -6  -4    2.94    0.25
  -3  -6  -4    3.26    0.36
  -3  -6  -4    3.31    0.29
  -3  -6  -4    3.43    0.33
  -3  -6  -4    3.37    0.25
   3   6   4    3.69    0.29
   3   6   4    4.12    0.44
   3   6   4    3.86    0.38
   3   6   4    3.84    0.46
   3   6   4    3.74    0.28
   3   6   4    4.16    0.28
   3   6   4    3.73    0.32
   3   6   4    3.63    0.40
   3   6   4    3.99    0.31
  -4  -6  -4    0.40    0.07
  -4  -6  -4    0.43    0.08
  -4  -6  -4    0.31    0.06
   4   6   4    0.41    0.09
   4   6   4    0.39    0.08
   4   6   4    0.48    0.07
   4   6   4    0.42    0.13
   4   6   4    0.39    0.07
   4   6   4    0.46    0.12
   4   6   4    0.41    0.13
   4   6   4    0.41    0.07
   5  -7  -4    1.70    0.20
   4  -7  -4   17.78    1.00
   4  -7  -4   17.15    0.95
   4  -7  -4   15.01    1.00
   4  -7  -4   18.99    1.05
   4  -7  -4   17.66    0.95
   4  -7  -4   18.75    1.03
   3  -7  -4    6.08    0.49
   3  -7  -4    6.43    0.46
   3  -7  -4    5.84    0.50
   3  -7  -4    6.13    0.47
   3  -7  -4    5.90    0.54
   3  -7  -4    6.26    0.37
   2  -7  -4    2.74    0.33
   2  -7  -4    3.63    0.30
   2  -7  -4    3.50    0.41
   2  -7  -4    2.66    0.81
   2  -7  -4    3.32    0.31
   2  -7  -4    3.45    0.25
   2  -7  -4    3.38    0.25
  -2   7   4    4.52    0.48
  -2   7   4    4.86    0.35
  -2   7   4    4.74    0.42
  -2   7   4    4.56    0.47
   1  -7  -4   25.65    1.25
   1  -7  -4   26.86    1.56
   1  -7  -4   25.12    1.28
   1  -7  -4   22.68    1.39
   1  -7  -4   24.93    1.26
  -1   7   4   30.51    1.66
  -1   7   4   34.09    1.85
  -1   7   4   30.06    1.74
   0  -7  -4   68.13    3.21
   0  -7  -4   65.51    3.24
   0  -7  -4   73.41    3.54
   0   7   4   70.17    3.36
   0   7   4   72.59    3.44
   0   7   4   71.44    3.63
  -1  -7  -4   45.42    2.19
  -1  -7  -4   45.48    2.24
  -1  -7  -4   44.21    2.50
  -1  -7  -4   48.09    2.48
   1   7   4   42.25    2.08
   1   7   4   40.12    2.28
   1   7   4   41.44    2.01
   1   7   4   41.15    2.11
   1   7   4   43.95    2.21
   1   7   4   44.30    2.33
   1   7   4   43.43    2.06
   1   7   4   40.58    2.01
  -2  -7  -4   16.05    1.05
  -2  -7  -4   17.06    0.85
  -2  -7  -4   13.74    1.11
  -2  -7  -4   16.57    0.90
   2   7   4   14.35    0.94
   2   7   4   14.60    0.81
   2   7   4   14.23    0.78
   2   7   4   14.64    1.02
   2   7   4   14.80    1.01
   2   7   4   14.69    0.85
   2   7   4   14.27    0.84
  -3  -7  -4    2.13    0.46
  -3  -7  -4    1.62    0.30
  -3  -7  -4    1.44    0.15
  -3  -7  -4    1.44    0.14
   3   7   4    1.04    0.11
   3   7   4    0.85    0.14
   3   7   4    0.97    0.23
   3   7   4    1.10    0.12
   3   7   4    0.89    0.16
   3   7   4    0.96    0.21
  -4  -7  -4    6.55    0.56
  -4  -7  -4    8.01    0.42
   4   7   4    7.34    0.49
   4   7   4    7.26    0.42
   4   7   4    7.68    0.39
   4   7   4    5.97    0.50
   4   7   4    6.70    0.49
   4  -8  -4    8.39    0.53
   4  -8  -4    7.33    0.47
  -4   8   4    6.98    0.45
   3  -8  -4    1.25    0.19
   3  -8  -4    0.98    0.18
   3  -8  -4    1.18    0.11
   3  -8  -4    0.92    0.14
  -3   8   4    1.00    0.15
  -3   8   4    1.11    0.19
   2  -8  -4    1.63    0.23
   2  -8  -4    1.53    0.16
   2  -8  -4    1.67    0.15
   2  -8  -4    1.57    0.25
  -2   8   4    1.99    0.27
  -2   8   4    1.80    0.22
  -2   8   4    2.04    0.27
   1  -8  -4    8.23    0.67
   1  -8  -4    7.75    0.47
   1  -8  -4    7.28    0.48
  -1   8   4   10.45    0.69
  -1   8   4    9.78    0.72
  -1   8   4   10.59    0.79
   0  -8  -4    4.82    0.49
   0  -8  -4    4.42    0.31
   0  -8  -4    4.27    0.33
   0   8   4    4.34    0.38
   0   8   4    4.38    0.46
  -1  -8  -4   26.85    1.23
  -1  -8  -4   22.87    1.45
  -1  -8  -4   25.66    1.27
  -1  -8  -4   22.21    1.42
   1   8   4   23.26    1.38
   1   8   4   24.48    1.23
   1   8   4   19.94    1.30
   1   8   4   22.69    1.26
  -2  -8  -4    1.91    0.17
  -2  -8  -4    2.03    0.21
  -2  -8  -4    1.55    0.26
  -2  -8  -4    1.77    0.24
   2   8   4    1.01    0.14
   2   8   4    0.96    0.18
   2   8   4    1.15    0.12
   2   8   4    1.30    0.23
  -3  -8  -4    4.11    0.25
  -3  -8  -4    4.20    0.28
  -3  -8  -4    4.08    0.41
   3   8   4    3.84    0.37
   3   8   4    4.19    0.37
   3   8   4    4.50    0.26
   3  -9  -4    0.54    0.11
   3  -9  -4    0.75    0.07
  -3   9   4    0.82    0.14
   2  -9  -4   12.78    0.81
   2  -9  -4   11.56    0.62
  -2   9   4   14.33    0.75
  -2   9   4   10.46    0.77
   1  -9  -4    1.30    0.13
   1  -9  -4    1.11    0.20
   1  -9  -4    1.40    0.14
  -1   9   4    1.07    0.17
  -1   9   4    1.01    0.15
   0  -9  -4   23.93    1.19
   0  -9  -4   22.94    1.35
   0  -9  -4   23.33    1.15
   0   9   4   25.19    1.38
   0   9   4   22.41    1.24
  -1  -9  -4    6.64    0.41
  -1  -9  -4    6.49    0.38
  -1  -9  -4    6.31    0.54
   1   9   4    7.39    0.54
   1   9   4    5.50    0.41
  -2  -9  -4   10.53    0.56
  -2  -9  -4    9.89    0.53
   2   9   4    9.98    0.57
   2   9   4   11.00    0.68
   2 -10  -4    5.12    0.37
  -2  10   4    4.88    0.32
   1 -10  -4    5.63    0.42
  -1  10   4   11.15    0.62
   0 -10  -4    5.52    0.40
   0  10   4    7.75    0.46
  -1 -11   5    9.45    0.67
   0  11  -5    0.34    0.08
   0 -11   5    0.59    0.13
  -1  11  -5   10.83    0.67
  -1  11  -5   10.22    0.64
   1 -11   5    9.64    0.49
   1 -11   5    8.21    0.64
  -2  11  -5    4.59    0.42
   2 -11   5    4.48    0.28
   2 -11   5    4.02    0.36
   2  10  -5    7.59    0.48
   2  10  -5   10.29    0.77
  -2 -10   5    8.15    0.65
  -2 -10   5    9.49    0.53
   1  10  -5    3.23    0.32
   1  10  -5    2.65    0.29
  -1 -10   5    4.00    0.28
  -1 -10   5    3.96    0.45
   0  10  -5    1.13    0.19
   0  10  -5    1.20    0.20
   0 -10   5    1.67    0.34
   0 -10   5    1.64    0.17
   0 -10   5    1.74    0.16
  -1  10  -5    2.97    0.34
  -1  10  -5    3.44    0.35
   1 -10   5    3.41    0.42
   1 -10   5    3.78    0.27
  -2  10  -5    1.21    0.20
  -2  10  -5    1.05    0.23
   2 -10   5    1.84    0.17
   2 -10   5    1.53    0.15
   2 -10   5    1.90    0.28
  -3  10  -5   10.23    0.66
  -3  10  -5    9.23    0.58
   3 -10   5    9.00    0.54
   3 -10   5    8.98    0.49
   3 -10   5    8.09    0.61
   3 -10   5    9.16    0.46
   3   9  -5    8.38    0.62
   3   9  -5   10.59    0.61
   3   9  -5   10.39    0.57
  -3  -9   5   13.72    0.79
  -3  -9   5   10.83    0.79
  -3  -9   5   13.40    0.68
   2   9  -5    6.59    0.53
   2   9  -5    6.05    0.44
   2   9  -5    5.48    0.47
   2   9  -5    6.44    0.42
  -2  -9   5    5.37    0.68
  -2  -9   5    7.12    0.43
  -2  -9   5    7.12    0.52
   1   9  -5   17.81    1.14
   1   9  -5   19.21    1.16
  -1  -9   5   22.57    1.08
  -1  -9   5   18.53    1.35
   0   9  -5    6.33    0.58
   0   9  -5    7.65    0.62
   0  -9   5    7.79    0.49
   0  -9   5    8.24    0.50
   0  -9   5    8.64    0.79
  -1   9  -5   70.59    3.52
  -1   9  -5   76.11    3.64
  -1   9  -5   74.09    3.69
   1  -9   5   84.08    3.83
   1  -9   5   79.32    3.92
   1  -9   5   84.45    4.24
   1  -9   5   81.28    3.79
  -2   9  -5   15.44    0.99
  -2   9  -5   16.87    1.10
  -2   9  -5   16.18    0.99
   2  -9   5   16.30    0.84
   2  -9   5   15.51    1.15
   2  -9   5   17.03    0.99
   2  -9   5   17.09    0.90
  -3   9  -5    9.15    0.71
  -3   9  -5    9.96    0.67
   3  -9   5   10.65    0.79
   3  -9   5    9.97    0.58
   3  -9   5   10.04    0.54
   3  -9   5    9.06    0.66
   3  -9   5   10.24    0.67
  -4   9  -5    9.88    0.65
   4  -9   5   13.62    0.64
   4  -9   5   11.18    0.75
   4  -9   5   13.64    0.66
   4  -9   5   10.59    0.87
   4  -9   5   11.32    0.73
   4  -9   5   14.19    0.75
   4  -9   5   13.20    0.90
   4   8  -5    7.27    0.52
   4   8  -5    9.59    0.59
   4   8  -5    7.56    0.55
   4   8  -5    9.38    0.51
   4   8  -5    9.64    0.46
   3   8  -5    7.74    0.44
   3   8  -5    8.08    0.52
   3   8  -5    7.18    0.57
   3   8  -5    6.78    0.51
   3   8  -5    7.05    0.40
   3   8  -5    6.59    0.51
  -3  -8   5    9.05    0.68
  -3  -8   5    9.90    0.55
  -3  -8   5    7.64    0.67
   2   8  -5    6.54    0.52
   2   8  -5    7.10    0.49
   2   8  -5    7.06    0.68
   2   8  -5    7.70    0.79
  -2  -8   5    8.19    0.78
  -2  -8   5    9.23    0.69
   1   8  -5   10.52    0.66
   1   8  -5   10.35    0.70
   1   8  -5   11.51    0.83
   1   8  -5   11.19    0.81
  -1  -8   5   12.45    1.00
  -1  -8   5   12.08    0.70
  -1  -8   5   12.78    0.78
  -1  -8   5   11.24    0.80
   0   8  -5   39.90    2.23
   0   8  -5   45.07    2.11
   0   8  -5   48.56    2.40
   0   8  -5   45.75    2.41
   0  -8   5   52.01    2.44
   0  -8   5   55.50    2.91
   0  -8   5   49.88    2.46
   0  -8   5   49.84    2.46
  -1   8  -5   16.80    1.09
  -1   8  -5   16.40    1.04
  -1   8  -5   19.01    1.19
   1  -8   5   19.53    1.30
   1  -8   5   16.04    0.87
   1  -8   5   18.73    0.99
   1  -8   5   16.71    0.92
   1  -8   5   16.55    1.03
   1  -8   5   15.84    0.89
  -2   8  -5   20.55    1.25
  -2   8  -5   24.02    1.09
  -2   8  -5   18.92    1.31
  -2   8  -5   21.80    1.28
   2  -8   5   20.26    1.03
   2  -8   5   18.14    1.15
   2  -8   5   20.29    1.08
   2  -8   5   20.13    1.30
   2  -8   5   20.24    1.22
   2  -8   5   21.42    1.42
   2  -8   5   20.11    1.20
   2  -8   5   20.93    1.03
   3  -8   5   14.68    0.97
   3  -8   5   15.71    1.11
   3  -8   5   14.84    0.83
   3  -8   5   15.91    1.03
   3  -8   5   14.65    0.78
   3  -8   5   15.58    0.96
   3  -8   5   14.77    0.93
   3  -8   5   13.12    1.27
   4  -8   5    9.38    0.50
   4  -8   5    9.72    0.62
   4  -8   5    7.73    0.83
   4  -8   5    9.66    0.53
   4  -8   5    7.53    0.66
   4  -8   5    8.54    0.60
   4  -8   5    9.78    0.66
   4  -8   5    9.01    0.65
   5  -8   5    6.02    0.43
   5  -8   5    7.20    0.37
   5  -8   5    7.55    0.47
   5  -8   5    6.83    0.44
   5  -8   5    7.13    0.43
   5   7  -5    3.20    0.24
   4   7  -5    6.41    0.47
   4   7  -5    5.98    0.48
   4   7  -5    7.01    0.53
   4   7  -5    6.57    0.38
   4   7  -5    6.11    0.47
   4   7  -5    7.03    0.45
   4   7  -5    6.43    0.38
  -4  -7   5    6.41    0.55
  -4  -7   5    6.17    0.54
  -4  -7   5    7.08    0.42
   3   7  -5   19.74    1.00
   3   7  -5   16.60    1.24
   3   7  -5   21.07    1.20
   3   7  -5   20.37    1.30
   3   7  -5   21.48    1.11
   3   7  -5   19.48    1.19
   3   7  -5   19.97    1.20
   3   7  -5   21.11    1.10
  -3  -7   5   29.24    1.66
  -3  -7   5   35.77    1.92
  -3  -7   5   28.00    1.78
   2   7  -5   17.05    1.09
   2   7  -5   17.91    1.11
   2   7  -5   15.94    0.88
   2   7  -5   16.77    1.11
   2   7  -5   16.65    0.96
   2   7  -5   17.21    1.03
  -2  -7   5   19.99    1.36
  -2  -7   5   19.59    1.06
  -2  -7   5   18.76    1.20
  -2  -7   5   20.49    1.26
  -2  -7   5   19.89    1.03
   1   7  -5    0.42    0.08
   1   7  -5    0.67    0.18
   1   7  -5    0.47    0.16
   1   7  -5    0.50    0.16
  -1  -7   5    0.70    0.12
   0   7  -5   18.69    1.16
   0   7  -5   19.77    0.91
   0   7  -5   16.61    1.30
   0   7  -5   16.33    1.17
   0  -7   5   21.01    1.36
   0  -7   5   19.15    0.97
   0  -7   5   17.20    1.24
   0  -7   5   18.98    1.19
  -1   7  -5    0.14    0.48
  -1   7  -5    1.20    0.12
   1  -7   5    2.53    0.26
   1  -7   5    1.89    0.26
   1  -7   5    2.07    0.22
   1  -7   5    1.85    0.18
   1  -7   5    2.36    0.19
   1  -7   5    1.98    0.34
   2  -7   5   41.62    2.22
   2  -7   5   42.95    2.44
   2  -7   5   40.13    2.00
   2  -7   5   41.57    2.00
   2  -7   5   40.16    2.17
   2  -7   5   46.89    2.32
   2  -7   5   39.33    2.03
   2  -7   5   42.48    2.17
   2  -7   5   40.46    1.99
   3  -7   5   21.72    1.14
   3  -7   5   22.61    1.32
   3  -7   5   22.32    1.13
   3  -7   5   22.54    1.18
   3  -7   5   22.53    1.37
   3  -7   5   25.15    1.91
   3  -7   5   20.86    1.48
   3  -7   5   22.12    1.36
   3  -7   5   22.11    1.30
   4  -7   5    6.99    0.42
   4  -7   5    6.82    0.64
   4  -7   5    7.35    0.46
   4  -7   5    7.52    0.57
   4  -7   5    5.77    0.53
   4  -7   5    7.00    0.54
   4  -7   5    6.69    0.57
  -5   7  -5    7.46    0.52
   5  -7   5    6.66    0.52
   5  -7   5    6.21    0.69
   5  -7   5    8.21    0.44
   5  -7   5    7.28    0.61
   5  -7   5    8.08    0.43
   5  -7   5    8.04    0.50
   5  -7   5    7.86    0.52
   5   6  -5    5.30    0.36
   5   6  -5    6.06    0.35
   5   6  -5    5.09    0.40
   5   6  -5    4.83    0.40
   5   6  -5    6.11    0.40
   4   6  -5   18.13    0.88
   4   6  -5   17.84    1.04
   4   6  -5   18.48    0.89
   4   6  -5   15.72    1.04
   4   6  -5   15.75    1.02
   4   6  -5   17.69    0.97
   4   6  -5   19.44    1.11
   4   6  -5   14.93    1.13
   3   6  -5  106.84    5.10
   3   6  -5   91.77    5.22
   3   6  -5  105.53    5.00
   3   6  -5  116.68    5.20
   3   6  -5  101.50    5.14
   3   6  -5  104.72    4.90
   3   6  -5  110.45    4.93
   3   6  -5  108.42    4.91
   3   6  -5  120.03    5.17
  -3  -6   5  144.43    6.56
  -3  -6   5  144.94    6.51
  -3  -6   5  140.65    6.53
   2   6  -5   25.50    1.40
   2   6  -5   29.06    1.65
   2   6  -5   28.62    1.58
   2   6  -5   28.67    1.41
   2   6  -5   29.07    1.63
   2   6  -5   33.51    1.76
   2   6  -5   28.70    1.50
  -2  -6   5   32.54    2.00
  -2  -6   5   30.42    1.52
  -2  -6   5   30.44    1.57
  -2  -6   5   32.22    1.54
   1   6  -5   69.67    3.38
   1   6  -5   69.96    3.10
   1   6  -5   71.32    3.36
   1   6  -5   58.56    3.10
  -1  -6   5   72.77    3.52
  -1  -6   5   78.78    3.49
   0   6  -5   13.75    1.44
   0   6  -5   14.78    0.86
   0  -6   5   15.90    0.88
   0  -6   5   16.44    0.83
   1  -6   5   43.88    2.20
   1  -6   5   44.18    2.11
   1  -6   5   44.32    2.12
   1  -6   5   47.83    2.90
   1  -6   5   45.70    2.50
   2  -6   5   53.29    2.64
   2  -6   5   56.10    3.02
   2  -6   5   57.69    2.61
   2  -6   5   54.76    2.82
   2  -6   5   56.47    2.86
   2  -6   5   54.91    2.91
   3  -6   5   20.14    1.57
   3  -6   5   19.92    1.05
   3  -6   5   18.80    1.27
   3  -6   5   19.45    1.04
   3  -6   5   22.67    1.49
   3  -6   5   19.85    1.09
   4  -6   5    6.85    0.47
   4  -6   5    7.60    0.63
   4  -6   5    6.93    0.58
   4  -6   5    7.59    0.60
   4  -6   5    7.12    0.48
   4  -6   5    7.00    0.57
   4  -6   5    7.77    0.72
   5  -6   5    6.23    0.53
   5  -6   5    5.56    0.58
   5  -6   5    7.27    0.49
   5  -6   5    7.50    0.53
   5  -6   5    7.07    0.42
   5  -6   5    7.16    0.40
   5   5  -5    9.09    0.74
   5   5  -5   11.10    0.63
   5   5  -5   11.28    0.57
   5   5  -5    9.46    0.64
   5   5  -5   11.13    0.71
   5   5  -5   10.69    0.72
  -5  -5   5   11.18    0.82
  -5  -5   5   12.62    0.81
   4   5  -5    6.32    0.41
   4   5  -5    6.96    0.58
   4   5  -5    6.55    0.69
   4   5  -5    6.74    0.57
   4   5  -5    6.31    0.51
   4   5  -5    6.01    0.46
   3   5  -5   46.19    2.56
   3   5  -5   48.53    2.37
   3   5  -5   51.69    2.38
   3   5  -5   51.78    2.62
   3   5  -5   48.63    2.35
   3   5  -5   50.20    2.61
   3   5  -5   55.94    2.77
   3   5  -5   49.86    2.54
   3   5  -5   48.73    2.44
  -3  -5   5   62.90    3.10
  -3  -5   5   65.40    3.07
  -3  -5   5   67.31    3.07
  -3  -5   5   67.43    3.20
   2   5  -5    7.66    0.60
   2   5  -5    7.69    0.46
   2   5  -5    7.84    0.63
   2   5  -5    9.45    0.71
   2   5  -5    7.88    0.58
   2   5  -5    7.52    0.47
  -2  -5   5   10.63    0.65
  -2  -5   5   11.54    0.63
  -2  -5   5   11.45    0.62
  -2  -5   5   11.75    0.72
   1   5  -5   71.03    3.22
   1   5  -5   70.48    3.24
  -1  -5   5   83.52    3.75
  -1  -5   5   80.62    3.94
   0   5  -5   72.67    3.34
   0   5  -5   74.30    4.09
   0  -5   5   75.35    3.49
   0  -5   5   75.68    3.43
   0  -5   5   74.39    3.43
   1  -5   5   15.42    0.77
   1  -5   5   15.71    0.83
   1  -5   5   15.39    0.83
   1  -5   5   15.62    0.80
   2  -5   5   46.46    2.21
   2  -5   5   47.95    2.25
   2  -5   5   45.22    2.24
  -3   5  -5    0.24    0.45
   3  -5   5    1.18    0.14
   3  -5   5    0.98    0.14
   3  -5   5    1.30    0.23
   3  -5   5    0.97    0.13
   3  -5   5    1.07    0.19
   3  -5   5    1.08    0.19
   3  -5   5    0.94    0.36
   3  -5   5    1.16    0.16
   3  -5   5    1.10    0.25
   4  -5   5   26.29    1.50
   4  -5   5   27.08    1.38
   4  -5   5   29.81    1.58
   4  -5   5   26.23    1.39
   4  -5   5   26.72    1.36
   4  -5   5   27.79    1.73
   4  -5   5   28.27    1.62
   4  -5   5   26.77    1.41
   5  -5   5    8.33    0.57
   5  -5   5    9.04    0.69
   5  -5   5    8.42    0.70
   5  -5   5    8.48    0.50
   5  -5   5    8.37    0.69
   6  -5   5    2.64    0.35
   6   4  -5    3.42    0.24
   6   4  -5    3.79    0.30
   5   4  -5   23.79    1.21
   5   4  -5   25.16    1.39
   5   4  -5   24.68    1.28
   5   4  -5   23.25    1.35
   5   4  -5   25.21    1.42
   5   4  -5   26.05    1.53
  -5  -4   5   30.65    1.99
   4   4  -5   11.34    0.78
   4   4  -5    8.36    0.80
   4   4  -5    9.97    0.76
   4   4  -5    9.60    0.64
   4   4  -5   10.63    0.59
   4   4  -5   10.22    0.55
   4   4  -5   10.78    0.78
   4   4  -5   10.95    0.73
  -4  -4   5   15.67    0.88
  -4  -4   5   14.85    0.77
  -4  -4   5   13.01    0.78
   3   4  -5    1.22    0.21
   3   4  -5    1.27    0.14
   3   4  -5    1.30    0.22
   3   4  -5    1.29    0.17
   3   4  -5    1.30    0.20
   3   4  -5    1.18    0.19
   3   4  -5    1.23    0.22
  -3  -4   5    2.01    0.25
  -3  -4   5    1.96    0.18
  -3  -4   5    1.98    0.18
   2   4  -5    6.88    0.43
   2   4  -5    6.81    0.89
   2   4  -5    8.19    0.65
  -2  -4   5    6.42    0.37
  -2  -4   5    6.48    0.41
  -2  -4   5    4.87    0.46
  -2  -4   5    6.37    0.37
   1   4  -5   19.07    0.89
   1   4  -5   16.89    0.92
   1   4  -5   20.43    1.57
  -1  -4   5   20.10    0.97
  -1  -4   5   20.63    1.02
  -1  -4   5   19.34    1.06
   0   4  -5   56.64    2.66
   0   4  -5   58.10    2.66
   0   4  -5   60.35    2.73
   0   4  -5   58.64    3.30
   0  -4   5   60.04    2.76
   0  -4   5   58.00    2.72
   0  -4   5   59.76    2.70
  -1   4  -5   16.31    0.87
  -1   4  -5   15.60    0.81
  -1   4  -5   15.32    1.26
  -1   4  -5   15.45    0.77
   1  -4   5   19.36    0.92
   1  -4   5   19.16    1.03
   1  -4   5   19.08    0.96
   1  -4   5   19.82    0.99
   2  -4   5   42.20    1.96
   2  -4   5   39.14    1.89
   2  -4   5   41.50    1.95
   2  -4   5   39.60    1.93
   3  -4   5   25.76    1.22
   3  -4   5   24.63    1.26
   3  -4   5   23.67    1.25
   3  -4   5   25.02    1.29
   3  -4   5   24.95    1.42
   3  -4   5   26.21    1.69
   3  -4   5   23.87    1.26
   4  -4   5   28.89    1.51
   4  -4   5   28.31    1.60
   4  -4   5   28.48    1.47
   4  -4   5   29.79    1.55
   4  -4   5   30.61    1.74
   4  -4   5   29.26    1.46
   4  -4   5   30.83    1.54
   4  -4   5   32.68    1.89
   4  -4   5   29.33    2.26
   4  -4   5   31.78    1.69
   4  -4   5   29.72    1.47
  -5   4  -5    0.01    0.07
  -5   4  -5    0.54    0.44
  -5   4  -5   -0.18    0.09
   5  -4   5    2.39    0.34
   5  -4   5    2.74    0.24
   5  -4   5    2.99    0.25
   5  -4   5    2.93    0.35
   5  -4   5    2.85    0.31
   5  -4   5    2.90    0.22
   6  -4   5    6.75    0.36
   6  -4   5    5.85    0.38
   6   3  -5    0.85    0.12
   6   3  -5    0.78    0.13
   6   3  -5    0.81    0.08
   6   3  -5    0.87    0.11
   5   3  -5   10.35    0.63
   5   3  -5   11.19    0.77
   5   3  -5    9.57    0.65
   5   3  -5   10.33    0.57
   5   3  -5    9.85    0.71
   5   3  -5   10.27    0.73
  -5  -3   5   15.13    1.02
  -5  -3   5   13.85    0.93
   4   3  -5   13.25    0.91
   4   3  -5   13.66    0.74
   4   3  -5   12.07    0.71
   4   3  -5   14.22    0.94
   4   3  -5   11.69    0.98
   4   3  -5   13.90    0.91
   4   3  -5   13.43    0.91
   4   3  -5   13.47    0.80
   4   3  -5   13.63    0.71
  -4  -3   5   18.27    0.94
  -4  -3   5   18.74    1.03
  -4  -3   5   18.14    0.97
   3   3  -5   22.47    1.07
   3   3  -5   21.89    1.77
   3   3  -5   21.52    1.27
   3   3  -5   22.43    1.28
   3   3  -5   22.61    1.40
   3   3  -5   20.65    1.21
   3   3  -5   22.66    1.10
   3   3  -5   20.99    1.15
   3   3  -5   22.11    1.28
   3   3  -5   19.94    1.08
  -3  -3   5   27.28    1.36
  -3  -3   5   28.94    1.47
  -3  -3   5   27.87    1.38
   2   3  -5   50.68    2.35
   2   3  -5   49.96    2.32
  -2  -3   5   58.16    2.69
  -2  -3   5   58.93    2.74
  -2  -3   5   57.94    2.78
   1   3  -5   65.91    3.56
   1   3  -5   64.90    2.94
   1   3  -5   63.68    2.95
   1   3  -5   63.67    2.91
  -1  -3   5   65.45    3.19
  -1  -3   5   68.35    3.12
  -1  -3   5   69.00    3.11
  -1  -3   5   71.11    3.16
   0   3  -5   10.03    0.53
   0   3  -5   10.09    0.54
   0   3  -5   10.32    0.51
   0   3  -5   10.93    0.94
   0   3  -5   10.55    0.62
   0  -3   5   13.62    0.69
   0  -3   5   13.80    0.65
   0  -3   5   12.54    0.68
   0  -3   5   13.59    0.68
  -1   3  -5  133.32    6.53
  -1   3  -5  133.65    5.99
  -1   3  -5  124.56    5.89
  -1   3  -5  132.14    5.94
  -1   3  -5  133.19    5.90
   1  -3   5  145.28    6.45
   1  -3   5  145.10    6.45
   1  -3   5  139.89    6.41
   1  -3   5  141.59    6.45
  -2   3  -5    1.61    0.17
  -2   3  -5    1.66    0.13
  -2   3  -5    1.48    0.34
   2  -3   5    2.22    0.20
   2  -3   5    2.21    0.16
   2  -3   5    2.24    0.19
   2  -3   5    2.13    0.19
  -3   3  -5   27.47    2.08
  -3   3  -5   31.19    1.44
  -3   3  -5   30.82    1.51
   3  -3   5   28.50    1.62
   3  -3   5   27.04    1.47
   3  -3   5   31.70    2.20
   3  -3   5   29.45    1.61
   3  -3   5   25.59    1.42
   3  -3   5   28.77    1.43
   3  -3   5   29.49    1.46
   3  -3   5   30.45    1.77
   3  -3   5   28.83    1.39
  -4   3  -5    7.39    0.50
  -4   3  -5    7.35    0.44
   4  -3   5    5.34    0.45
   4  -3   5    5.37    0.83
   4  -3   5    6.10    0.42
   4  -3   5    5.83    0.36
   4  -3   5    5.57    0.43
   4  -3   5    5.35    0.39
   4  -3   5    6.59    0.73
   4  -3   5    6.01    0.56
   4  -3   5    6.54    0.75
   4  -3   5    5.44    0.39
   5  -3   5    6.67    0.57
   5  -3   5    6.19    0.39
   5  -3   5    6.33    0.62
   5  -3   5    7.00    0.53
   5  -3   5    6.63    0.45
   5  -3   5    6.56    0.43
   5  -3   5    6.71    0.41
   6  -3   5    5.72    0.31
   6  -3   5    5.50    0.32
   6  -3   5    5.25    0.53
   6  -3   5    5.38    0.40
   6   2  -5    3.10    0.25
   6   2  -5    3.22    0.29
   6   2  -5    3.99    0.33
   6   2  -5    3.68    0.21
   6   2  -5    3.21    0.28
   5   2  -5   37.78    1.93
   5   2  -5   35.82    1.71
   5   2  -5   32.17    1.79
   5   2  -5   36.01    1.80
   5   2  -5   36.16    1.80
   5   2  -5   40.59    1.96
   5   2  -5   32.10    1.90
  -5  -2   5   47.78    2.59
  -5  -2   5   53.16    2.40
  -5  -2   5   45.59    2.64
   4   2  -5    7.78    0.64
   4   2  -5    7.42    0.52
   4   2  -5    6.91    0.55
   4   2  -5    8.35    0.72
   4   2  -5    7.61    0.47
   4   2  -5    7.58    0.56
   4   2  -5    8.26    0.64
   4   2  -5    7.69    0.44
   4   2  -5    7.12    0.45
   4   2  -5    7.85    0.62
  -4  -2   5   12.30    0.66
  -4  -2   5   11.84    0.74
  -4  -2   5   11.25    0.88
  -4  -2   5   11.21    0.83
   3   2  -5    2.58    0.22
   3   2  -5    2.97    0.20
   3   2  -5    2.85    0.37
  -3  -2   5    3.79    0.29
  -3  -2   5    3.45    0.25
  -3  -2   5    3.51    0.33
   2   2  -5   14.39    0.69
   2   2  -5   13.10    0.71
   2   2  -5   14.32    1.29
  -2  -2   5   18.04    0.93
  -2  -2   5   19.85    1.15
  -2  -2   5   19.98    0.99
  -2  -2   5   19.51    0.95
  -2  -2   5   19.38    1.05
   1   2  -5    8.74    0.45
   1   2  -5    9.27    0.49
   1   2  -5    9.44    0.85
   1   2  -5    8.90    0.45
  -1  -2   5   12.56    0.65
  -1  -2   5   12.02    0.63
  -1  -2   5   12.32    0.62
  -1  -2   5   13.09    0.71
   0   2  -5   32.79    1.52
   0   2  -5   33.79    2.00
   0   2  -5   33.52    1.55
   0   2  -5   33.23    1.55
   0  -2   5   36.52    1.63
   0  -2   5   36.22    1.67
   0  -2   5   34.63    1.63
  -1   2  -5    0.91    0.12
  -1   2  -5    1.03    0.09
  -1   2  -5    1.07    0.25
  -1   2  -5    1.02    0.09
  -1   2  -5    1.00    0.10
   1  -2   5    1.72    0.14
   1  -2   5    1.60    0.14
   1  -2   5    1.72    0.15
   1  -2   5    1.78    0.12
  -2   2  -5   32.90    1.59
  -2   2  -5   31.22    1.52
  -2   2  -5   33.21    2.15
   2  -2   5   33.32    1.58
   2  -2   5   32.38    1.62
   2  -2   5   33.37    1.57
   2  -2   5   34.91    1.61
  -3   2  -5   53.72    3.76
  -3   2  -5   65.29    2.82
  -3   2  -5   63.21    2.88
   3  -2   5   62.96    2.93
   3  -2   5   61.11    2.86
   3  -2   5   61.96    2.90
  -4   2  -5   45.12    2.16
  -4   2  -5   43.61    2.10
   4  -2   5   47.22    2.47
   4  -2   5   43.66    2.03
   4  -2   5   43.91    2.23
   4  -2   5   41.30    2.08
   4  -2   5   44.64    2.33
   4  -2   5   41.81    2.21
   4  -2   5   41.00    2.04
   4  -2   5   46.17    2.86
   4  -2   5   40.11    2.05
   4  -2   5   40.98    2.10
   4  -2   5   40.95    2.05
   5  -2   5    3.58    0.43
   5  -2   5    3.14    0.36
   5  -2   5    3.27    0.25
   5  -2   5    3.09    0.32
   5  -2   5    3.18    0.28
   5  -2   5    3.28    0.27
   5  -2   5    3.30    0.24
   6  -2   5    0.06    0.05
   6  -2   5    0.06    0.06
   6  -2   5    0.01    0.03
   6  -2   5    0.08    0.04
   6  -2   5    0.02    0.02
   6   1  -5   10.65    0.63
   6   1  -5   11.43    0.64
   6   1  -5   12.01    0.71
   5   1  -5   17.18    1.04
   5   1  -5   15.78    0.95
   5   1  -5   15.49    1.01
   5   1  -5   16.61    0.83
   5   1  -5   17.16    0.93
   5   1  -5   14.89    1.01
  -5  -1   5   18.13    1.10
  -5  -1   5   20.29    1.23
   4   1  -5   19.06    0.90
   4   1  -5   17.55    1.09
   4   1  -5   16.93    1.04
   4   1  -5   17.35    1.12
   4   1  -5   18.61    1.00
   4   1  -5   18.12    1.13
   4   1  -5   16.81    1.04
   4   1  -5   17.22    0.91
   4   1  -5   16.92    1.17
  -4  -1   5   25.37    1.50
  -4  -1   5   23.41    1.22
   3   1  -5   32.21    2.16
   3   1  -5   32.40    1.64
   3   1  -5   33.51    1.61
   3   1  -5   38.56    1.96
  -3  -1   5   36.88    2.01
  -3  -1   5   39.88    1.99
  -3  -1   5   37.56    1.85
  -3  -1   5   34.76    1.75
   2   1  -5   24.05    1.21
   2   1  -5   25.73    1.77
   2   1  -5   25.19    1.18
  -2  -1   5   32.06    1.55
  -2  -1   5   31.01    1.49
  -2  -1   5   29.62    1.46
   1   1  -5   34.00    1.59
   1   1  -5   33.45    1.55
   1   1  -5   34.25    2.02
  -1  -1   5   42.52    1.94
  -1  -1   5   42.06    1.97
  -1  -1   5   42.84    1.96
  -1  -1   5   42.04    2.05
   0   1  -5   82.56    3.70
   0   1  -5   78.81    3.68
   0   1  -5   87.13    4.21
   0   1  -5   80.24    3.72
   0  -1   5   86.02    4.10
   0  -1   5   94.99    4.14
   0  -1   5   93.66    4.15
  -1   1  -5   57.45    2.70
  -1   1  -5   63.10    3.26
  -1   1  -5   58.46    2.75
  -1   1  -5   56.78    2.69
   1  -1   5   64.24    2.89
   1  -1   5   63.65    2.92
   1  -1   5   64.24    2.93
   1  -1   5   62.22    2.88
  -2   1  -5   54.03    2.59
  -2   1  -5   52.45    2.53
  -2   1  -5   54.08    2.57
  -2   1  -5   60.42    3.34
   2  -1   5   54.05    2.44
   2  -1   5   52.92    2.49
   2  -1   5   52.46    2.47
  -3   1  -5    9.58    1.14
   3  -1   5   31.65    1.82
   3  -1   5   34.20    1.60
   3  -1   5   32.86    1.55
   3  -1   5   31.75    1.71
   4  -1   5    4.43    0.67
   4  -1   5    5.19    0.33
   4  -1   5    4.88    0.35
   4  -1   5    5.06    0.38
   4  -1   5    4.91    0.34
   4  -1   5    5.07    0.45
   4  -1   5    4.96    0.36
   4  -1   5    5.24    0.35
   4  -1   5    5.50    0.58
   4  -1   5    5.51    0.52
   4  -1   5    4.93    0.46
  -5   1  -5    7.27    0.46
   5  -1   5    6.83    0.64
   5  -1   5    7.50    0.59
   5  -1   5    6.55    0.51
   5  -1   5    6.69    0.46
   5  -1   5    6.66    0.40
   5  -1   5    6.63    0.42
   5  -1   5    6.79    0.44
   6  -1   5    5.00    0.43
   6  -1   5    6.01    0.34
   6  -1   5    5.56    0.31
   6  -1   5    5.64    0.43
   6  -1   5    6.28    0.34
   6   0  -5    3.85    0.39
   6   0  -5    4.49    0.30
   6   0  -5    3.50    0.36
   6   0  -5    3.74    0.34
   6   0  -5    4.13    0.29
  -6   0   5    4.28    0.38
   5   0  -5   22.22    1.31
   5   0  -5   20.75    1.09
   5   0  -5   22.05    1.19
   5   0  -5   21.85    1.24
   5   0  -5   21.99    1.31
   5   0  -5   24.08    1.33
  -5   0   5   30.10    1.69
  -5   0   5   30.08    1.50
   4   0  -5   21.90    1.26
   4   0  -5   20.19    1.08
   4   0  -5   21.38    1.25
   4   0  -5   23.38    1.32
   4   0  -5   19.51    1.22
   4   0  -5   19.23    1.17
   4   0  -5   21.35    1.03
   4   0  -5   20.22    1.18
   4   0  -5   17.90    1.02
   4   0  -5   20.40    1.12
  -4   0   5   27.13    1.61
  -4   0   5   26.95    1.37
  -4   0   5   29.07    1.46
   3   0  -5   22.02    1.16
   3   0  -5   26.42    1.43
   3   0  -5   22.40    1.14
  -3   0   5   27.22    1.33
  -3   0   5   26.37    1.54
  -3   0   5   28.00    1.41
   2   0  -5   52.87    2.46
   2   0  -5   56.68    3.02
   2   0  -5   51.52    2.48
  -2   0   5   63.88    2.99
  -2   0   5   65.74    2.98
  -2   0   5   64.05    3.04
   1   0  -5   31.87    1.45
   1   0  -5   31.18    1.85
  -1   0   5   34.82    1.56
  -1   0   5   35.69    1.56
  -1   0   5   29.00    1.60
   0   0  -5  228.57   10.37
   0   0  -5  231.54   10.39
   0   0  -5  237.38   10.90
   0   0   5  245.28   11.38
   0   0   5  263.56   11.41
   0   0   5  258.58   11.44
  -1   0  -5  174.01    8.00
  -1   0  -5  188.79    8.66
  -1   0  -5  178.86    8.01
  -1   0  -5  172.37    8.05
   1   0   5  189.77    8.27
   1   0   5  182.28    8.27
   1   0   5  184.96    8.27
   1   0   5  179.86    8.23
  -2   0  -5  108.74    4.72
  -2   0  -5   96.89    5.52
  -2   0  -5  105.68    4.76
   2   0   5  104.76    4.76
   2   0   5  105.16    4.78
   2   0   5  103.72    4.72
  -3   0  -5   17.59    0.97
   3   0   5   39.33    1.84
   3   0   5   37.37    1.86
   3   0   5   40.64    1.92
   3   0   5   38.71    2.04
  -4   0  -5    9.78    0.58
  -4   0  -5   10.39    0.61
   4   0   5   10.68    0.78
   4   0   5   10.25    0.63
   4   0   5   10.73    0.87
   4   0   5    8.50    0.99
   4   0   5   10.01    0.58
   4   0   5   10.70    0.57
   4   0   5   10.11    0.63
   4   0   5   10.27    0.74
   4   0   5   10.86    0.76
   4   0   5   10.07    0.59
   4   0   5   11.39    0.68
  -5   0  -5    9.18    0.52
   5   0   5   14.22    0.93
   5   0   5   14.70    0.91
   5   0   5   14.87    0.78
   5   0   5   12.83    0.86
   5   0   5   14.53    0.78
   5   0   5   14.65    1.04
   6   0   5   15.79    1.00
   6   0   5   18.51    0.94
   6   0   5   18.65    0.89
   6  -1  -5   17.49    0.95
   6  -1  -5   14.79    0.88
   6  -1  -5   14.84    0.92
   6  -1  -5   14.15    0.93
   6  -1  -5   17.90    0.87
   5  -1  -5    2.58    0.32
   5  -1  -5    2.76    0.32
   5  -1  -5    2.69    0.27
   5  -1  -5    3.02    0.33
   5  -1  -5    2.84    0.29
   5  -1  -5    2.80    0.30
  -5   1   5    3.42    0.40
   4  -1  -5    5.83    0.50
   4  -1  -5    5.92    0.51
   4  -1  -5    6.20    0.37
   4  -1  -5    6.09    0.50
   4  -1  -5    5.39    0.48
   4  -1  -5    5.08    0.35
   4  -1  -5    5.93    0.53
   4  -1  -5    5.75    0.51
   4  -1  -5    6.07    0.44
  -4   1   5    8.50    0.54
  -4   1   5    7.92    0.52
  -4   1   5    8.86    0.68
  -4   1   5    8.92    0.59
   3  -1  -5   13.17    0.86
   3  -1  -5   13.29    0.73
   3  -1  -5   12.37    0.68
  -3   1   5   16.99    0.93
  -3   1   5   16.10    1.02
  -3   1   5   15.93    0.86
  -3   1   5   16.18    0.88
   2  -1  -5   60.04    2.80
   2  -1  -5   61.26    2.77
  -2   1   5   75.62    3.45
  -2   1   5   75.37    3.41
  -2   1   5   68.82    3.36
   1  -1  -5   29.59    1.38
   1  -1  -5   28.65    1.38
   1  -1  -5   28.94    1.70
  -1   1   5   28.08    1.44
  -1   1   5   29.71    1.38
  -1   1   5   29.10    1.38
   0  -1  -5   14.92    0.72
   0  -1  -5   14.77    0.75
   0  -1  -5   14.14    0.79
   0  -1  -5   16.23    1.14
   0   1   5   16.16    0.77
   0   1   5   16.05    0.79
   0   1   5   15.01    0.74
   0   1   5   15.93    0.77
  -1  -1  -5   43.03    2.12
  -1  -1  -5   44.02    2.05
  -1  -1  -5   45.34    2.06
   1   1   5   43.86    2.01
   1   1   5   44.32    2.06
   1   1   5   43.04    2.05
   1   1   5   44.25    2.05
  -2  -1  -5   34.69    1.67
  -2  -1  -5   32.92    1.61
   2   1   5   35.42    1.75
   2   1   5   36.31    1.69
   2   1   5   36.58    1.72
  -3  -1  -5   20.33    1.05
  -3  -1  -5   21.25    1.08
  -3  -1  -5   20.31    1.09
   3   1   5   21.29    1.00
   3   1   5   20.42    1.23
   3   1   5   19.22    1.02
   3   1   5   20.62    1.07
   3   1   5   21.33    1.33
   3   1   5   18.37    1.03
   3   1   5   18.85    1.04
   3   1   5   21.15    1.20
   3   1   5   18.82    1.00
   3   1   5   20.14    1.02
  -4  -1  -5    1.55    0.17
  -4  -1  -5    1.92    0.20
  -4  -1  -5    1.81    0.18
   4   1   5    1.52    0.25
   4   1   5    1.76    0.16
   4   1   5    1.69    0.30
   4   1   5    1.61    0.17
   4   1   5    2.14    0.28
   4   1   5    1.40    0.36
   4   1   5    1.53    0.19
   4   1   5    1.83    0.19
   4   1   5    1.59    0.18
   4   1   5    1.86    0.27
  -5  -1  -5    0.11    0.04
   5   1   5    0.25    0.12
   5   1   5    0.22    0.06
   5   1   5    0.37    0.13
   5   1   5    0.28    0.07
   5   1   5    0.21    0.06
   5   1   5    0.23    0.12
   5   1   5    0.28    0.11
   5   1   5    0.23    0.10
   6   1   5    5.69    0.45
   6   1   5    6.83    0.34
   6  -2  -5    5.51    0.42
   6  -2  -5    6.14    0.37
   6  -2  -5    5.54    0.42
   6  -2  -5    5.98    0.39
  -6   2   5    5.26    0.84
  -6   2   5    6.36    0.47
   5  -2  -5    0.59    0.14
   5  -2  -5    0.53    0.12
   5  -2  -5    0.58    0.11
   5  -2  -5    0.61    0.14
   5  -2  -5    0.60    0.14
   5  -2  -5    0.51    0.13
  -5   2   5    0.34    0.12
  -5   2   5    0.28    0.10
  -5   2   5    0.06    0.08
   4  -2  -5   12.39    1.60
  -4   2   5   36.21    1.78
  -4   2   5   36.02    1.86
  -4   2   5   36.60    2.05
   3  -2  -5    2.47    0.29
   3  -2  -5    2.45    0.29
   3  -2  -5    2.19    0.28
   3  -2  -5    2.58    0.25
   3  -2  -5    2.57    0.21
   3  -2  -5    2.59    0.32
   3  -2  -5    2.29    0.27
   3  -2  -5    2.63    0.19
  -3   2   5    3.84    0.33
  -3   2   5    4.14    0.30
  -3   2   5    3.68    0.42
  -3   2   5    3.65    0.38
   2  -2  -5  156.67    7.06
   2  -2  -5  157.74    7.09
  -2   2   5  178.02    8.44
  -2   2   5  183.63    8.27
  -2   2   5  189.32    8.28
  -2   2   5  183.09    8.35
   1  -2  -5  135.53    6.06
   1  -2  -5  134.95    6.10
  -1   2   5  143.26    6.63
  -1   2   5  148.38    6.55
  -1   2   5  143.93    6.53
   0  -2  -5    0.97    0.10
   0  -2  -5    0.88    0.23
   0   2   5    2.86    0.17
   0   2   5    2.76    0.19
  -1  -2  -5    0.42    0.08
  -1  -2  -5    0.31    0.06
   1   2   5    0.51    0.05
  -2  -2  -5   48.73    2.15
  -2  -2  -5   42.99    2.13
  -2  -2  -5   43.55    2.19
   2   2   5   47.67    2.22
   2   2   5   45.54    2.16
   2   2   5   46.86    2.38
   2   2   5   44.69    2.15
  -3  -2  -5   25.48    1.26
  -3  -2  -5   24.01    1.25
   3   2   5   23.82    1.64
   3   2   5   24.42    1.41
   3   2   5   23.41    1.24
   3   2   5   23.35    1.40
   3   2   5   22.82    1.23
   3   2   5   22.78    1.36
   3   2   5   24.16    1.71
   3   2   5   23.99    1.17
  -4  -2  -5    1.91    0.19
   4   2   5    3.95    0.42
   4   2   5    3.92    0.47
   4   2   5    3.94    0.33
   4   2   5    3.53    0.29
   4   2   5    3.93    0.41
   4   2   5    3.60    0.29
   4   2   5    3.75    0.40
   4   2   5    3.75    0.29
   4   2   5    3.61    0.27
  -5  -2  -5    2.42    0.18
  -5  -2  -5    2.26    0.28
   5   2   5    2.71    0.30
   5   2   5    3.03    0.21
   5   2   5    2.96    0.22
   5   2   5    2.33    0.27
   5   2   5    3.08    0.43
   5   2   5    3.08    0.25
   5   2   5    2.68    0.36
   6  -3  -5    5.98    0.40
   6  -3  -5    6.16    0.37
   6  -3  -5    5.66    0.34
   6  -3  -5    4.49    0.36
   5  -3  -5    9.20    0.61
   5  -3  -5   10.65    0.69
   5  -3  -5   10.50    0.67
   5  -3  -5   10.08    0.70
   5  -3  -5    9.74    0.71
   5  -3  -5    9.35    0.67
  -5   3   5   14.48    1.00
   4  -3  -5   23.69    1.36
   4  -3  -5   21.48    1.29
   4  -3  -5   23.69    1.15
   4  -3  -5   22.40    1.29
   4  -3  -5   22.43    1.33
   4  -3  -5   22.87    1.23
   4  -3  -5   22.07    1.33
  -4   3   5   30.33    1.78
  -4   3   5   31.81    1.61
   3  -3  -5   26.16    1.46
   3  -3  -5   25.27    1.44
   3  -3  -5   25.73    1.43
   3  -3  -5   26.51    1.24
   3  -3  -5   24.90    1.32
   3  -3  -5   22.41    1.39
  -3   3   5   34.81    1.74
  -3   3   5   35.59    1.98
  -3   3   5   35.41    1.83
   2  -3  -5  101.29    4.48
   2  -3  -5   98.51    4.51
   2  -3  -5   96.75    4.50
  -2   3   5  124.92    5.49
  -2   3   5  119.13    5.78
  -2   3   5  116.86    5.47
   1  -3  -5   16.18    0.83
   1  -3  -5   16.69    0.80
  -1   3   5   21.73    1.05
  -1   3   5   20.81    1.21
  -1   3   5   21.74    1.07
   0  -3  -5   12.15    0.61
   0  -3  -5   10.73    0.92
   0   3   5   13.40    0.65
   0   3   5   13.46    0.84
   0   3   5   12.69    0.68
  -1  -3  -5   71.06    3.44
  -1  -3  -5   72.60    3.28
  -1  -3  -5   69.84    3.35
   1   3   5   76.30    3.44
   1   3   5   73.14    3.38
   1   3   5   73.79    3.61
   1   3   5   73.35    3.40
  -2  -3  -5   17.50    0.97
  -2  -3  -5   16.93    0.90
  -2  -3  -5   15.44    1.95
  -2  -3  -5   18.42    0.90
   2   3   5   17.75    0.92
   2   3   5   18.32    1.13
   2   3   5   18.71    0.97
   2   3   5   16.44    0.94
   2   3   5   18.34    0.97
   2   3   5   18.54    0.90
   2   3   5   17.93    1.39
   2   3   5   17.05    1.24
  -3  -3  -5  110.01    4.94
  -3  -3  -5  105.54    4.96
  -3  -3  -5  107.97    5.03
   3   3   5   89.28    4.32
   3   3   5   92.45    4.35
   3   3   5   92.30    4.54
   3   3   5   93.42    4.35
   3   3   5  101.21    4.60
   3   3   5   95.36    4.30
   3   3   5   97.03    4.71
   3   3   5   93.57    4.55
   3   3   5   94.48    4.31
   3   3   5   85.43    4.48
   3   3   5   98.30    4.61
  -4  -3  -5    6.42    0.40
  -4  -3  -5    4.65    0.64
  -4  -3  -5    6.17    0.46
   4   3   5    4.36    0.35
   4   3   5    4.62    0.39
   4   3   5    4.34    0.50
   4   3   5    4.27    0.62
   4   3   5    4.60    0.45
   4   3   5    4.86    0.39
   4   3   5    4.43    0.33
   4   3   5    4.35    0.31
  -5  -3  -5   23.82    1.16
  -5  -3  -5   23.58    1.15
   5   3   5   23.12    1.10
   5   3   5   22.21    1.08
   5   3   5   22.69    1.11
   5   3   5   23.29    1.35
   5   3   5   22.09    1.24
   5   3   5   21.30    1.33
   5   3   5   20.77    1.24
   5   3   5   23.23    1.12
   6  -4  -5    5.90    0.41
   6  -4  -5    5.81    0.41
   6  -4  -5    5.91    0.39
  -6   4   5    0.19    0.31
   5  -4  -5   12.86    0.76
   5  -4  -5   11.86    0.75
   5  -4  -5   10.85    0.75
   5  -4  -5   12.66    0.77
   5  -4  -5   11.31    0.76
   5  -4  -5   11.83    0.69
   4  -4  -5    4.14    0.38
   4  -4  -5    4.48    0.42
   4  -4  -5    3.71    0.40
   4  -4  -5    4.10    0.35
   4  -4  -5    4.34    0.43
   4  -4  -5    4.31    0.43
   4  -4  -5    4.27    0.38
  -4   4   5    7.37    0.67
  -4   4   5    7.25    0.54
  -4   4   5    6.99    0.55
   3  -4  -5   21.17    1.14
   3  -4  -5   21.35    1.26
   3  -4  -5   20.57    1.03
   3  -4  -5   20.37    1.23
   3  -4  -5   20.80    2.36
   3  -4  -5   20.41    1.23
   3  -4  -5   19.42    1.20
   3  -4  -5   19.30    1.16
   3  -4  -5   21.78    1.24
  -3   4   5   26.11    1.57
  -3   4   5   26.69    1.36
  -3   4   5   27.03    1.46
  -3   4   5   26.42    1.64
   2  -4  -5    4.16    0.39
   2  -4  -5    4.35    0.28
   2  -4  -5    4.61    0.44
   2  -4  -5    3.97    0.33
   2  -4  -5    4.18    0.43
  -2   4   5    4.49    0.48
  -2   4   5    4.63    0.33
  -2   4   5    4.75    0.41
  -2   4   5    4.60    0.64
   1  -4  -5    8.47    0.45
   1  -4  -5    8.41    0.48
  -1   4   5    8.63    0.64
  -1   4   5    8.97    0.51
   0  -4  -5    2.28    0.19
   0   4   5    3.79    0.26
   0   4   5    3.61    0.23
   0   4   5    3.54    0.36
  -1  -4  -5    4.49    0.46
  -1  -4  -5    4.39    0.30
  -1  -4  -5    4.49    0.31
  -1  -4  -5    4.29    0.36
   1   4   5    5.94    0.36
   1   4   5    6.43    0.40
   1   4   5    5.86    0.53
   1   4   5    5.81    0.51
   1   4   5    5.90    0.40
   1   4   5    5.85    0.54
  -2  -4  -5   61.75    3.19
  -2  -4  -5   62.32    2.90
  -2  -4  -5   61.38    2.90
   2   4   5   62.69    3.10
   2   4   5   53.41    3.30
   2   4   5   60.53    2.88
   2   4   5   62.35    2.90
   2   4   5   60.59    2.84
   2   4   5   61.42    2.87
   2   4   5   63.18    2.83
   2   4   5   63.92    3.12
   2   4   5   59.83    2.87
  -3  -4  -5   28.72    1.43
  -3  -4  -5   26.47    1.59
  -3  -4  -5   24.97    1.32
  -3  -4  -5   25.86    1.71
   3   4   5   24.71    1.31
   3   4   5   23.91    1.26
   3   4   5   23.15    1.20
   3   4   5   23.55    1.22
   3   4   5   22.82    1.38
   3   4   5   24.76    1.46
   3   4   5   23.16    1.23
   3   4   5   23.50    1.19
   3   4   5   22.70    1.39
   3   4   5   22.30    1.39
   3   4   5   25.91    1.57
  -4  -4  -5   -0.01    0.03
  -4  -4  -5    0.10    0.25
  -4  -4  -5    0.04    0.05
  -4  -4  -5    0.00    0.02
   4   4   5    0.14    0.09
   4   4   5    0.14    0.05
   4   4   5    0.09    0.05
   4   4   5    0.10    0.08
   4   4   5    0.21    0.11
   4   4   5    0.13    0.09
   4   4   5    0.18    0.06
   4   4   5    0.12    0.08
   4   4   5    0.10    0.08
   4   4   5    0.09    0.05
  -5  -4  -5    8.29    0.83
  -5  -4  -5    8.12    0.46
  -5  -4  -5    7.82    0.42
   5   4   5    6.51    0.36
   5   4   5    6.98    0.39
   5   4   5    6.38    0.46
   5   4   5    7.30    0.55
   5   4   5    6.92    0.39
   5   4   5    6.21    0.40
   5  -5  -5    0.26    0.07
   5  -5  -5    0.42    0.09
   5  -5  -5    0.32    0.09
   5  -5  -5    0.48    0.11
   5  -5  -5    0.35    0.09
  -5   5   5    0.02    0.29
  -5   5   5   -0.11    0.12
   4  -5  -5    0.82    0.16
   4  -5  -5    0.79    0.15
   4  -5  -5    0.62    0.13
   4  -5  -5    0.57    0.13
   4  -5  -5    0.62    0.12
   4  -5  -5    0.59    0.13
  -4   5   5    1.16    0.26
   3  -5  -5   13.26    0.89
   3  -5  -5   12.79    0.88
   3  -5  -5   13.51    0.71
   3  -5  -5   13.49    0.86
   3  -5  -5   12.09    0.79
   3  -5  -5   13.60    0.80
   3  -5  -5   11.84    0.84
   3  -5  -5   13.11    0.85
   2  -5  -5    6.29    0.52
   2  -5  -5    6.96    0.57
   2  -5  -5    6.91    0.55
   2  -5  -5    7.02    0.42
   2  -5  -5    6.72    0.48
   2  -5  -5    6.79    0.60
   2  -5  -5    6.87    0.41
   1  -5  -5    3.93    0.25
   1  -5  -5    3.48    0.35
   1  -5  -5    3.74    0.41
   1  -5  -5    3.56    0.34
   1  -5  -5    3.28    0.29
  -1   5   5    4.35    0.47
  -1   5   5    3.99    0.45
  -1   5   5    4.47    0.32
  -1   5   5    4.57    0.46
   0  -5  -5    3.26    1.00
   0  -5  -5    1.92    0.19
   0  -5  -5    2.01    0.20
   0  -5  -5    2.60    0.33
   0   5   5    2.46    0.26
   0   5   5    2.41    0.21
   0   5   5    2.55    0.31
   0   5   5    2.52    0.34
   0   5   5    2.87    0.23
   0   5   5    2.18    0.20
   0   5   5    2.49    0.33
  -1  -5  -5   10.30    0.60
  -1  -5  -5   10.34    0.64
  -1  -5  -5   11.24    0.62
  -1  -5  -5   11.60    0.85
   1   5   5   12.79    0.68
   1   5   5   12.90    0.88
   1   5   5   11.86    0.69
   1   5   5   13.41    0.96
   1   5   5   13.84    0.95
   1   5   5   11.57    0.71
   1   5   5   12.90    0.77
   1   5   5   12.82    0.74
   1   5   5   11.88    0.71
   1   5   5   13.97    0.95
  -2  -5  -5    7.96    0.54
  -2  -5  -5    8.79    0.73
  -2  -5  -5    8.12    0.50
  -2  -5  -5    8.18    0.51
  -2  -5  -5    8.46    0.52
  -2  -5  -5    8.35    0.60
   2   5   5   10.24    0.80
   2   5   5   10.03    0.57
   2   5   5   10.87    0.82
   2   5   5    9.62    0.61
   2   5   5   10.20    0.59
   2   5   5   10.36    0.77
   2   5   5    9.32    0.61
   2   5   5   10.14    0.63
   2   5   5   10.82    0.99
   2   5   5   10.00    0.91
  -3  -5  -5    0.32    0.16
  -3  -5  -5    0.14    0.11
  -3  -5  -5    0.14    0.09
  -3  -5  -5    0.12    0.07
  -3  -5  -5    0.03    0.21
   3   5   5    0.29    0.20
   3   5   5    0.38    0.17
   3   5   5    0.44    0.10
   3   5   5    0.30    0.12
   3   5   5    0.45    0.20
   3   5   5    0.35    0.12
   3   5   5    0.21    0.16
   3   5   5    0.23    0.13
   3   5   5    0.34    0.17
  -4  -5  -5    1.76    0.16
  -4  -5  -5    1.94    0.16
  -4  -5  -5    1.73    0.42
  -4  -5  -5    1.44    0.21
  -4  -5  -5    1.80    0.18
   4   5   5    2.47    0.29
   4   5   5    2.30    0.17
   4   5   5    1.88    0.29
   4   5   5    2.07    0.18
   4   5   5    2.17    0.26
   4   5   5    1.96    0.25
   4   5   5    2.27    0.20
   4   5   5    2.38    0.20
  -5  -5  -5    0.51    0.26
   5   5   5    0.29    0.05
   5   5   5    0.24    0.07
   5   5   5    0.22    0.04
   5   5   5    0.25    0.07
   5  -6  -5    3.45    0.31
   5  -6  -5    3.93    0.28
   5  -6  -5    3.33    0.28
   5  -6  -5    3.98    0.26
   5  -6  -5    3.02    0.28
  -5   6   5    5.56    0.45
  -5   6   5    6.23    0.40
   4  -6  -5    5.92    0.41
   4  -6  -5    5.06    0.47
   4  -6  -5    6.63    0.50
   4  -6  -5    5.22    0.47
   4  -6  -5    6.09    0.52
   4  -6  -5    5.63    0.46
   3  -6  -5    7.18    0.57
   3  -6  -5    7.56    0.60
   3  -6  -5    6.52    0.48
   3  -6  -5    7.18    0.55
   3  -6  -5    6.81    0.54
   3  -6  -5    7.97    0.60
   2  -6  -5   26.04    1.25
   2  -6  -5   24.80    1.24
   2  -6  -5   25.80    1.39
   2  -6  -5   23.41    1.40
   2  -6  -5   26.76    1.53
   2  -6  -5   24.79    1.34
  -2   6   5   33.65    1.76
  -2   6   5   33.01    1.83
  -2   6   5   35.10    1.93
  -2   6   5   31.60    1.83
  -2   6   5   31.10    1.63
   1  -6  -5   77.57    3.54
   1  -6  -5   73.07    3.50
  -1   6   5   80.64    4.65
  -1   6   5   81.63    4.16
  -1   6   5   84.75    3.90
  -1   6   5   91.59    4.25
   0  -6  -5   20.52    1.08
   0  -6  -5   19.82    1.10
   0  -6  -5   23.64    2.42
   0  -6  -5   21.25    1.52
   0   6   5   28.50    1.58
   0   6   5   21.50    1.89
   0   6   5   24.85    1.34
   0   6   5   25.26    1.51
   0   6   5   23.34    1.26
  -1  -6  -5   14.97    1.04
  -1  -6  -5   13.18    0.74
  -1  -6  -5   13.73    0.79
  -1  -6  -5   13.95    0.99
  -1  -6  -5   13.26    0.78
   1   6   5   13.68    0.98
   1   6   5   13.54    0.77
   1   6   5   12.78    0.75
   1   6   5   12.81    0.72
   1   6   5   12.93    0.73
   1   6   5   12.91    0.71
   1   6   5   13.31    0.90
   1   6   5   14.13    0.81
  -2  -6  -5   21.91    1.16
  -2  -6  -5   19.99    1.10
  -2  -6  -5   19.92    1.05
  -2  -6  -5   20.22    1.28
   2   6   5   19.16    0.99
   2   6   5   18.71    1.03
   2   6   5   18.11    1.04
   2   6   5   20.25    1.29
   2   6   5   20.48    1.34
   2   6   5   18.17    1.00
   2   6   5   19.75    1.25
   2   6   5   19.12    1.22
  -3  -6  -5    6.31    0.40
  -3  -6  -5    6.62    0.45
  -3  -6  -5    6.67    0.67
   3   6   5    7.20    0.45
   3   6   5    6.61    0.40
   3   6   5    5.61    0.58
   3   6   5    7.00    0.43
   3   6   5    6.36    0.54
   3   6   5    6.75    0.57
   3   6   5    6.41    0.45
   3   6   5    7.58    0.56
  -4  -6  -5    2.34    0.16
  -4  -6  -5    2.48    0.20
   4   6   5    2.08    0.26
   4   6   5    1.83    0.22
   4   6   5    2.23    0.18
   4   6   5    2.08    0.20
   4   6   5    2.07    0.21
   4   6   5    1.91    0.15
   4  -7  -5    0.78    0.13
   4  -7  -5    1.03    0.17
   4  -7  -5    0.89    0.13
   4  -7  -5    0.80    0.12
   4  -7  -5    1.17    0.13
  -4   7   5    0.91    0.18
   3  -7  -5    4.02    0.34
   3  -7  -5    3.89    0.32
   3  -7  -5    4.03    0.41
  -3   7   5    5.16    0.54
  -3   7   5    4.93    0.47
  -3   7   5    4.58    0.40
   2  -7  -5    3.46    0.35
   2  -7  -5    3.75    0.41
   2  -7  -5    3.58    0.25
  -2   7   5    5.97    0.56
  -2   7   5    5.34    0.44
  -2   7   5    5.50    0.50
   1  -7  -5   10.22    0.72
   1  -7  -5   11.58    0.86
   1  -7  -5   10.92    0.61
  -1   7   5   11.16    0.74
  -1   7   5   12.38    0.90
   0  -7  -5   12.88    0.73
   0  -7  -5   13.25    0.71
   0  -7  -5   12.35    0.92
   0   7   5   15.51    1.07
   0   7   5   15.08    0.90
  -1  -7  -5   27.48    1.61
  -1  -7  -5   27.56    1.36
  -1  -7  -5   26.87    1.39
   1   7   5   22.93    1.31
   1   7   5   26.20    1.32
   1   7   5   25.69    1.28
   1   7   5   28.43    1.58
   1   7   5   26.01    1.45
   1   7   5   25.17    1.35
  -2  -7  -5   17.02    1.09
  -2  -7  -5   17.09    0.93
  -2  -7  -5   17.59    0.90
   2   7   5   16.28    1.16
   2   7   5   17.98    0.93
   2   7   5   18.26    1.12
   2   7   5   17.71    0.91
   2   7   5   15.57    0.95
  -3  -7  -5    2.62    0.28
  -3  -7  -5    3.63    0.23
  -3  -7  -5    2.71    0.35
  -3  -7  -5    3.83    0.61
  -3  -7  -5    3.64    0.26
   3   7   5    3.37    0.33
   3   7   5    3.42    0.23
   3   7   5    3.73    0.26
   3   7   5    2.80    0.30
   3   7   5    3.49    0.36
   3   7   5    2.81    0.27
   4  -8  -5    0.10    0.11
  -4   8   5    9.82    0.55
   3  -8  -5    8.11    0.58
   3  -8  -5   10.67    0.67
  -3   8   5    9.88    0.67
  -3   8   5   11.11    0.64
  -3   8   5    9.89    0.66
   2  -8  -5    6.64    0.54
   2  -8  -5    6.59    0.38
  -2   8   5    6.25    0.53
  -2   8   5    6.04    0.49
  -2   8   5    6.98    0.48
   1  -8  -5    4.74    0.32
   1  -8  -5    4.86    0.47
   1  -8  -5    5.01    0.32
  -1   8   5    6.55    0.49
  -1   8   5    7.68    0.62
   0  -8  -5    5.36    0.36
   0  -8  -5    5.22    0.34
   0  -8  -5    4.76    0.48
   0   8   5    7.04    0.60
   0   8   5    6.87    0.48
  -1  -8  -5    1.19    0.14
  -1  -8  -5    1.04    0.19
  -1  -8  -5    1.40    0.16
   1   8   5    0.81    0.12
   1   8   5    0.90    0.19
  -2  -8  -5    4.53    0.44
  -2  -8  -5    5.66    0.33
  -2  -8  -5    5.60    0.36
  -2  -8  -5    5.68    0.44
   2   8   5    5.11    0.42
   2   8   5    3.82    0.36
  -3  -8  -5   10.34    0.55
   3   8   5   10.28    0.63
   2  -9  -5    1.44    0.12
   2  -9  -5    1.31    0.18
  -2   9   5    0.99    0.13
   1  -9  -5    1.48    0.22
   1  -9  -5    1.84    0.15
   1  -9  -5    2.25    0.18
  -1   9   5    1.79    0.22
   0  -9  -5    0.12    0.07
   0  -9  -5    0.25    0.06
   0  -9  -5    0.18    0.06
   0   9   5    0.00    0.03
   0   9   5    0.00    0.04
  -1  -9  -5   14.66    0.75
  -1  -9  -5   14.57    0.73
   1   9   5   11.97    0.75
   1   9   5   12.73    0.69
   0  11  -6    1.87    0.20
   0  11  -6    2.51    0.24
   0 -11   6    3.27    0.34
  -1  11  -6    6.79    0.47
   1 -11   6    3.47    0.37
   2  10  -6    1.14    0.16
   2  10  -6    0.79    0.13
  -2 -10   6    2.11    0.16
  -2 -10   6    1.56    0.21
   1  10  -6   17.61    0.93
   1  10  -6   12.87    0.87
  -1 -10   6   22.19    1.35
  -1 -10   6   22.28    1.10
   0  10  -6    9.24    0.69
   0  10  -6   11.21    0.70
   0 -10   6   15.70    1.06
   0 -10   6   14.86    0.78
  -1  10  -6    7.13    0.57
  -1  10  -6    9.11    0.63
  -1  10  -6    8.08    0.61
   1 -10   6   11.28    0.60
   1 -10   6   10.44    0.68
   1 -10   6   12.39    0.88
  -2  10  -6    9.11    0.64
  -2  10  -6    8.84    0.56
   2 -10   6   10.78    0.54
   2 -10   6    8.59    0.71
  -3  10  -6   11.36    0.68
  -3  10  -6   13.67    0.85
   3 -10   6    9.77    0.71
   3 -10   6   13.48    0.68
   3   9  -6    0.30    0.08
   3   9  -6    0.17    0.05
   3   9  -6    0.24    0.08
   3   9  -6    0.30    0.06
  -3  -9   6    0.48    0.07
   2   9  -6    3.84    0.37
   2   9  -6    4.67    0.39
   2   9  -6    3.78    0.32
  -2  -9   6    5.72    0.36
  -2  -9   6    5.31    0.43
  -2  -9   6    4.44    0.47
   1   9  -6   13.47    0.86
   1   9  -6   12.40    0.86
  -1  -9   6   16.48    0.87
  -1  -9   6   15.94    1.15
   0   9  -6   13.91    0.94
   0   9  -6   13.80    0.87
   0   9  -6   13.71    0.90
   0  -9   6   18.58    1.28
   0  -9   6   17.41    0.94
  -1   9  -6    0.41    0.12
  -1   9  -6    0.45    0.15
  -1   9  -6    0.49    0.15
   1  -9   6    0.27    0.07
   1  -9   6    0.33    0.08
   1  -9   6    0.32    0.15
   2  -9   6    3.98    0.27
   2  -9   6    4.30    0.49
  -3   9  -6    6.87    0.55
  -3   9  -6    6.99    0.50
  -3   9  -6    7.15    0.51
   3  -9   6    7.18    0.42
   3  -9   6    7.63    0.54
   3  -9   6    7.59    0.46
   3  -9   6    8.54    0.67
   4  -9   6   18.44    0.88
   4   8  -6    4.23    0.34
   4   8  -6    4.63    0.30
  -4  -8   6    9.29    0.60
   3   8  -6    5.57    0.48
   3   8  -6    5.77    0.46
   3   8  -6    6.20    0.40
   3   8  -6    5.75    0.45
  -3  -8   6    7.20    0.43
  -3  -8   6    6.40    0.54
   2   8  -6    9.44    0.58
   2   8  -6    9.51    0.71
   2   8  -6    9.14    0.65
   2   8  -6    9.89    0.71
  -2  -8   6   10.05    0.59
  -2  -8   6   10.22    0.74
  -2  -8   6    9.61    0.80
   1   8  -6    9.95    0.73
   1   8  -6   10.26    0.77
   1   8  -6    9.43    0.65
  -1  -8   6   10.56    0.65
  -1  -8   6   11.13    0.77
  -1  -8   6   11.77    0.94
   0   8  -6    5.32    0.49
   0   8  -6    5.48    0.33
   0   8  -6    4.66    0.42
   0   8  -6    5.12    0.51
   0  -8   6    7.39    0.72
   0  -8   6    6.84    0.45
   0  -8   6    6.51    0.42
  -1   8  -6   30.12    1.43
  -1   8  -6   30.48    1.72
  -1   8  -6   27.93    1.59
  -1   8  -6   28.76    1.62
   1  -8   6   32.39    1.59
   1  -8   6   31.43    1.73
   1  -8   6   31.57    1.58
   1  -8   6   32.87    1.97
   2  -8   6   28.58    1.42
   2  -8   6   27.77    1.38
   2  -8   6   28.82    1.37
   2  -8   6   25.65    1.51
   2  -8   6   28.75    1.73
   2  -8   6   28.59    1.98
   3  -8   6   17.66    0.94
   3  -8   6   19.40    1.35
   3  -8   6   19.81    1.45
   3  -8   6   18.81    1.27
   3  -8   6   18.65    1.11
   3  -8   6   19.33    1.00
   3  -8   6   17.63    1.10
  -4   8  -6   -0.14    0.25
  -4   8  -6    0.20    0.07
  -4   8  -6    0.33    0.09
   4  -8   6    0.10    0.07
   4  -8   6    0.14    0.03
   4  -8   6    0.16    0.06
   4  -8   6    0.10    0.08
   4  -8   6    0.06    0.05
   4  -8   6    0.14    0.04
   4  -8   6    0.07    0.07
   4   7  -6    3.61    0.36
   4   7  -6    4.53    0.31
   4   7  -6    4.50    0.37
   4   7  -6    4.25    0.26
   4   7  -6    4.68    0.39
   4   7  -6    4.03    0.35
  -4  -7   6    6.68    0.41
  -4  -7   6    6.45    0.52
   3   7  -6    2.06    0.28
   3   7  -6    1.65    0.22
   3   7  -6    1.79    0.16
   3   7  -6    1.89    0.24
   3   7  -6    1.56    0.25
   3   7  -6    1.76    0.25
   3   7  -6    2.16    0.21
  -3  -7   6    1.83    0.28
  -3  -7   6    1.69    0.27
  -3  -7   6    1.72    0.18
   2   7  -6   38.46    1.88
   2   7  -6   37.78    2.05
   2   7  -6   37.49    2.04
   2   7  -6   37.33    1.98
  -2  -7   6   47.98    2.65
  -2  -7   6   47.07    2.35
  -2  -7   6   49.21    2.53
  -2  -7   6   50.80    2.59
  -2  -7   6   49.56    2.33
   1   7  -6   16.02    1.31
   1   7  -6   18.54    0.94
   1   7  -6   21.00    1.25
   1   7  -6   19.93    1.34
  -1  -7   6   18.16    1.10
  -1  -7   6   20.42    1.00
   0   7  -6   28.06    1.62
   0   7  -6   28.93    1.59
   0   7  -6   25.26    1.49
   0   7  -6   29.47    1.35
   0  -7   6   34.36    1.85
   0  -7   6   36.06    2.10
   0  -7   6   33.42    1.71
   0  -7   6   35.62    1.68
  -1   7  -6   16.22    1.05
  -1   7  -6   17.46    0.89
  -1   7  -6   17.22    1.14
  -1   7  -6   18.12    1.06
   1  -7   6   18.24    0.96
   1  -7   6   17.57    0.95
   1  -7   6   17.76    1.09
   1  -7   6   18.37    1.29
   2  -7   6    4.98    0.57
   2  -7   6    4.36    0.34
   2  -7   6    4.61    0.45
   2  -7   6    4.62    0.32
   2  -7   6    4.69    0.44
   2  -7   6    4.67    0.33
   2  -7   6    4.77    0.45
   3  -7   6   43.23    2.61
   3  -7   6   37.62    2.08
   3  -7   6   39.28    2.34
   3  -7   6   39.16    2.12
   3  -7   6   36.11    1.84
   3  -7   6   35.91    1.90
   3  -7   6   36.78    1.85
   3  -7   6   41.64    2.08
   4  -7   6    2.31    0.19
   4  -7   6    2.12    0.27
   4  -7   6    2.67    0.29
   4  -7   6    2.54    0.30
   4  -7   6    2.58    0.29
   4  -7   6    2.24    0.43
   4  -7   6    2.37    0.34
   5  -7   6    7.46    0.54
   5  -7   6    8.80    0.47
   5  -7   6    9.51    0.69
   5  -7   6    8.62    0.45
   5  -7   6    9.10    0.55
   5   6  -6    3.99    0.30
   5   6  -6    3.39    0.27
   5   6  -6    3.85    0.26
   5   6  -6    3.92    0.23
   5   6  -6    3.13    0.28
   4   6  -6    0.16    0.08
   4   6  -6    0.29    0.10
   4   6  -6    0.15    0.11
   4   6  -6    0.14    0.06
   4   6  -6    0.01    0.09
   4   6  -6    0.20    0.07
   4   6  -6    0.19    0.09
   4   6  -6    0.20    0.09
  -4  -6   6    0.60    0.20
  -4  -6   6    0.73    0.17
  -4  -6   6    0.58    0.10
   3   6  -6   14.86    0.89
   3   6  -6   17.77    1.01
   3   6  -6   16.24    0.83
   3   6  -6   15.90    0.82
   3   6  -6   12.96    1.04
   3   6  -6   17.57    1.07
   3   6  -6   14.31    0.97
   3   6  -6   15.78    1.04
  -3  -6   6   19.46    1.29
  -3  -6   6   22.34    1.18
  -3  -6   6   24.78    1.44
  -3  -6   6   23.40    1.42
  -3  -6   6   23.04    1.18
   2   6  -6  160.12    7.87
   2   6  -6  166.20    7.88
   2   6  -6  191.42    8.25
   2   6  -6  179.87    8.15
   2   6  -6  178.78    8.17
   2   6  -6  174.63    7.96
   2   6  -6  179.60    8.08
   2   6  -6  165.93    8.02
   2   6  -6  175.64    7.89
  -2  -6   6  221.70    9.91
  -2  -6   6  213.58    9.94
  -2  -6   6  221.85   10.18
  -2  -6   6  222.18   10.21
   1   6  -6   80.63    3.53
   1   6  -6   76.48    3.96
   1   6  -6   81.59    3.86
   1   6  -6   81.02    3.79
   1   6  -6   66.49    3.86
  -1  -6   6   93.47    4.23
  -1  -6   6   86.08    4.27
  -1  -6   6   97.62    4.76
   0   6  -6   41.15    1.92
   0   6  -6   40.58    2.37
   0   6  -6   40.68    2.13
   0  -6   6   42.40    2.06
   0  -6   6   45.34    2.29
   0  -6   6   44.02    2.46
  -1   6  -6   17.39    1.17
  -1   6  -6   20.65    0.98
  -1   6  -6   20.56    1.24
   1  -6   6   20.10    1.04
   1  -6   6   17.59    1.25
   1  -6   6   20.14    1.34
   1  -6   6   19.92    1.18
   1  -6   6   20.32    1.00
   1  -6   6   19.36    1.02
   2  -6   6    5.43    0.53
   2  -6   6    5.19    0.35
   2  -6   6    5.11    0.47
   2  -6   6    5.15    0.37
   2  -6   6    5.38    0.38
   2  -6   6    6.33    0.49
   2  -6   6    5.56    0.50
   2  -6   6    5.40    0.48
   2  -6   6    6.09    0.63
   3  -6   6   91.14    4.80
   3  -6   6  115.61    5.58
   3  -6   6   93.15    4.80
   3  -6   6  101.43    4.78
   3  -6   6   91.05    4.77
   3  -6   6  107.33    5.08
   3  -6   6   98.75    4.61
   3  -6   6   95.78    4.57
   3  -6   6   99.97    4.64
   3  -6   6  104.54    4.83
   3  -6   6   97.57    4.56
   4  -6   6   13.04    0.69
   4  -6   6   12.67    0.89
   4  -6   6   11.71    0.96
   4  -6   6   13.71    0.87
   4  -6   6   13.03    0.73
   4  -6   6   12.89    0.83
  -5   6  -6    0.05    0.07
   5  -6   6    1.22    0.12
   5  -6   6    1.08    0.15
   5  -6   6    1.21    0.21
   5  -6   6    1.04    0.21
   5  -6   6    0.88    0.24
   5  -6   6    1.03    0.18
   5   5  -6    8.86    0.60
   5   5  -6   10.58    0.58
   5   5  -6   10.62    0.65
   5   5  -6    8.98    0.63
   5   5  -6   10.16    0.53
  -5  -5   6   10.77    0.79
  -5  -5   6   13.38    0.83
   4   5  -6    3.88    0.28
   4   5  -6    3.61    0.38
   4   5  -6    3.72    0.44
   4   5  -6    3.34    0.37
   4   5  -6    4.06    0.33
   4   5  -6    4.21    0.41
   4   5  -6    3.83    0.36
  -4  -5   6    5.74    0.39
  -4  -5   6    6.75    0.50
  -4  -5   6    6.51    0.57
  -4  -5   6    6.03    0.58
   3   5  -6   21.69    1.33
   3   5  -6   21.54    1.11
   3   5  -6   21.18    1.17
   3   5  -6   21.49    1.23
   3   5  -6   22.90    1.12
   3   5  -6   23.23    1.28
   3   5  -6   22.15    1.30
   3   5  -6   20.79    1.09
   3   5  -6   22.11    1.33
  -3  -5   6   27.68    1.47
  -3  -5   6   30.46    1.76
  -3  -5   6   29.42    1.73
  -3  -5   6   29.21    1.46
  -3  -5   6   30.14    1.59
   2   5  -6   23.66    1.70
   2   5  -6   23.03    1.23
   2   5  -6   22.97    1.49
   2   5  -6   24.63    1.45
   2   5  -6   25.59    1.40
   2   5  -6   27.60    1.54
   2   5  -6   26.07    1.24
  -2  -5   6   33.21    1.75
  -2  -5   6   34.38    1.89
  -2  -5   6   34.17    1.63
  -2  -5   6   33.62    1.88
  -2  -5   6   32.63    1.98
   1   5  -6   22.85    1.33
   1   5  -6   21.05    1.09
   1   5  -6   22.73    1.30
  -1  -5   6   23.72    1.36
  -1  -5   6   23.89    1.22
  -1  -5   6   24.75    1.26
   0   5  -6   23.42    1.81
   0   5  -6   22.83    1.11
   0  -5   6   24.48    1.18
   0  -5   6   24.50    1.20
   0  -5   6   24.57    1.25
   1  -5   6   34.46    1.71
   1  -5   6   34.81    1.74
   1  -5   6   34.81    1.68
  -2   5  -6    6.46    0.67
  -2   5  -6    7.28    0.42
  -2   5  -6    7.23    0.51
  -2   5  -6    7.02    0.58
   2  -5   6    9.90    0.73
   2  -5   6   10.32    1.03
   2  -5   6    9.39    0.79
   2  -5   6    8.21    0.51
   2  -5   6    9.16    0.55
   2  -5   6    9.04    0.57
   2  -5   6    8.81    0.79
   2  -5   6    8.87    0.69
   3  -5   6  122.78    6.24
   3  -5   6  142.09    7.28
   3  -5   6  136.26    6.23
   3  -5   6  147.91    6.46
   3  -5   6  133.98    6.18
   3  -5   6  140.78    6.59
   3  -5   6  122.98    6.25
   4  -5   6   15.60    0.87
   4  -5   6   16.72    1.02
   4  -5   6   15.29    1.07
   4  -5   6   19.29    1.05
   4  -5   6   16.52    1.50
   4  -5   6   16.15    1.01
   4  -5   6   17.58    1.23
   4  -5   6   15.75    0.92
   4  -5   6   17.14    1.09
  -5   5  -6    0.24    0.32
   5  -5   6    6.38    0.51
   5  -5   6    6.70    0.40
   5  -5   6    6.47    0.56
   5  -5   6    6.56    0.37
   5  -5   6    5.24    0.46
   5   4  -6    8.38    0.67
   5   4  -6   10.12    0.51
   5   4  -6    9.19    0.62
   5   4  -6    8.14    0.54
   5   4  -6    7.88    0.60
   5   4  -6   10.07    0.60
  -5  -4   6   11.06    0.81
  -5  -4   6   12.52    0.78
   4   4  -6   15.09    0.81
   4   4  -6   14.79    0.93
   4   4  -6   16.99    1.02
   4   4  -6   14.38    0.99
   4   4  -6   15.00    1.00
   4   4  -6   15.29    0.87
  -4  -4   6   21.32    1.33
  -4  -4   6   21.32    1.38
  -4  -4   6   21.47    1.20
   3   4  -6   68.83    3.29
   3   4  -6   63.26    3.18
   3   4  -6   65.57    3.36
   3   4  -6   66.84    3.22
   3   4  -6   66.89    3.38
   3   4  -6   69.80    3.44
   3   4  -6   74.89    3.50
   3   4  -6   71.56    3.23
   3   4  -6   76.60    3.47
  -3  -4   6   94.31    4.29
  -3  -4   6   94.54    4.46
  -3  -4   6   90.94    4.14
  -3  -4   6   81.70    4.14
  -3  -4   6   88.28    4.46
   2   4  -6   44.00    2.27
   2   4  -6   37.10    2.18
   2   4  -6   46.03    2.49
   2   4  -6   43.74    2.21
   2   4  -6   46.33    2.07
  -2  -4   6   56.74    2.96
  -2  -4   6   60.49    3.04
  -2  -4   6   59.83    2.83
  -2  -4   6   55.00    2.69
   1   4  -6   10.65    1.14
   1   4  -6   11.81    0.77
   1   4  -6   10.30    0.58
  -1  -4   6   11.69    0.82
  -1  -4   6   12.83    0.65
  -1  -4   6   12.41    0.82
   0   4  -6   53.84    3.15
   0   4  -6   48.02    2.41
   0   4  -6   53.71    2.38
   0  -4   6   61.90    2.88
   0  -4   6   63.73    2.92
   0  -4   6   64.06    2.95
  -1   4  -6    1.87    0.21
  -1   4  -6    2.18    0.16
  -1   4  -6    2.20    0.44
   1  -4   6    1.49    0.16
   1  -4   6    1.61    0.15
   1  -4   6    1.67    0.17
   2  -4   6   36.08    1.91
   2  -4   6   33.32    1.71
   2  -4   6   34.60    1.74
   2  -4   6   35.51    1.67
   2  -4   6   31.72    1.83
   2  -4   6   40.04    2.38
   3  -4   6   43.06    2.23
   3  -4   6   47.09    2.63
   3  -4   6   44.38    2.22
   3  -4   6   46.02    2.42
   3  -4   6   43.54    2.20
   3  -4   6   54.65    2.35
   3  -4   6   48.27    2.48
   3  -4   6   44.42    2.36
   3  -4   6   45.87    2.26
   3  -4   6   47.80    3.02
   3  -4   6   48.83    2.43
   4  -4   6   28.56    1.52
   4  -4   6   27.92    1.59
   4  -4   6   26.54    2.03
   4  -4   6   26.64    1.32
   4  -4   6   24.75    1.66
   4  -4   6   26.01    1.34
   4  -4   6   22.09    1.50
   4  -4   6   26.37    1.30
   4  -4   6   26.23    1.44
   4  -4   6   26.20    1.34
   4  -4   6   26.00    1.29
  -5   4  -6    1.06    0.37
   5  -4   6   24.87    1.46
   5  -4   6   24.81    1.21
   5  -4   6   23.72    1.33
   5  -4   6   25.48    1.22
   5  -4   6   22.40    1.37
   5  -4   6   23.35    1.17
   6   3  -6   14.87    0.81
   6   3  -6   14.54    0.79
  -6  -3   6   78.71    4.30
   5   3  -6   16.99    0.93
   5   3  -6   16.70    1.03
   5   3  -6   18.17    1.08
   5   3  -6   17.85    1.04
   5   3  -6   15.28    0.93
   5   3  -6   16.73    0.95
   4   3  -6   11.45    0.64
   4   3  -6   11.95    0.71
   4   3  -6   10.56    0.87
   4   3  -6    9.62    0.78
   4   3  -6   11.59    0.75
   4   3  -6   11.63    0.66
   4   3  -6   12.46    0.85
   4   3  -6   11.77    0.81
   4   3  -6   10.99    0.74
   4   3  -6   11.17    0.62
  -4  -3   6   14.80    0.83
  -4  -3   6   14.80    1.01
  -4  -3   6   15.00    1.07
  -4  -3   6   15.86    0.92
   3   3  -6    3.71    0.39
   3   3  -6    3.54    0.39
   3   3  -6    4.23    0.29
   3   3  -6    4.06    0.27
   3   3  -6    3.60    0.39
   3   3  -6    3.66    0.27
   3   3  -6    3.88    0.46
  -3  -3   6    4.18    0.47
  -3  -3   6    3.63    0.28
  -3  -3   6    4.14    0.39
  -3  -3   6    3.95    0.46
   2   3  -6   30.42    1.49
   2   3  -6   34.11    1.81
   2   3  -6   30.14    1.52
  -2  -3   6   38.90    1.93
  -2  -3   6   38.23    1.93
  -2  -3   6   39.33    1.84
  -2  -3   6   38.68    2.09
   1   3  -6   77.55    3.69
   1   3  -6   86.84    3.93
   1   3  -6   77.96    4.39
  -1  -3   6   91.58    4.04
  -1  -3   6   83.80    4.12
  -1  -3   6   90.05    4.07
  -1  -3   6   89.03    4.24
  -1  -3   6   88.44    4.04
   0   3  -6   57.20    2.67
   0   3  -6   57.94    2.63
   0   3  -6   57.87    3.31
   0   3  -6   58.86    2.67
   0  -3   6   60.96    2.77
   0  -3   6   60.60    2.72
   0  -3   6   57.11    2.75
   0  -3   6   60.55    2.78
  -1   3  -6    1.60    0.14
  -1   3  -6    1.70    0.13
  -1   3  -6    1.92    0.20
  -1   3  -6    1.73    0.38
   1  -3   6    1.10    0.13
   1  -3   6    1.24    0.10
   1  -3   6    1.07    0.12
   1  -3   6    1.22    0.12
  -2   3  -6   39.81    1.77
  -2   3  -6   40.71    1.88
  -2   3  -6   31.05    2.63
   2  -3   6   38.03    1.92
   2  -3   6   40.21    1.87
   2  -3   6   41.57    1.93
   2  -3   6   39.55    1.93
   3  -3   6   79.87    3.72
   3  -3   6   83.65    3.81
   3  -3   6   76.50    3.96
   3  -3   6   79.98    3.78
   3  -3   6   73.45    3.79
   3  -3   6   88.87    4.11
   3  -3   6   81.15    4.18
   3  -3   6   86.30    4.65
   4  -3   6   22.21    1.38
   4  -3   6   23.15    1.21
   4  -3   6   24.15    1.90
   4  -3   6   23.79    1.56
   4  -3   6   25.13    1.40
   4  -3   6   23.70    1.26
   4  -3   6   25.40    1.47
   4  -3   6   24.20    1.20
   4  -3   6   21.82    1.35
   4  -3   6   24.13    1.25
  -5   3  -6    0.31    0.37
  -5   3  -6    0.27    0.11
   5  -3   6    4.89    0.45
   5  -3   6    4.77    0.31
   5  -3   6    4.87    0.31
   5  -3   6    5.30    0.57
   5  -3   6    5.12    0.34
   5  -3   6    4.19    0.39
   6   2  -6   10.43    0.66
   6   2  -6   12.39    0.67
   5   2  -6   12.20    0.80
   5   2  -6   10.02    0.75
   5   2  -6   11.77    0.61
   5   2  -6   10.92    0.76
   5   2  -6   11.18    0.68
   4   2  -6   25.95    1.35
   4   2  -6   23.46    1.60
   4   2  -6   30.60    1.62
   4   2  -6   30.25    1.49
   4   2  -6   26.88    1.43
   4   2  -6   27.80    1.49
   4   2  -6   26.82    1.50
   4   2  -6   31.52    1.48
   4   2  -6   24.99    1.54
   4   2  -6   28.81    1.60
  -4  -2   6   36.99    2.05
  -4  -2   6   31.08    1.93
  -4  -2   6   37.57    1.95
  -4  -2   6   36.57    1.85
   3   2  -6    7.26    0.69
   3   2  -6    8.92    0.62
   3   2  -6    9.81    0.77
   3   2  -6    9.30    0.50
   3   2  -6    9.58    0.82
  -3  -2   6   10.79    0.71
  -3  -2   6   10.39    0.77
  -3  -2   6   11.10    0.84
  -3  -2   6   11.09    0.61
   2   2  -6    1.16    0.10
   2   2  -6    0.66    0.31
   2   2  -6    1.51    0.23
   2   2  -6    1.03    0.12
  -2  -2   6    1.26    0.21
  -2  -2   6    1.10    0.11
  -2  -2   6    1.17    0.12
  -2  -2   6    0.85    0.21
  -2  -2   6    1.09    0.15
   1   2  -6   45.59    2.21
   1   2  -6   50.92    2.41
   1   2  -6   45.50    2.16
  -1  -2   6   52.16    2.54
  -1  -2   6   54.81    2.43
  -1  -2   6   52.05    2.64
   0   2  -6   37.69    1.79
   0   2  -6   40.02    2.38
   0   2  -6   38.03    1.80
   0   2  -6   38.41    1.76
   0  -2   6   47.26    2.14
   0  -2   6   44.36    2.12
  -1   2  -6  164.26    8.05
  -1   2  -6  163.24    7.32
  -1   2  -6  159.72    7.34
  -1   2  -6  162.91    7.31
  -1   2  -6  164.23    7.41
   1  -2   6  167.47    7.73
   1  -2   6  170.99    7.78
   1  -2   6  174.19    7.76
   1  -2   6  177.42    7.78
  -2   2  -6    4.62    0.30
  -2   2  -6    5.35    0.31
  -2   2  -6    4.85    0.77
  -2   2  -6    4.91    0.37
   2  -2   6    6.69    0.37
   2  -2   6    5.89    0.40
   2  -2   6    6.66    0.42
   2  -2   6    6.50    0.52
   3  -2   6   30.31    1.51
   3  -2   6   31.09    1.47
   3  -2   6   28.08    1.49
   3  -2   6   32.47    1.88
   3  -2   6   32.46    1.75
   3  -2   6   27.77    1.51
   3  -2   6   29.86    1.53
   3  -2   6   29.85    1.54
   3  -2   6   31.52    2.20
   4  -2   6   24.57    1.54
   4  -2   6   21.96    1.15
   4  -2   6   24.19    1.35
   4  -2   6   24.60    1.43
   4  -2   6   22.33    1.22
   4  -2   6   22.28    1.31
   4  -2   6   22.09    1.23
   4  -2   6   21.78    1.19
   4  -2   6   23.25    1.17
   4  -2   6   21.72    1.17
   5  -2   6   15.49    0.98
   5  -2   6   16.66    0.82
   5  -2   6   15.20    0.78
   5  -2   6   14.70    0.88
   5  -2   6   13.85    0.83
   5  -2   6   14.97    1.06
   5  -2   6   15.29    0.94
   6  -2   6    9.87    0.53
   6   1  -6    0.78    0.10
   6   1  -6    0.91    0.13
   6   1  -6    0.77    0.12
   6   1  -6    0.66    0.12
   5   1  -6    1.92    0.21
   5   1  -6    1.81    0.15
   5   1  -6    1.75    0.24
   5   1  -6    1.77    0.24
   5   1  -6    1.45    0.23
   5   1  -6    1.68    0.21
  -5  -1   6    1.97    0.27
  -5  -1   6    2.06    0.20
   4   1  -6    7.08    0.44
   4   1  -6    8.11    0.47
   4   1  -6    7.57    0.61
   4   1  -6    7.14    0.56
   4   1  -6    7.52    0.43
   4   1  -6    6.70    0.62
   4   1  -6    7.28    0.60
   4   1  -6    7.51    0.55
   4   1  -6    7.19    0.51
   4   1  -6    7.31    0.61
  -4  -1   6   10.92    0.62
  -4  -1   6   10.87    0.84
   3   1  -6   24.07    1.25
   3   1  -6   20.45    1.41
   3   1  -6   25.86    1.21
   3   1  -6   22.78    1.19
   3   1  -6   25.11    1.16
   3   1  -6   25.30    1.39
   3   1  -6   25.11    1.37
   3   1  -6   23.70    1.33
   3   1  -6   21.81    1.35
  -3  -1   6   31.21    1.53
  -3  -1   6   31.60    1.92
  -3  -1   6   31.57    1.53
  -3  -1   6   31.73    1.79
   2   1  -6   81.19    4.58
   2   1  -6   82.15    3.82
   2   1  -6   84.18    3.87
   2   1  -6   89.77    4.12
  -2  -1   6   96.13    4.27
  -2  -1   6   88.78    4.41
  -2  -1   6   95.13    4.29
  -2  -1   6   95.20    4.32
  -2  -1   6   94.63    4.53
   1   1  -6   99.53    4.54
   1   1  -6   99.67    4.59
   1   1  -6  104.25    5.20
  -1  -1   6  123.46    5.72
  -1  -1   6  122.95    5.81
  -1  -1   6  123.59    5.62
  -1  -1   6  126.96    5.62
  -1  -1   6  123.66    5.57
   0   1  -6  112.69    5.60
   0   1  -6  113.18    5.02
   0   1  -6  108.56    4.94
   0   1  -6  106.95    4.96
   0  -1   6  130.00    5.69
   0  -1   6  129.06    5.72
   0  -1   6  119.68    5.64
  -1   1  -6   62.97    2.91
  -1   1  -6   58.54    2.94
  -1   1  -6   61.40    2.84
  -1   1  -6   63.74    3.49
   1  -1   6   64.92    3.09
   1  -1   6   68.39    3.14
   1  -1   6   71.15    3.15
  -2   1  -6   58.24    2.76
  -2   1  -6   57.37    2.68
   2  -1   6   62.19    2.86
   2  -1   6   59.61    2.79
   2  -1   6   60.47    2.84
   3  -1   6   13.16    0.77
   3  -1   6   13.92    0.72
   3  -1   6   12.83    0.77
   3  -1   6   14.85    0.78
   3  -1   6   13.73    0.95
   3  -1   6   14.80    0.91
   3  -1   6   12.52    1.26
   3  -1   6   13.29    0.78
   3  -1   6   13.91    0.76
   3  -1   6   14.02    1.04
  -4   1  -6   48.88    2.35
  -4   1  -6   50.82    2.43
  -4   1  -6   46.62    2.52
  -4   1  -6   51.59    2.42
   4  -1   6   50.60    2.53
   4  -1   6   47.87    2.30
   4  -1   6   42.68    2.98
   4  -1   6   51.19    2.46
   4  -1   6   47.55    2.46
   4  -1   6   51.55    2.38
   4  -1   6   47.35    2.33
   4  -1   6   47.78    2.34
   4  -1   6   49.63    2.71
   4  -1   6   48.47    2.33
   4  -1   6   51.40    2.59
   5  -1   6   10.27    0.67
   5  -1   6   10.04    0.73
   5  -1   6    9.62    0.60
   5  -1   6   10.07    0.57
   5  -1   6    9.95    0.57
   5  -1   6    9.84    0.79
   5  -1   6    9.89    0.54
   6   0  -6    6.89    0.42
   6   0  -6    6.79    0.46
   6   0  -6    7.60    0.42
   6   0  -6    6.58    0.47
  -6   0   6   26.64    1.94
   5   0  -6    5.04    0.42
   5   0  -6    4.71    0.30
   5   0  -6    4.33    0.43
   5   0  -6    4.80    0.43
   5   0  -6    4.86    0.37
   5   0  -6    5.37    0.47
  -5   0   6    4.27    0.52
  -5   0   6    5.15    0.35
  -5   0   6    5.10    0.51
   4   0  -6   11.97    0.82
   4   0  -6   11.97    0.79
   4   0  -6   11.07    0.72
   4   0  -6   12.27    0.64
   4   0  -6   12.36    0.79
   4   0  -6   12.29    0.85
   4   0  -6   11.89    0.67
   4   0  -6   12.34    0.84
   4   0  -6   11.36    0.64
   4   0  -6   10.42    0.81
  -4   0   6   17.21    1.16
  -4   0   6   19.58    1.07
  -4   0   6   17.53    0.98
   3   0  -6   10.53    0.74
   3   0  -6   10.92    0.96
   3   0  -6   10.43    0.60
   3   0  -6   10.90    0.75
   3   0  -6   10.56    0.76
   3   0  -6   11.19    0.59
   3   0  -6   11.20    0.67
   3   0  -6   11.40    0.62
   3   0  -6   11.38    0.80
  -3   0   6   15.93    0.91
  -3   0   6   14.73    1.01
  -3   0   6   15.07    0.81
  -3   0   6   14.53    0.84
   2   0  -6   57.99    2.78
   2   0  -6   59.73    2.82
   2   0  -6   64.64    3.04
  -2   0   6   65.48    3.25
  -2   0   6   70.54    3.17
  -2   0   6   69.40    3.19
  -2   0   6   69.02    3.39
   1   0  -6   13.85    0.69
   1   0  -6   14.90    0.74
   1   0  -6   14.11    1.12
  -1   0   6   16.37    0.85
  -1   0   6   17.11    1.03
  -1   0   6   17.24    0.86
   0   0  -6   19.48    0.95
   0   0  -6   18.71    0.91
   0   0  -6   19.20    1.39
   0   0   6   17.81    0.89
   0   0   6   17.43    0.86
  -1   0  -6   22.80    1.68
  -1   0  -6   22.07    1.21
  -1   0  -6   26.85    1.20
  -1   0  -6   22.66    1.15
   1   0   6   25.89    1.27
   1   0   6   26.66    1.44
   1   0   6   26.64    1.28
   1   0   6   25.31    1.23
  -2   0  -6   58.44    2.87
  -2   0  -6   65.10    4.26
  -2   0  -6   58.51    2.81
   2   0   6   57.35    2.68
   2   0   6   60.00    2.76
   2   0   6   58.28    2.73
   2   0   6   57.83    2.92
  -3   0  -6   53.79    2.53
  -3   0  -6   56.39    2.62
  -3   0  -6   53.06    2.58
  -3   0  -6   51.98    2.71
   3   0   6   50.68    2.57
   3   0   6   51.05    2.39
   3   0   6   50.58    2.85
   3   0   6   51.55    2.43
   3   0   6   58.02    3.08
   3   0   6   52.92    3.53
   3   0   6   50.58    2.46
   3   0   6   50.97    2.63
   3   0   6   43.30    2.98
  -4   0  -6    2.50    0.23
   4   0   6    3.54    0.59
   4   0   6    4.74    0.31
   4   0   6    3.91    0.31
   4   0   6    3.91    0.28
   4   0   6    3.91    0.41
   4   0   6    3.80    0.40
   4   0   6    4.28    0.45
   4   0   6    3.61    0.28
   4   0   6    3.64    0.47
   4   0   6    4.07    0.33
   4   0   6    3.63    0.29
  -5   0  -6    5.06    0.33
   5   0   6   10.92    0.88
   5   0   6   11.76    0.71
   5   0   6   10.69    0.85
   5   0   6   11.12    0.73
   6  -1  -6    7.38    0.49
   6  -1  -6    7.38    0.43
   6  -1  -6    6.88    0.47
  -6   1   6    7.21    0.62
   5  -1  -6    5.31    0.43
   5  -1  -6    5.98    0.48
   5  -1  -6    5.40    0.40
   5  -1  -6    5.66    0.44
   5  -1  -6    5.06    0.46
   5  -1  -6    5.20    0.47
   4  -1  -6   11.07    0.76
   4  -1  -6   10.80    0.77
   4  -1  -6   12.55    0.84
   4  -1  -6   11.08    0.69
   4  -1  -6   11.12    0.78
   4  -1  -6    9.51    0.60
   4  -1  -6   10.54    0.76
   4  -1  -6   10.57    0.60
  -4   1   6   15.37    1.03
  -4   1   6   16.11    1.11
  -4   1   6   15.03    0.85
   3  -1  -6   22.04    1.07
   3  -1  -6   22.57    1.55
   3  -1  -6   21.22    1.19
   3  -1  -6   21.26    1.23
   3  -1  -6   18.51    1.20
   3  -1  -6   20.02    1.25
   3  -1  -6   21.48    1.04
  -3   1   6   26.05    1.32
  -3   1   6   26.82    1.42
  -3   1   6   25.64    1.58
  -3   1   6   26.43    1.53
   2  -1  -6   75.61    3.49
   2  -1  -6   75.70    3.45
  -2   1   6   89.11    4.19
  -2   1   6   88.97    4.31
  -2   1   6   88.18    4.10
  -2   1   6   89.85    4.10
   1  -1  -6   43.83    2.52
   1  -1  -6   44.39    2.10
   1  -1  -6   46.34    2.10
  -1   1   6   57.63    2.82
  -1   1   6   55.22    2.60
  -1   1   6   56.40    2.63
   0  -1  -6    2.18    0.35
   0  -1  -6    2.40    0.19
   0   1   6    1.94    0.25
   0   1   6    1.97    0.17
  -1  -1  -6   15.56    0.83
  -1  -1  -6   15.91    0.82
  -1  -1  -6   16.16    0.88
  -1  -1  -6   15.22    1.33
  -1  -1  -6   16.58    0.82
   1   1   6   19.29    1.00
   1   1   6   19.82    1.14
   1   1   6   18.46    0.96
   1   1   6   18.51    0.91
   1   1   6   18.05    0.95
  -2  -1  -6   18.35    0.98
  -2  -1  -6   18.09    0.93
  -2  -1  -6   17.11    0.94
   2   1   6   20.33    1.21
   2   1   6   20.14    1.02
   2   1   6   18.85    1.01
   2   1   6   20.51    1.05
  -3  -1  -6    2.59    0.24
  -3  -1  -6    3.26    0.29
  -3  -1  -6    3.06    0.25
   3   1   6    4.58    0.52
   3   1   6    4.07    0.42
   3   1   6    4.49    0.30
   3   1   6    4.40    0.35
   3   1   6    5.38    0.49
   3   1   6    4.26    0.33
   3   1   6    4.06    0.32
   3   1   6    4.01    0.31
   3   1   6    4.03    0.32
   3   1   6    4.45    0.46
   3   1   6    4.48    0.64
  -4  -1  -6    2.84    0.24
   4   1   6    4.42    0.52
   4   1   6    4.76    0.47
   4   1   6    4.90    0.32
   4   1   6    3.98    0.60
   4   1   6    4.80    0.34
   4   1   6    4.94    0.47
   4   1   6    4.80    0.35
   4   1   6    4.88    0.34
   4   1   6    5.12    0.49
   5   1   6    1.71    0.27
   5   1   6    1.72    0.23
   5   1   6    1.77    0.23
   5   1   6    1.72    0.21
   5   1   6    1.86    0.15
   5   1   6    1.98    0.18
   5   1   6    1.95    0.17
   6  -2  -6    4.24    0.30
   6  -2  -6    4.53    0.29
   6  -2  -6    3.40    0.29
  -6   2   6    0.54    0.40
   5  -2  -6    6.55    0.52
   5  -2  -6    5.27    0.53
   5  -2  -6    6.55    0.45
   5  -2  -6    7.36    0.50
   5  -2  -6    6.93    0.54
  -5   2   6    9.79    0.72
   4  -2  -6   13.50    0.93
   4  -2  -6   14.90    0.93
   4  -2  -6   14.58    0.96
   4  -2  -6   14.41    0.85
   4  -2  -6   14.11    0.92
   4  -2  -6   15.37    0.96
   4  -2  -6   13.34    0.75
  -4   2   6   19.89    1.07
  -4   2   6   20.38    1.16
  -4   2   6   20.42    1.33
   3  -2  -6  115.62    5.21
   3  -2  -6  112.97    5.33
   3  -2  -6  112.80    5.37
   3  -2  -6  100.34    5.25
   3  -2  -6  112.39    5.10
   3  -2  -6  114.46    5.32
   3  -2  -6  116.84    5.13
   3  -2  -6  112.90    5.32
  -3   2   6  158.61    7.45
  -3   2   6  154.51    7.33
  -3   2   6  157.75    7.12
  -3   2   6  154.68    7.23
   2  -2  -6  137.89    6.69
   2  -2  -6  152.30    6.54
  -2   2   6  199.16    9.24
  -2   2   6  199.44    9.05
  -2   2   6  192.22    8.93
  -2   2   6  197.65    9.15
  -2   2   6  201.22    8.94
   1  -2  -6   74.51    3.43
  -1   2   6   87.67    3.93
  -1   2   6   83.31    4.41
   0  -2  -6    6.01    0.36
   0  -2  -6    5.66    0.66
   0   2   6    6.91    0.42
  -1  -2  -6    7.65    0.52
  -1  -2  -6    7.78    0.91
  -1  -2  -6    8.23    0.48
  -1  -2  -6    8.64    0.48
   1   2   6    8.54    0.64
   1   2   6    7.96    0.48
   1   2   6    7.69    0.44
   1   2   6    8.36    0.49
  -2  -2  -6   80.33    4.00
  -2  -2  -6   91.93    4.01
  -2  -2  -6   88.43    4.08
   2   2   6   94.37    4.49
   2   2   6   91.84    4.45
   2   2   6   98.12    4.60
   2   2   6   87.06    4.25
   2   2   6   92.20    4.24
   2   2   6   96.80    4.51
   2   2   6   85.83    4.23
   2   2   6   92.93    4.21
   2   2   6   96.65    4.95
   2   2   6   90.91    4.29
   2   2   6   89.61    4.27
  -3  -2  -6   68.45    3.30
  -3  -2  -6   69.70    3.30
  -3  -2  -6   68.92    3.24
   3   2   6   61.25    3.47
   3   2   6   68.13    3.36
   3   2   6   61.87    3.73
   3   2   6   71.51    3.12
   3   2   6   69.47    3.18
   3   2   6   65.58    3.14
   3   2   6   70.80    3.20
   3   2   6   70.31    3.42
   3   2   6   68.52    3.13
   3   2   6   65.70    3.49
   3   2   6   65.94    3.17
  -4  -2  -6   79.31    3.95
  -4  -2  -6   92.61    4.21
   4   2   6   72.53    3.59
   4   2   6   76.43    3.56
   4   2   6   75.05    3.55
   4   2   6   80.77    3.53
   4   2   6   74.76    3.54
   4   2   6   76.19    3.90
   4   2   6   76.81    3.79
   4   2   6   76.72    3.78
   4   2   6   77.45    3.76
  -5  -2  -6    1.36    0.13
  -5  -2  -6    1.23    0.22
   5   2   6    1.78    0.20
   5   2   6    1.84    0.14
   5   2   6    1.66    0.15
   5   2   6    1.70    0.26
   5   2   6    1.45    0.27
   5   2   6    1.81    0.16
   5   2   6    1.74    0.22
   5  -3  -6    9.10    0.63
   5  -3  -6    8.70    0.58
   5  -3  -6    8.56    0.59
   5  -3  -6    8.91    0.55
   5  -3  -6    9.49    0.64
  -5   3   6    3.11    0.78
   4  -3  -6    9.92    0.72
   4  -3  -6    9.83    0.70
   4  -3  -6   10.42    0.73
   4  -3  -6   10.61    0.65
   4  -3  -6    9.64    0.70
   4  -3  -6   10.05    0.74
   4  -3  -6    9.39    1.05
  -4   3   6   10.27    0.79
  -4   3   6   12.25    0.94
  -4   3   6   10.91    1.61
  -4   3   6   12.22    0.88
   3  -3  -6   23.21    2.57
   3  -3  -6   26.92    1.48
   3  -3  -6   25.38    1.43
   3  -3  -6   26.10    1.46
   3  -3  -6   29.03    1.55
   3  -3  -6   24.17    1.36
   3  -3  -6   26.09    1.26
   3  -3  -6   25.80    1.47
  -3   3   6   39.65    1.95
  -3   3   6   41.71    3.43
  -3   3   6   40.70    2.29
  -3   3   6   38.17    2.05
  -3   3   6   39.15    2.21
   2  -3  -6  165.06    7.50
   2  -3  -6  138.38    7.32
   2  -3  -6  164.89    7.98
   2  -3  -6  159.66    7.30
   2  -3  -6  166.05    7.23
   2  -3  -6  165.23    7.19
  -2   3   6  198.52    9.83
  -2   3   6  203.85    9.14
  -2   3   6  188.41    9.00
  -2   3   6  205.97    9.02
  -2   3   6  199.41    9.29
  -2   3   6  198.74   10.95
  -2   3   6  201.17    9.31
   1  -3  -6   43.94    2.19
  -1   3   6   47.27    2.27
  -1   3   6   47.89    2.47
  -1   3   6   48.96    2.54
   0   3   6    9.78    0.74
   0   3   6    9.49    0.55
   0   3   6    9.68    0.71
  -1  -3  -6    1.96    0.53
  -1  -3  -6    2.76    0.22
  -1  -3  -6    3.08    0.36
  -1  -3  -6    2.44    0.26
  -1  -3  -6    2.58    0.22
   1   3   6    3.48    0.29
   1   3   6    3.46    0.53
   1   3   6    3.64    0.39
   1   3   6    3.07    0.26
   1   3   6    3.41    0.38
   1   3   6    3.50    0.27
   1   3   6    3.58    0.24
  -2  -3  -6  164.03    7.21
  -2  -3  -6  152.33    7.30
  -2  -3  -6  166.62    7.56
  -2  -3  -6  152.95    7.22
   2   3   6  162.85    7.46
   2   3   6  167.82    7.91
   2   3   6  162.97    7.15
   2   3   6  146.12    7.36
   2   3   6  153.19    7.20
   2   3   6  151.37    7.20
   2   3   6  168.62    7.47
   2   3   6  169.80    7.24
   2   3   6  148.18    7.49
   2   3   6  153.55    7.16
  -3  -3  -6   81.19    4.04
  -3  -3  -6   81.55    3.76
  -3  -3  -6   77.61    3.70
  -3  -3  -6   79.53    3.81
   3   3   6   78.96    3.64
   3   3   6   77.32    3.93
   3   3   6   77.40    3.86
   3   3   6   81.98    3.90
   3   3   6   85.20    3.66
   3   3   6   80.93    3.69
   3   3   6   76.08    3.65
   3   3   6   74.03    3.99
   3   3   6   73.36    4.20
   3   3   6   77.84    3.68
   3   3   6   83.08    3.94
   3   3   6   80.96    3.72
  -4  -3  -6   39.79    2.12
  -4  -3  -6   37.84    1.86
   4   3   6   37.49    1.77
   4   3   6   37.23    1.94
   4   3   6   36.50    1.97
   4   3   6   30.60    1.87
   4   3   6   34.73    2.03
   4   3   6   36.69    1.75
   4   3   6   36.63    1.93
   4   3   6   36.14    1.71
   4   3   6   36.15    1.74
  -5  -3  -6    3.34    0.31
  -5  -3  -6    4.66    0.26
   5   3   6    3.10    0.35
   5   3   6    4.14    0.25
   5   3   6    4.22    0.26
   5   3   6    3.74    0.32
   5   3   6    4.05    0.25
   5   3   6    4.02    0.23
   5   3   6    3.09    0.29
   5  -4  -6   17.62    1.04
   5  -4  -6   18.43    1.04
   5  -4  -6   19.95    1.05
   5  -4  -6   19.69    1.02
   5  -4  -6   18.99    0.99
   4  -4  -6   61.41    3.01
   4  -4  -6   52.68    2.94
   4  -4  -6   58.90    2.90
   4  -4  -6   61.07    2.87
   4  -4  -6   60.35    2.95
   4  -4  -6   63.11    2.98
  -4   4   6   80.17    3.75
  -4   4   6   62.07    3.76
  -4   4   6   75.24    3.66
   3  -4  -6    4.70    0.36
   3  -4  -6    4.05    0.39
   3  -4  -6    3.57    0.36
   3  -4  -6    3.46    0.40
   3  -4  -6    3.41    0.37
   3  -4  -6    3.81    0.27
   3  -4  -6    4.05    0.40
  -3   4   6    6.00    0.61
  -3   4   6    5.76    0.41
  -3   4   6    5.97    0.57
  -3   4   6    5.51    0.55
   2  -4  -6   32.31    1.82
   2  -4  -6   35.28    1.69
   2  -4  -6   37.61    2.03
   2  -4  -6   35.30    1.95
   2  -4  -6   37.54    1.97
   2  -4  -6   36.30    1.90
   2  -4  -6   35.32    1.80
  -2   4   6   43.36    2.03
  -2   4   6   39.35    2.25
  -2   4   6   39.87    2.12
  -2   4   6   42.85    2.32
   1  -4  -6    1.72    0.17
   1  -4  -6    1.82    0.16
   1  -4  -6    2.46    0.71
  -1   4   6    2.60    0.36
  -1   4   6    2.44    0.34
  -1   4   6    2.87    0.32
  -1   4   6    2.60    0.22
  -1   4   6    2.16    0.22
   0  -4  -6   14.54    1.36
   0  -4  -6   14.62    0.83
   0  -4  -6   16.83    0.83
   0  -4  -6   15.67    0.82
   0  -4  -6   16.95    2.95
   0   4   6   18.13    1.22
   0   4   6   17.83    1.17
   0   4   6   19.56    1.02
   0   4   6   18.30    1.13
   0   4   6   19.15    0.94
   0   4   6   15.68    0.92
   0   4   6   18.90    1.33
   0   4   6   16.16    0.92
  -1  -4  -6    4.14    0.30
  -1  -4  -6    4.18    0.31
  -1  -4  -6    4.55    0.48
  -1  -4  -6    4.33    0.93
  -1  -4  -6    4.34    0.31
   1   4   6    3.76    0.42
   1   4   6    3.25    0.25
   1   4   6    3.51    0.41
   1   4   6    3.26    0.31
   1   4   6    3.21    0.34
   1   4   6    3.11    0.27
   1   4   6    3.05    0.23
   1   4   6    3.04    0.27
   1   4   6    3.24    0.38
   1   4   6    3.77    0.42
  -2  -4  -6   32.09    1.66
  -2  -4  -6   37.30    2.00
  -2  -4  -6   32.96    1.76
  -2  -4  -6   34.68    1.69
  -2  -4  -6   33.49    1.68
   2   4   6   41.15    2.25
   2   4   6   37.93    1.92
   2   4   6   39.20    2.15
   2   4   6   35.99    1.91
   2   4   6   38.39    1.85
   2   4   6   42.64    2.51
   2   4   6   38.65    2.13
   2   4   6   38.02    1.88
   2   4   6   38.82    1.93
  -3  -4  -6   14.32    1.17
  -3  -4  -6   12.22    0.80
  -3  -4  -6   14.35    0.76
   3   4   6   15.58    0.87
   3   4   6   15.74    0.90
   3   4   6   16.30    0.82
   3   4   6   15.56    1.09
   3   4   6   14.57    0.92
   3   4   6   14.24    1.00
   3   4   6   14.79    1.13
   3   4   6   13.69    1.33
  -4  -4  -6    4.70    0.31
  -4  -4  -6    4.90    0.45
  -4  -4  -6    4.87    0.32
   4   4   6    3.45    0.36
   4   4   6    3.85    0.37
   4   4   6    4.04    0.29
   4   4   6    3.97    0.39
   4   4   6    4.03    0.44
   4   4   6    3.92    0.27
   4   4   6    4.00    0.27
   4   4   6    4.24    0.29
   5   4   6    5.45    0.44
   5   4   6    6.83    0.40
   5   4   6    6.36    0.34
   5   4   6    6.54    0.41
   5  -5  -6   16.37    0.83
   5  -5  -6   14.13    0.86
   5  -5  -6   16.73    0.88
   5  -5  -6   15.76    0.86
   4  -5  -6   12.58    0.80
   4  -5  -6   13.62    0.82
   4  -5  -6   13.24    0.75
   4  -5  -6   13.55    0.77
   4  -5  -6   10.92    0.84
   3  -5  -6   38.48    2.06
   3  -5  -6   41.86    2.17
   3  -5  -6   44.98    2.25
   3  -5  -6   39.70    2.11
   3  -5  -6   41.41    2.15
   2  -5  -6   10.89    0.74
   2  -5  -6   10.19    0.66
   2  -5  -6   10.86    0.80
  -2   5   6   13.23    0.96
  -2   5   6   14.20    1.05
  -2   5   6   14.19    0.88
   1  -5  -6   19.21    2.33
   1  -5  -6   22.97    1.29
   1  -5  -6   26.16    1.31
   1  -5  -6   21.77    1.21
   1  -5  -6   24.60    1.42
   1  -5  -6   22.81    1.14
  -1   5   6   29.86    1.76
  -1   5   6   32.28    1.82
  -1   5   6   30.49    1.61
  -1   5   6   29.18    1.67
  -1   5   6   30.51    1.51
   0  -5  -6   21.15    1.29
   0  -5  -6   19.02    1.03
   0  -5  -6   20.99    1.03
   0  -5  -6   19.40    2.22
   0  -5  -6   18.95    1.00
   0   5   6   19.86    1.11
   0   5   6   20.85    1.12
   0   5   6   23.13    1.42
   0   5   6   22.15    1.19
   0   5   6   23.33    1.40
   0   5   6   20.78    1.10
   0   5   6   23.35    1.12
   0   5   6   21.94    1.31
  -1  -5  -6   39.99    1.86
  -1  -5  -6   36.90    1.87
  -1  -5  -6   38.11    2.13
  -1  -5  -6   38.10    1.84
   1   5   6   39.47    1.89
   1   5   6   39.07    1.92
   1   5   6   41.37    2.20
   1   5   6   37.17    1.91
   1   5   6   38.71    1.93
   1   5   6   42.21    2.22
   1   5   6   37.76    2.11
  -2  -5  -6   45.72    2.15
  -2  -5  -6   45.19    2.20
  -2  -5  -6   41.90    2.14
  -2  -5  -6   47.07    2.19
  -2  -5  -6   45.36    2.45
   2   5   6   47.03    2.49
   2   5   6   46.27    2.27
   2   5   6   48.98    2.35
   2   5   6   45.80    2.43
   2   5   6   46.40    2.26
   2   5   6   51.44    2.57
   2   5   6   43.63    2.52
   2   5   6   45.06    2.51
   2   5   6   49.06    2.43
   2   5   6   48.72    2.25
  -3  -5  -6    2.97    0.26
  -3  -5  -6    2.66    0.22
  -3  -5  -6    2.44    0.33
   3   5   6    2.42    0.31
   3   5   6    2.91    0.24
   3   5   6    2.28    0.28
   3   5   6    2.46    0.20
   3   5   6    2.73    0.33
   3   5   6    2.57    0.35
   3   5   6    2.80    0.23
   3   5   6    2.50    0.32
   3   5   6    2.75    0.22
   3   5   6    2.34    0.24
  -4  -5  -6   13.53    0.68
  -4  -5  -6   10.63    0.69
  -4  -5  -6   11.87    0.74
  -4  -5  -6   12.55    0.69
   4   5   6   13.46    0.69
   4   5   6   12.75    0.65
   4   5   6   10.58    0.81
   4   5   6   12.63    0.80
   4   5   6   14.23    0.93
   4   5   6   12.98    0.68
   4  -6  -6    0.69    0.11
   4  -6  -6    0.61    0.10
   4  -6  -6    0.82    0.13
   4  -6  -6    0.86    0.12
  -4   6   6    0.99    0.16
  -4   6   6    0.92    0.19
  -4   6   6    1.16    0.16
   3  -6  -6    7.11    0.59
   3  -6  -6    8.46    0.59
   3  -6  -6    8.78    0.55
   3  -6  -6    8.59    0.60
  -3   6   6   11.16    0.75
  -3   6   6   13.11    0.89
  -3   6   6   11.63    0.82
   2  -6  -6   19.09    1.10
   2  -6  -6   16.23    1.00
   2  -6  -6   18.02    1.15
   2  -6  -6   16.56    0.91
  -2   6   6   20.31    1.31
  -2   6   6   22.44    1.59
  -2   6   6   23.52    1.38
   1  -6  -6   37.96    1.74
   1  -6  -6   30.38    3.07
   1  -6  -6   39.64    2.05
  -1   6   6   46.39    2.52
  -1   6   6   46.90    2.64
  -1   6   6   44.75    2.29
   0  -6  -6   67.03    3.35
   0  -6  -6   65.30    3.03
   0  -6  -6   63.18    3.05
   0   6   6   86.25    3.93
   0   6   6   70.96    3.51
   0   6   6   73.76    3.71
   0   6   6   79.84    3.86
   0   6   6   68.89    3.59
  -1  -6  -6   13.81    1.95
  -1  -6  -6   13.70    0.87
  -1  -6  -6   13.56    0.98
  -1  -6  -6   13.74    0.74
   1   6   6   14.95    0.91
   1   6   6   14.44    1.04
   1   6   6   16.01    1.02
   1   6   6   15.38    0.81
  -2  -6  -6   39.41    1.91
  -2  -6  -6   41.11    2.18
  -2  -6  -6   39.65    1.96
   2   6   6   37.58    1.98
   2   6   6   40.81    1.96
   2   6   6   43.15    1.95
   2   6   6   41.53    1.98
   2   6   6   40.94    2.16
   2   6   6   40.75    2.19
   2   6   6   39.82    2.19
  -3  -6  -6    5.41    0.34
  -3  -6  -6    4.44    0.33
  -3  -6  -6    3.87    0.39
  -3  -6  -6    4.46    0.29
   3   6   6    4.79    0.31
   3   6   6    3.93    0.38
   3   6   6    3.59    0.33
   3   6   6    4.14    0.41
   3   6   6    4.36    0.28
   3   6   6    4.52    0.41
   3   6   6    5.36    0.32
   3   6   6    4.83    0.29
  -4  -6  -6    6.52    0.37
   4   6   6    6.36    0.35
   4   6   6    6.27    0.35
  -4   7   6    4.00    0.29
   3  -7  -6    6.54    0.46
   3  -7  -6    5.89    0.47
   3  -7  -6    7.28    0.47
  -3   7   6    9.26    0.57
  -3   7   6    8.19    0.62
  -3   7   6    7.71    0.58
   2  -7  -6    0.74    0.09
   2  -7  -6    0.66    0.15
  -2   7   6    0.90    0.19
  -2   7   6    0.90    0.15
   1  -7  -6    4.78    0.31
   1  -7  -6    4.29    0.45
  -1   7   6    6.71    0.50
  -1   7   6    7.44    0.63
   0  -7  -6   14.97    0.81
   0  -7  -6   14.84    1.01
   0  -7  -6   14.99    0.79
   0   7   6   14.75    1.01
   0   7   6   14.28    0.84
  -1  -7  -6    2.35    0.20
  -1  -7  -6    2.37    0.21
  -1  -7  -6    2.08    0.30
   1   7   6    2.45    0.19
   1   7   6    2.46    0.22
   1   7   6    2.28    0.31
   1   7   6    2.08    0.27
  -2  -7  -6    2.96    0.24
  -2  -7  -6    2.83    0.21
  -2  -7  -6    2.76    0.32
   2   7   6    2.01    0.26
   2   7   6    1.95    0.16
   2   7   6    1.76    0.26
   2   7   6    2.33    0.19
  -3  -7  -6    1.28    0.13
  -3  -7  -6    1.19    0.11
   3  -8  -6    0.86    0.29
  -3   8   6   26.53    1.32
   2  -8  -6    5.72    0.52
   2  -8  -6    5.87    0.32
  -2   8   6    6.87    0.47
  -2   8   6    5.81    0.49
   1  -8  -6    3.23    0.34
   1  -8  -6    2.96    0.21
  -1   8   6    2.33    0.23
  -1   8   6    2.76    0.31
   0  -8  -6    2.73    0.31
   0  -8  -6    3.07    0.21
   0   8   6    3.48    0.36
   0   8   6    3.33    0.27
  -1  -8  -6    4.85    0.47
  -1  -8  -6    5.89    0.34
  -1  -8  -6    5.77    0.38
  -2  -8  -6   11.47    0.59
  -2  -8  -6   11.56    0.77
  -2  -8  -6   11.91    0.62
   1  -9  -6    2.19    0.26
   0  -9  -6    0.82    0.08
   0  -9  -6    0.61    0.12
   0   9   6    0.76    0.12
  -2 -10   7    3.12    0.21
   1  10  -7    1.20    0.16
  -1 -10   7    1.59    0.23
  -1 -10   7    2.18    0.16
   0  10  -7    0.58    0.11
   0  10  -7    0.56    0.13
   0 -10   7    0.61    0.23
   0 -10   7    0.63    0.08
  -1  10  -7    1.51    0.23
  -1  10  -7    1.87    0.20
   1 -10   7    2.85    0.20
   1 -10   7    3.43    0.44
  -2  10  -7    2.09    0.23
   2 -10   7    1.85    0.25
   2   9  -7    3.67    0.34
  -2  -9   7    6.25    0.47
  -2  -9   7    7.25    0.42
   1   9  -7   10.20    0.69
   1   9  -7   10.21    0.71
  -1  -9   7    8.18    0.68
   0   9  -7   14.57    0.97
   0   9  -7   14.61    0.90
   0   9  -7   14.99    0.86
   0  -9   7   20.47    1.36
   0  -9   7   18.82    1.02
  -1   9  -7   11.15    0.78
  -1   9  -7   10.49    0.69
   1  -9   7   12.95    1.00
   1  -9   7   11.97    0.67
  -2   9  -7   11.76    0.71
  -2   9  -7   10.23    0.74
   2  -9   7   10.10    0.82
   2  -9   7   10.15    0.60
   2  -9   7   11.82    0.60
  -3   9  -7    4.69    0.38
  -3   9  -7    5.17    0.38
   3  -9   7    3.62    0.40
   3  -9   7    4.77    0.29
   3  -9   7    4.55    0.32
   3  -9   7    4.94    0.37
   3   8  -7    2.32    0.18
   3   8  -7    2.28    0.25
   3   8  -7    2.50    0.24
   3   8  -7    1.87    0.23
  -3  -8   7    2.36    0.27
  -3  -8   7    2.44    0.19
   2   8  -7    6.20    0.52
   2   8  -7    6.25    0.51
   2   8  -7    5.90    0.48
  -2  -8   7    5.65    0.51
  -2  -8   7    6.82    0.42
   1   8  -7    4.18    0.37
   1   8  -7    4.38    0.45
   1   8  -7    4.74    0.43
  -1  -8   7    4.28    0.42
  -1  -8   7    4.78    0.34
  -1  -8   7    4.67    0.51
   0   8  -7   30.22    1.77
   0   8  -7   26.94    1.56
   0   8  -7   29.41    1.56
   0  -8   7   36.89    1.95
   0  -8   7   37.98    2.19
  -1   8  -7    2.63    0.34
  -1   8  -7    2.68    0.30
   1  -8   7    3.91    0.49
   1  -8   7    3.87    0.29
  -2   8  -7   14.87    0.94
  -2   8  -7   15.27    1.00
  -2   8  -7   14.15    0.91
   2  -8   7   15.45    0.80
   2  -8   7   12.62    0.87
   2  -8   7   15.22    1.12
   2  -8   7   15.44    0.94
   2  -8   7   14.73    0.78
   2  -8   7   14.53    0.76
  -3   8  -7   13.02    0.78
  -3   8  -7   11.14    0.76
  -3   8  -7   10.97    0.76
   3  -8   7   11.44    0.77
   3  -8   7   12.48    0.68
   3  -8   7   13.07    0.80
   3  -8   7   12.42    0.78
   3  -8   7   12.16    0.64
   3  -8   7   13.66    1.46
   3  -8   7   11.81    0.91
  -4   8  -7    5.68    0.41
  -4   8  -7    6.29    0.44
   4  -8   7    6.23    0.48
   4  -8   7    4.57    0.50
   4  -8   7    5.58    0.33
   4  -8   7    5.63    0.31
   4  -8   7    5.23    0.39
   4  -8   7    5.15    0.39
   4  -8   7    5.73    0.40
   4   7  -7    0.41    0.09
   4   7  -7    0.48    0.10
   4   7  -7    0.59    0.07
   4   7  -7    0.45    0.09
   4   7  -7    0.53    0.08
  -4  -7   7    0.47    0.08
  -4  -7   7    0.37    0.12
   3   7  -7    4.78    0.29
   3   7  -7    4.55    0.32
   3   7  -7    4.40    0.41
   3   7  -7    4.74    0.40
   3   7  -7    4.46    0.41
   3   7  -7    3.76    0.39
  -3  -7   7    6.19    0.53
  -3  -7   7    6.11    0.54
  -3  -7   7    6.62    0.42
   2   7  -7   10.74    0.78
   2   7  -7   10.79    0.75
   2   7  -7   10.30    0.72
   2   7  -7   10.20    0.67
  -2  -7   7   11.94    0.86
  -2  -7   7   12.46    0.72
   1   7  -7   32.35    1.77
   1   7  -7   30.97    1.69
   1   7  -7   28.42    1.62
  -1  -7   7   35.04    1.93
  -1  -7   7   35.78    1.74
  -1  -7   7   36.70    1.71
  -1  -7   7   33.27    2.03
   0   7  -7   11.98    0.86
   0   7  -7   11.62    0.79
   0   7  -7   11.25    0.77
   0  -7   7   11.46    0.79
   0  -7   7   12.02    0.68
   0  -7   7   10.63    0.91
  -1   7  -7    0.67    0.15
  -1   7  -7    0.84    0.17
  -1   7  -7    0.86    0.17
  -1   7  -7    0.79    0.18
   1  -7   7    0.92    0.19
   1  -7   7    1.04    0.14
   1  -7   7    0.92    0.17
   1  -7   7    1.10    0.26
   2  -7   7   14.07    0.78
   2  -7   7   14.01    0.92
   2  -7   7   16.13    1.16
   2  -7   7   14.04    0.87
   2  -7   7   12.56    0.89
   2  -7   7   13.99    0.79
   3  -7   7   32.81    1.70
   3  -7   7   31.50    1.68
   3  -7   7   28.48    1.49
   3  -7   7   28.08    1.66
   3  -7   7   32.00    2.09
   3  -7   7   30.62    1.48
   3  -7   7   30.51    1.52
   3  -7   7   31.34    1.88
   4  -7   7   18.02    0.84
   4  -7   7   15.08    0.97
   4  -7   7   14.28    1.05
   4  -7   7   15.74    0.97
   4  -7   7   17.19    1.29
   4  -7   7   17.86    0.87
   4  -7   7   18.17    0.97
   4   6  -7    1.10    0.11
   4   6  -7    0.95    0.16
   4   6  -7    0.95    0.15
   4   6  -7    1.07    0.12
   4   6  -7    1.12    0.18
   4   6  -7    1.14    0.16
  -4  -6   7    1.61    0.17
  -4  -6   7    1.48    0.22
  -4  -6   7    1.46    0.23
   3   6  -7   11.15    0.84
   3   6  -7   12.50    0.81
   3   6  -7   12.69    0.79
   3   6  -7   12.44    0.65
   3   6  -7   10.78    0.68
   3   6  -7   11.82    0.82
   3   6  -7   11.94    0.84
  -3  -6   7   13.87    0.96
  -3  -6   7   13.11    0.75
  -3  -6   7   14.02    0.96
   2   6  -7   10.63    0.78
   2   6  -7   11.31    0.61
   2   6  -7   11.19    0.82
   2   6  -7    9.48    0.77
   2   6  -7   11.69    0.75
   2   6  -7   12.49    0.80
  -2  -6   7   13.70    0.81
  -2  -6   7   15.78    0.95
  -2  -6   7   14.50    0.98
  -2  -6   7   14.89    1.01
  -2  -6   7   14.47    0.81
   1   6  -7   69.40    3.37
   1   6  -7   69.51    3.39
   1   6  -7   65.08    3.35
   1   6  -7   71.14    3.48
  -1  -6   7   80.37    3.59
  -1  -6   7   77.38    3.64
  -1  -6   7   72.17    3.93
  -1  -6   7   81.75    3.87
   0   6  -7   39.29    1.76
   0   6  -7   36.53    2.03
   0   6  -7   35.53    1.94
   0  -6   7   44.46    2.31
   0  -6   7   43.07    2.14
   0  -6   7   45.41    2.49
  -1   6  -7   19.85    1.19
  -1   6  -7   19.03    1.17
  -1   6  -7   21.08    1.26
  -1   6  -7   18.83    0.98
   1  -6   7   21.95    1.42
   1  -6   7   19.11    1.20
   1  -6   7   19.74    1.13
   1  -6   7   19.88    1.06
   1  -6   7   20.34    1.21
   1  -6   7   20.60    1.21
   2  -6   7    4.10    0.54
   2  -6   7    4.84    0.47
   2  -6   7    5.06    0.33
   2  -6   7    4.92    0.36
   2  -6   7    5.12    0.47
   2  -6   7    5.95    0.75
   2  -6   7    4.96    0.36
   2  -6   7    5.48    0.49
   2  -6   7    5.14    0.47
   3  -6   7    9.69    0.62
   3  -6   7   10.64    1.08
   3  -6   7   10.05    0.75
   3  -6   7   10.47    1.00
   3  -6   7    9.60    0.63
   3  -6   7    9.91    0.75
   4  -6   7   15.38    0.90
   4  -6   7   14.74    0.76
   4  -6   7   13.16    0.94
   4  -6   7   15.81    1.15
   4  -6   7   15.42    0.92
   4  -6   7   14.86    0.80
   4  -6   7   14.58    0.95
   4  -6   7   14.64    1.28
   5  -6   7    2.11    0.16
   5  -6   7    2.06    0.21
   5  -6   7    1.58    0.18
   5  -6   7    2.04    0.14
   5  -6   7    1.67    0.29
   5   5  -7    9.32    0.59
   5   5  -7   10.34    0.60
   5   5  -7   10.17    0.51
  -5  -5   7   14.01    0.71
  -5  -5   7   12.84    0.82
   4   5  -7   19.70    1.22
   4   5  -7   26.23    1.59
   4   5  -7   22.94    1.29
   4   5  -7   21.45    1.29
   4   5  -7   22.48    1.26
   4   5  -7   22.34    1.12
  -4  -5   7   26.00    1.55
  -4  -5   7   26.90    1.52
   3   5  -7   35.57    1.65
   3   5  -7   32.55    1.75
   3   5  -7   34.63    1.81
   3   5  -7   32.28    1.68
   3   5  -7   34.23    1.87
   3   5  -7   35.65    1.83
   3   5  -7   30.57    1.81
   3   5  -7   33.08    1.62
  -3  -5   7   46.10    2.23
  -3  -5   7   44.10    2.33
  -3  -5   7   39.19    2.04
  -3  -5   7   42.12    2.34
  -3  -5   7   42.40    2.06
   2   5  -7   25.30    1.41
   2   5  -7   24.94    1.22
   2   5  -7   24.54    1.45
   2   5  -7   23.64    1.36
   2   5  -7   23.55    1.38
   2   5  -7   24.26    1.53
   2   5  -7   23.12    1.20
  -2  -5   7   32.01    1.77
  -2  -5   7   31.25    1.49
  -2  -5   7   28.03    1.50
  -2  -5   7   30.35    1.78
   1   5  -7   30.56    1.70
   1   5  -7   34.28    1.76
   1   5  -7   31.82    1.79
   1   5  -7   31.61    1.55
  -1  -5   7   38.35    2.08
  -1  -5   7   41.30    2.14
  -1  -5   7   38.33    1.86
   0   5  -7   33.08    1.57
   0   5  -7   33.69    1.79
   0  -5   7   35.44    1.92
   0  -5   7   35.54    2.27
   0  -5   7   37.41    1.76
   0  -5   7   37.37    2.10
   1  -5   7   24.18    1.24
   1  -5   7   23.92    1.55
   1  -5   7   25.62    1.42
   2  -5   7   13.79    0.78
   2  -5   7   12.47    0.72
   2  -5   7   14.75    1.10
   2  -5   7   13.53    0.93
   2  -5   7   13.64    0.90
   2  -5   7   16.05    1.34
   2  -5   7   14.09    0.94
   2  -5   7   16.11    0.93
   2  -5   7   13.27    0.77
   2  -5   7   12.92    0.89
   2  -5   7   12.55    0.76
   3  -5   7    7.31    0.49
   3  -5   7    8.37    0.67
   3  -5   7    8.35    0.78
   3  -5   7    8.28    0.67
   3  -5   7    8.33    0.97
   3  -5   7    7.91    0.50
   3  -5   7    7.48    0.60
   3  -5   7    7.78    0.53
   3  -5   7    7.15    0.46
   3  -5   7    7.42    0.49
   4  -5   7   68.11    3.11
   4  -5   7   63.94    3.43
   4  -5   7   70.74    3.31
   4  -5   7   55.54    3.70
   4  -5   7   69.07    3.07
   4  -5   7   69.68    3.17
   4  -5   7   64.25    3.20
   4  -5   7   65.01    3.31
   4  -5   7   68.30    3.08
   5  -5   7    3.92    0.24
   5  -5   7    3.21    0.32
   5  -5   7    3.92    0.39
   5  -5   7    3.91    0.33
   5  -5   7    4.25    0.27
   5   4  -7   11.48    0.80
   5   4  -7   13.09    0.84
   5   4  -7   13.88    0.74
   5   4  -7   13.92    0.67
  -5  -4   7   20.00    1.01
  -5  -4   7   20.56    1.10
  -5  -4   7   18.51    1.15
   4   4  -7   15.56    0.98
   4   4  -7   15.45    0.86
   4   4  -7   14.88    0.90
   4   4  -7   14.75    1.03
   4   4  -7   15.16    0.99
   4   4  -7   14.80    0.96
   4   4  -7   15.38    0.81
   4   4  -7   16.24    0.95
  -4  -4   7   18.64    1.16
  -4  -4   7   18.05    1.20
   3   4  -7   10.28    0.75
   3   4  -7   10.89    0.75
   3   4  -7   10.96    0.78
   3   4  -7    9.98    0.83
   3   4  -7   10.59    0.73
   3   4  -7   11.71    0.82
   3   4  -7   10.70    0.61
   3   4  -7   10.69    0.66
  -3  -4   7   11.54    0.85
  -3  -4   7   11.12    0.77
  -3  -4   7   10.90    0.74
  -3  -4   7   12.50    0.91
  -3  -4   7   10.45    0.64
   2   4  -7   70.40    3.16
   2   4  -7   69.58    3.47
   2   4  -7   64.83    3.32
   2   4  -7   62.74    3.14
   2   4  -7   73.76    3.47
   2   4  -7   63.05    3.31
   2   4  -7   71.10    3.42
  -2  -4   7   83.11    3.81
  -2  -4   7   82.66    4.10
  -2  -4   7   80.92    3.95
  -2  -4   7   84.46    4.10
   1   4  -7   10.41    0.71
   1   4  -7    9.02    0.66
   1   4  -7    8.80    0.64
   1   4  -7    9.60    0.54
   1   4  -7    9.64    0.71
  -1  -4   7   11.72    0.72
  -1  -4   7   12.45    0.85
  -1  -4   7   12.36    0.65
  -1  -4   7   11.57    0.68
  -1  -4   7   12.72    0.85
   0   4  -7    9.39    1.07
   0   4  -7    9.33    0.53
   0   4  -7   10.02    0.50
   0  -4   7    8.89    0.55
   0  -4   7    9.23    0.66
   0  -4   7    9.32    0.53
   1  -4   7   36.00    1.99
   1  -4   7   40.15    1.86
   1  -4   7   35.98    1.85
   1  -4   7   40.08    2.04
   1  -4   7   38.48    1.87
   1  -4   7   38.93    2.04
   1  -4   7   39.75    1.87
   2  -4   7    8.19    0.49
   2  -4   7    9.48    1.26
   2  -4   7    9.11    0.56
   2  -4   7    9.35    0.69
   2  -4   7    8.31    0.53
   2  -4   7    9.20    0.81
   2  -4   7    8.79    0.54
   2  -4   7    7.57    0.63
   2  -4   7    8.65    0.68
   3  -4   7   19.62    1.45
   3  -4   7   20.36    1.10
   3  -4   7   22.40    1.10
   3  -4   7   21.47    1.34
   3  -4   7   24.11    1.37
   3  -4   7   22.73    1.19
   3  -4   7   21.73    1.16
   3  -4   7   21.15    1.15
   3  -4   7   20.68    1.25
   3  -4   7   22.03    1.27
   3  -4   7   25.54    1.87
   3  -4   7   20.96    1.13
   4  -4   7   17.49    1.12
   4  -4   7   17.38    0.90
   4  -4   7   16.57    1.00
   4  -4   7   17.62    1.09
   4  -4   7   17.05    0.91
   4  -4   7   17.17    0.96
   4  -4   7   17.50    1.23
   4  -4   7   17.75    0.94
  -5   4  -7    0.02    0.27
   5  -4   7    0.71    0.14
   5  -4   7    0.64    0.15
   5  -4   7    0.61    0.11
   5  -4   7    0.76    0.10
   5  -4   7    0.73    0.08
   5  -4   7    0.67    0.09
   5   3  -7   15.76    0.93
   5   3  -7   17.36    0.86
   5   3  -7   14.79    0.92
   5   3  -7   16.86    0.79
   5   3  -7   14.68    0.92
   5   3  -7   14.16    0.83
  -5  -3   7   24.92    1.45
  -5  -3   7   26.13    1.28
   4   3  -7    8.07    0.59
   4   3  -7    7.28    0.57
   4   3  -7    8.86    0.65
   4   3  -7    8.69    0.55
   4   3  -7    7.95    0.50
   4   3  -7    8.30    0.65
   4   3  -7    8.34    0.64
  -4  -3   7   12.22    0.90
  -4  -3   7   11.78    0.84
   3   3  -7   22.92    1.32
   3   3  -7   18.44    1.52
   3   3  -7   19.97    1.31
   3   3  -7   25.19    1.45
   3   3  -7   23.37    1.15
   3   3  -7   23.61    1.11
   3   3  -7   22.82    1.58
   3   3  -7   21.43    1.18
   3   3  -7   23.17    1.33
  -3  -3   7   26.74    1.28
  -3  -3   7   24.03    1.54
  -3  -3   7   26.27    1.40
  -3  -3   7   24.71    1.55
   2   3  -7   59.80    3.13
   2   3  -7   64.45    3.67
   2   3  -7   62.85    3.15
   2   3  -7   66.20    3.00
   2   3  -7   63.48    3.15
   2   3  -7   59.24    3.24
   2   3  -7   72.68    3.38
  -2  -3   7   76.21    3.47
  -2  -3   7   73.47    3.61
  -2  -3   7   74.73    3.77
  -2  -3   7   77.77    4.04
   1   3  -7    2.87    0.24
   1   3  -7    3.14    0.58
  -1  -3   7    4.82    0.28
  -1  -3   7    4.49    0.34
  -1  -3   7    4.50    0.31
  -1  -3   7    4.67    0.45
   0   3  -7   79.23    3.63
   0  -3   7   95.03    4.30
   0  -3   7   92.23    4.72
   0  -3   7   93.80    4.31
  -1   3  -7   17.90    0.87
  -1   3  -7   17.49    0.89
  -1   3  -7   17.86    1.52
  -1   3  -7   17.72    0.98
  -1   3  -7   17.50    0.99
   1  -3   7   17.62    1.04
   1  -3   7   16.87    0.89
   1  -3   7   15.92    0.82
   1  -3   7   16.81    0.88
   1  -3   7   15.71    0.86
  -2   3  -7   36.72    1.81
  -2   3  -7   37.10    1.67
  -2   3  -7   31.32    1.83
   2  -3   7   32.60    1.85
   2  -3   7   35.29    1.67
   2  -3   7   33.11    1.68
   2  -3   7   33.00    1.72
   2  -3   7   35.74    1.73
   2  -3   7   40.09    3.19
   2  -3   7   36.38    1.91
   2  -3   7   35.38    1.74
   2  -3   7   35.61    1.92
   2  -3   7   35.44    2.17
  -3   3  -7   27.49    1.34
  -3   3  -7   28.78    1.47
  -3   3  -7   25.20    1.50
   3  -3   7   23.66    1.39
   3  -3   7   25.58    1.32
   3  -3   7   26.76    1.74
   3  -3   7   25.26    1.29
   3  -3   7   23.92    1.43
   3  -3   7   25.40    1.24
   3  -3   7   22.27    1.33
   3  -3   7   28.28    1.94
   4  -3   7    7.48    0.48
   4  -3   7    7.82    0.65
   4  -3   7    7.58    0.51
   4  -3   7    7.93    0.50
   4  -3   7    6.78    0.90
   4  -3   7    7.75    0.56
   4  -3   7    7.44    0.71
   4  -3   7    8.23    0.62
   4  -3   7    7.72    0.46
   5  -3   7    6.32    0.37
   5  -3   7    6.15    0.50
   5  -3   7    6.39    0.56
   5  -3   7    6.85    0.39
   5  -3   7    6.63    0.37
   5  -3   7    5.14    0.66
   5   2  -7    3.82    0.25
   5   2  -7    3.59    0.29
   5   2  -7    3.46    0.31
   5   2  -7    4.25    0.37
   5   2  -7    3.96    0.37
   5   2  -7    3.76    0.36
  -5  -2   7    5.19    0.49
  -5  -2   7    5.20    0.35
  -5  -2   7    4.72    0.45
   4   2  -7   10.67    0.61
   4   2  -7   10.98    0.84
   4   2  -7   11.23    0.80
   4   2  -7   11.49    0.81
   4   2  -7   11.43    0.68
   4   2  -7   10.46    0.74
   4   2  -7    9.15    0.79
   4   2  -7   11.30    0.78
  -4  -2   7   10.74    0.98
  -4  -2   7   12.29    0.92
  -4  -2   7   12.67    0.78
  -4  -2   7   12.27    0.73
   3   2  -7    6.35    0.55
   3   2  -7    6.80    0.43
   3   2  -7    6.23    0.40
   3   2  -7    5.85    0.43
   3   2  -7    6.36    0.50
   3   2  -7    6.02    0.50
   3   2  -7    6.12    0.52
   3   2  -7    6.19    0.37
   3   2  -7    7.10    0.62
   3   2  -7    5.90    0.50
   3   2  -7    6.67    0.55
  -3  -2   7    9.60    0.64
  -3  -2   7    7.94    0.55
  -3  -2   7    8.49    0.51
  -3  -2   7    8.51    0.67
  -3  -2   7    8.29    0.72
   2   2  -7   18.29    1.76
   2   2  -7   22.00    1.26
   2   2  -7   20.38    1.07
   2   2  -7   21.38    1.20
   2   2  -7   20.90    1.22
   2   2  -7   23.62    1.10
   2   2  -7   22.52    1.04
  -2  -2   7   27.09    1.43
  -2  -2   7   29.27    1.37
  -2  -2   7   28.23    1.59
  -2  -2   7   27.01    1.41
  -2  -2   7   29.52    1.65
   1   2  -7   79.84    3.77
   1   2  -7   84.39    5.28
  -1  -2   7   98.68    4.61
  -1  -2   7  100.82    4.63
  -1  -2   7  103.40    4.86
   0   2  -7   21.51    1.06
   0   2  -7   21.05    1.64
   0  -2   7   25.27    1.24
   0  -2   7   24.75    1.23
  -1   2  -7    6.23    0.44
  -1   2  -7    5.60    1.01
  -1   2  -7    5.63    0.40
  -1   2  -7    6.17    0.34
  -1   2  -7    5.58    0.36
   1  -2   7    8.20    0.49
   1  -2   7    8.00    0.48
   1  -2   7    7.69    0.43
   1  -2   7    8.44    0.64
  -2   2  -7   53.14    2.47
  -2   2  -7   49.90    2.59
  -2   2  -7   50.37    2.62
  -2   2  -7   56.80    2.75
  -2   2  -7   55.16    2.61
   2  -2   7   56.20    2.64
   2  -2   7   54.91    2.64
   2  -2   7   54.10    2.78
   2  -2   7   53.73    2.63
   2  -2   7   55.89    2.57
   2  -2   7   59.68    2.84
   2  -2   7   57.29    2.84
   2  -2   7   55.13    2.97
   2  -2   7   51.46    2.58
   2  -2   7   57.03    2.83
   2  -2   7   56.44    2.65
  -3   2  -7   22.46    1.20
  -3   2  -7   20.22    1.30
  -3   2  -7   22.41    1.09
   3  -2   7   24.31    1.36
   3  -2   7   24.20    1.41
   3  -2   7   22.78    1.35
   3  -2   7   23.34    1.19
   3  -2   7   23.97    1.53
   3  -2   7   21.23    1.16
   3  -2   7   22.13    1.14
   3  -2   7   23.78    1.13
   3  -2   7   21.99    1.18
   3  -2   7   19.74    1.76
   3  -2   7   22.46    1.21
  -4   2  -7   16.60    0.95
   4  -2   7   30.15    2.26
   4  -2   7   29.64    1.62
   4  -2   7   29.30    1.51
   4  -2   7   29.08    1.62
   5  -2   7   12.71    0.65
   5  -2   7   12.85    0.89
   5  -2   7   11.01    0.80
   5  -2   7   13.17    0.67
   5  -2   7   13.25    0.68
   5   1  -7    6.13    0.48
   5   1  -7    5.89    0.44
   5   1  -7    5.69    0.34
   5   1  -7    6.10    0.41
   5   1  -7    5.27    0.45
   5   1  -7    5.43    0.47
  -5  -1   7    6.74    0.56
  -5  -1   7    7.06    0.44
  -5  -1   7    7.17    0.61
   4   1  -7   13.22    0.88
   4   1  -7   13.08    0.76
   4   1  -7   11.62    0.78
   4   1  -7   12.34    0.81
   4   1  -7   11.57    0.67
   4   1  -7   12.94    0.85
   4   1  -7   12.16    0.85
  -4  -1   7   11.56    0.84
  -4  -1   7   14.77    1.00
  -4  -1   7   14.38    0.79
   3   1  -7    4.85    0.44
   3   1  -7    4.65    0.48
   3   1  -7    4.93    0.47
   3   1  -7    4.55    0.43
   3   1  -7    4.87    0.37
   3   1  -7    5.34    0.49
   3   1  -7    5.11    0.35
   3   1  -7    4.71    0.44
   3   1  -7    4.27    0.32
  -3  -1   7    5.48    0.41
  -3  -1   7    5.47    0.45
  -3  -1   7    5.74    0.51
  -3  -1   7    5.66    0.49
  -3  -1   7    5.57    0.55
  -3  -1   7    5.67    0.38
   2   1  -7    7.13    0.38
   2   1  -7    7.19    0.56
   2   1  -7    7.34    0.43
   2   1  -7    6.11    0.50
   2   1  -7    6.29    0.41
  -2  -1   7    6.85    0.48
  -2  -1   7    7.89    0.46
  -2  -1   7    7.90    0.58
  -2  -1   7    8.13    0.45
  -2  -1   7    6.82    0.85
  -2  -1   7    7.57    0.64
  -2  -1   7    7.43    0.48
   1   1  -7   36.17    1.71
   1   1  -7   35.14    2.32
  -1  -1   7   40.88    1.99
  -1  -1   7   43.66    2.23
  -1  -1   7   41.44    2.00
   0   1  -7    6.09    0.75
   0   1  -7    5.96    0.37
   0  -1   7    7.52    0.46
   0  -1   7    7.76    0.60
   0  -1   7    7.49    0.43
  -1   1  -7  102.38    4.72
  -1   1  -7  101.88    4.65
  -1   1  -7  103.75    4.57
  -1   1  -7  105.77    4.63
  -1   1  -7   91.62    6.23
   1  -1   7  109.54    4.92
   1  -1   7  105.93    4.90
   1  -1   7  109.09    5.11
   1  -1   7  104.99    4.84
  -2   1  -7   90.98    4.33
  -2   1  -7   88.38    4.23
  -2   1  -7   92.78    4.30
  -2   1  -7   97.38    4.48
   2  -1   7   77.08    4.68
   2  -1   7   96.00    4.20
   2  -1   7   89.56    4.30
   2  -1   7   80.25    3.94
   2  -1   7   83.77    3.98
   2  -1   7   89.17    4.19
   2  -1   7   90.71    4.22
   2  -1   7   79.10    3.97
   2  -1   7   89.49    4.00
   2  -1   7   90.09    4.01
   2  -1   7   88.69    3.93
   2  -1   7   80.60    4.29
  -3   1  -7   13.75    0.81
  -3   1  -7   12.93    0.89
  -3   1  -7   12.96    0.71
   3  -1   7   13.43    0.75
   3  -1   7   13.54    0.94
   3  -1   7   12.39    0.71
   3  -1   7   12.11    0.73
   3  -1   7   12.43    0.89
   3  -1   7   15.64    1.39
   3  -1   7   13.46    0.71
   3  -1   7   13.45    0.89
   3  -1   7   12.63    0.88
   3  -1   7   14.34    1.05
   3  -1   7   13.36    0.78
   3  -1   7   12.58    0.75
   3  -1   7   12.86    0.74
  -4   1  -7    4.29    0.33
   4  -1   7    9.94    1.13
   4  -1   7   12.03    1.08
   4  -1   7   10.14    0.74
   4  -1   7   10.80    0.96
   4  -1   7   10.75    0.65
   4  -1   7    9.68    0.70
   5  -1   7    7.71    0.59
   5  -1   7    8.30    0.47
   5  -1   7    8.12    0.58
   5  -1   7    7.90    0.65
   5  -1   7    8.94    0.49
   5   0  -7    1.47    0.21
   5   0  -7    1.51    0.17
   5   0  -7    1.65    0.21
   5   0  -7    1.62    0.14
   5   0  -7    1.65    0.23
   5   0  -7    1.67    0.21
  -5   0   7    1.63    0.26
  -5   0   7    1.67    0.26
  -5   0   7    1.77    0.16
   4   0  -7   12.10    0.84
   4   0  -7   12.67    0.81
   4   0  -7   10.70    0.83
   4   0  -7   12.97    0.75
   4   0  -7   12.51    0.67
   4   0  -7   11.39    0.81
   4   0  -7   12.94    0.82
  -4   0   7   14.55    1.06
  -4   0   7   14.48    1.00
  -4   0   7   13.96    0.81
   3   0  -7   35.77    1.69
   3   0  -7   33.59    1.66
   3   0  -7   36.89    1.89
   3   0  -7   31.72    1.73
   3   0  -7   32.54    1.66
   3   0  -7   33.82    1.83
   3   0  -7   37.86    1.92
   3   0  -7   34.71    1.85
   3   0  -7   32.43    1.81
  -3   0   7   44.57    2.19
  -3   0   7   41.75    2.17
  -3   0   7   42.49    2.12
  -3   0   7   48.13    2.68
  -3   0   7   46.82    2.44
   2   0  -7   45.50    2.04
   2   0  -7   45.26    2.27
   2   0  -7   46.31    2.30
   2   0  -7   40.89    2.21
   2   0  -7   45.62    2.10
   2   0  -7   39.78    2.06
  -2   0   7   53.05    2.53
  -2   0   7   54.80    2.69
  -2   0   7   49.55    2.54
  -2   0   7   53.09    2.54
  -2   0   7   55.54    2.84
  -2   0   7   55.35    2.80
   1   0  -7   43.19    2.69
   1   0  -7   46.70    2.13
  -1   0   7   50.38    2.41
  -1   0   7   50.08    2.42
  -1   0   7   53.78    2.66
   0   0  -7   34.25    1.63
   0   0  -7   33.38    2.21
   0   0   7   39.65    1.91
   0   0   7   40.18    2.12
  -1   0  -7   38.60    1.75
  -1   0  -7   31.66    1.71
  -1   0  -7   36.03    1.78
   1   0   7   37.34    1.94
   1   0   7   34.83    1.67
   1   0   7   35.27    1.72
  -2   0  -7   34.55    1.62
  -2   0  -7   29.91    1.63
  -2   0  -7   34.73    1.71
  -2   0  -7   32.93    1.79
   2   0   7   29.06    1.56
   2   0   7   29.65    1.85
   2   0   7   34.62    1.75
   2   0   7   30.15    1.54
   2   0   7   31.25    2.12
   2   0   7   33.73    1.59
   2   0   7   33.24    1.79
   2   0   7   30.54    1.59
   2   0   7   33.71    1.59
   2   0   7   33.07    1.52
  -3   0  -7   43.49    2.19
  -3   0  -7   47.84    2.31
  -3   0  -7   46.77    2.38
   3   0   7   42.06    2.18
   3   0   7   43.82    2.39
   3   0   7   37.30    2.19
   3   0   7   40.79    2.23
   3   0   7   39.36    2.83
   3   0   7   44.90    2.60
   3   0   7   44.75    2.08
   3   0   7   42.80    2.04
   3   0   7   42.12    1.99
   4   0   7    9.70    0.82
   4   0   7   10.62    0.61
   4   0   7   10.44    0.57
   4   0   7   11.27    0.76
   4   0   7   10.20    0.63
   4   0   7    8.26    0.84
   4   0   7   10.50    0.59
   4   0   7    8.59    0.95
   4   0   7   10.47    0.77
   5   0   7    1.35    0.13
   5   0   7    1.23    0.21
   5   0   7    1.42    0.13
   5   0   7    1.37    0.20
   5   0   7    1.39    0.14
   5   0   7    1.35    0.20
   5  -1  -7    1.88    0.24
   5  -1  -7    2.48    0.27
   5  -1  -7    2.31    0.27
   5  -1  -7    2.17    0.23
   5  -1  -7    1.97    0.20
   5  -1  -7    2.55    0.25
  -5   1   7    2.46    0.31
   4  -1  -7    5.84    0.43
   4  -1  -7    5.89    0.52
   4  -1  -7    6.44    0.57
   4  -1  -7    6.71    0.74
   4  -1  -7    6.23    0.66
  -4   1   7    9.47    0.79
  -4   1   7    8.93    0.64
  -4   1   7    9.74    0.73
   3  -1  -7   14.81    0.77
   3  -1  -7   13.60    0.91
   3  -1  -7   14.33    0.90
   3  -1  -7   13.39    0.74
   3  -1  -7   13.41    1.75
   3  -1  -7   14.19    0.91
   3  -1  -7   14.24    0.96
   3  -1  -7   14.04    0.82
   3  -1  -7   13.44    0.88
   3  -1  -7   14.03    0.73
  -3   1   7   19.65    1.19
  -3   1   7   21.47    1.09
  -3   1   7   19.65    1.56
  -3   1   7   22.82    1.41
  -3   1   7   19.89    1.09
   2  -1  -7   42.45    2.75
   2  -1  -7   51.36    2.25
   2  -1  -7   49.25    2.45
   2  -1  -7   41.36    2.71
   2  -1  -7   56.21    3.91
   2  -1  -7   52.70    2.32
   2  -1  -7   47.51    2.34
  -2   1   7   67.42    3.38
  -2   1   7   62.21    3.16
  -2   1   7   65.14    3.06
  -2   1   7   65.67    3.30
   1  -1  -7   81.10    3.74
  -1   1   7   93.84    4.50
  -1   1   7   93.71    4.27
  -1   1   7   90.62    4.53
   0  -1  -7   22.22    1.09
   0  -1  -7   18.49    1.51
   0   1   7   20.41    1.25
   0   1   7   21.41    1.58
  -1  -1  -7    4.72    0.32
  -1  -1  -7    4.43    0.37
  -1  -1  -7    4.53    0.68
   1   1   7    4.19    0.43
   1   1   7    3.61    0.31
   1   1   7    3.70    0.24
   1   1   7    3.89    0.29
   1   1   7    3.78    0.28
   1   1   7    3.52    0.56
   1   1   7    4.05    0.53
  -2  -1  -7   50.05    2.38
   2   1   7   56.96    2.81
   2   1   7   56.76    2.92
   2   1   7   55.00    2.84
   2   1   7   56.27    2.62
   2   1   7   56.01    2.60
   2   1   7   50.23    2.81
   2   1   7   53.72    2.82
   2   1   7   55.79    2.54
   2   1   7   51.46    3.25
  -3  -1  -7   55.66    2.74
   3   1   7   57.70    2.87
   3   1   7   53.04    2.59
   3   1   7   52.33    2.57
   3   1   7   56.02    2.62
   3   1   7   55.90    2.80
   3   1   7   54.14    2.93
   3   1   7   55.07    2.62
   3   1   7   57.35    2.63
   3   1   7   50.34    2.79
   3   1   7   53.08    3.27
   3   1   7   52.70    2.59
  -4  -1  -7   14.38    0.87
   4   1   7   13.85    0.92
   4   1   7   14.14    0.77
   4   1   7   13.87    0.94
   4   1   7   14.13    0.76
   4   1   7   14.29    0.93
   4   1   7   13.99    0.76
   4   1   7   13.37    1.01
   4   1   7   13.38    0.82
   4   1   7   14.48    0.75
  -5  -1  -7    2.26    0.17
  -5  -1  -7    2.19    0.26
   5   1   7    1.71    0.26
   5   1   7    1.84    0.21
   5   1   7    2.41    0.25
   5  -2  -7    0.30    0.10
   5  -2  -7    0.52    0.10
   5  -2  -7    0.47    0.11
   5  -2  -7    0.46    0.10
   5  -2  -7    0.40    0.08
   5  -2  -7    0.47    0.11
  -5   2   7    0.75    0.62
  -5   2   7    0.51    0.12
  -5   2   7    0.45    0.11
   4  -2  -7    3.24    0.34
   4  -2  -7    2.70    0.32
   4  -2  -7    3.32    0.34
   4  -2  -7    3.08    0.34
   4  -2  -7    3.51    0.38
   4  -2  -7    3.16    0.29
  -4   2   7    4.62    0.53
  -4   2   7    4.64    0.51
  -4   2   7    6.07    1.09
   3  -2  -7   14.01    0.90
   3  -2  -7   14.55    0.76
   3  -2  -7   13.45    0.94
   3  -2  -7   12.51    0.87
   3  -2  -7   13.74    0.87
   3  -2  -7   14.29    0.92
   3  -2  -7   13.57    0.81
   3  -2  -7   13.78    0.72
  -3   2   7   19.00    2.10
  -3   2   7   17.38    1.00
  -3   2   7   19.28    1.21
  -3   2   7   19.14    1.02
  -3   2   7   20.58    1.31
   2  -2  -7   10.39    0.78
   2  -2  -7   11.37    0.63
   2  -2  -7   10.76    0.69
   2  -2  -7   10.83    0.76
  -2   2   7   15.75    1.11
  -2   2   7   15.79    1.04
  -2   2   7   16.03    0.86
  -2   2   7   13.71    1.85
  -2   2   7   16.45    1.12
   1  -2  -7   52.04    2.36
   1  -2  -7   47.31    2.51
   1  -2  -7   51.15    2.57
   1  -2  -7   49.04    3.77
  -1   2   7   66.38    3.15
  -1   2   7   60.22    3.07
  -1   2   7   51.86    3.50
  -1   2   7   62.59    2.84
  -1   2   7   59.39    2.84
   0  -2  -7   14.14    1.69
   0  -2  -7   10.49    0.66
   0   2   7    9.09    0.79
   0   2   7    8.52    0.53
   0   2   7    8.59    0.68
   0   2   7    8.56    0.52
  -1  -2  -7    5.74    0.38
  -1  -2  -7    6.42    0.81
  -1  -2  -7    5.75    0.48
  -1  -2  -7    5.50    0.47
   1   2   7    5.50    0.31
   1   2   7    5.10    0.49
   1   2   7    5.25    0.51
   1   2   7    4.53    0.34
   1   2   7    5.07    0.35
   1   2   7    4.62    0.32
   1   2   7    5.65    0.51
   1   2   7    4.79    0.57
   1   2   7    5.18    0.35
  -2  -2  -7    3.88    0.30
  -2  -2  -7    3.84    0.35
  -2  -2  -7    3.82    0.30
   2   2   7    4.20    0.43
   2   2   7    4.28    0.35
   2   2   7    3.83    0.32
   2   2   7    4.04    0.47
   2   2   7    3.83    0.29
   2   2   7    3.76    0.31
   2   2   7    4.11    0.44
   2   2   7    3.76    0.30
   2   2   7    4.10    0.29
   2   2   7    3.93    0.50
   2   2   7    4.83    0.69
   2   2   7    4.16    0.45
  -3  -2  -7   33.92    1.70
  -3  -2  -7   33.89    1.78
  -3  -2  -7   35.30    1.70
   3   2   7   30.80    2.23
   3   2   7   35.94    1.67
   3   2   7   35.38    1.74
   3   2   7   34.01    1.70
   3   2   7   35.41    1.94
   3   2   7   34.05    1.68
   3   2   7   34.93    1.93
   3   2   7   35.30    1.89
   3   2   7   34.47    1.70
   3   2   7   32.44    1.98
   3   2   7   35.18    1.65
  -4  -2  -7   15.27    1.06
  -4  -2  -7   17.48    0.86
   4   2   7   18.66    1.18
   4   2   7   17.96    1.08
   4   2   7   17.33    0.91
   4   2   7   17.95    0.89
   4   2   7   14.93    0.92
   4   2   7   18.21    0.90
   4   2   7   14.80    1.16
   4   2   7   17.91    0.92
   4   2   7   17.11    1.06
  -5  -2  -7    4.58    0.41
  -5  -2  -7    4.34    0.27
   5   2   7    3.10    0.36
   5   2   7    4.21    0.25
   5   2   7    3.29    0.30
   5   2   7    4.03    0.24
   5   2   7    4.01    0.23
   5  -3  -7    8.40    0.53
   5  -3  -7    7.50    0.56
   5  -3  -7    8.79    0.56
   5  -3  -7    9.24    0.57
   5  -3  -7    9.62    0.57
  -5   3   7   11.09    0.75
  -5   3   7   13.35    0.83
   4  -3  -7   18.15    1.05
   4  -3  -7   18.10    1.02
   4  -3  -7   16.23    1.03
   4  -3  -7   15.96    1.06
   4  -3  -7   16.60    1.04
   4  -3  -7   19.32    0.98
  -4   3   7    8.21    1.36
   3  -3  -7   99.30    4.71
   3  -3  -7   96.00    4.91
   3  -3  -7  114.34    5.05
   3  -3  -7  108.84    4.98
   3  -3  -7  100.46    4.90
   3  -3  -7  102.53    4.91
   3  -3  -7  104.24    4.83
  -3   3   7  136.30    6.29
  -3   3   7  114.39    6.15
  -3   3   7  130.72    6.03
  -3   3   7  131.89    5.89
   2  -3  -7    2.54    0.33
   2  -3  -7    2.99    0.24
   2  -3  -7    2.20    0.74
   2  -3  -7    2.84    0.26
   2  -3  -7    2.66    0.32
  -2   3   7    4.17    0.33
  -2   3   7    4.93    0.53
  -2   3   7    4.64    0.35
  -2   3   7    4.57    0.46
  -2   3   7    4.66    0.52
  -2   3   7    4.82    0.42
   1  -3  -7   41.31    2.13
   1  -3  -7   40.35    1.96
   1  -3  -7   38.84    2.15
   1  -3  -7   46.81    3.62
   1  -3  -7   38.57    2.30
  -1   3   7   50.96    2.65
  -1   3   7   50.82    2.43
  -1   3   7   52.83    2.74
  -1   3   7   46.49    2.44
  -1   3   7   54.21    2.76
   0  -3  -7    0.54    0.38
   0  -3  -7    0.27    0.07
   0  -3  -7    0.22    0.10
   0   3   7    0.63    0.12
   0   3   7    0.52    0.18
   0   3   7    0.67    0.17
   0   3   7    0.70    0.18
  -1  -3  -7   13.24    0.75
  -1  -3  -7   14.33    0.80
  -1  -3  -7   13.43    0.99
  -1  -3  -7   16.27    1.91
   1   3   7   12.91    0.94
   1   3   7   13.51    0.87
   1   3   7   11.75    0.69
   1   3   7   13.77    0.94
   1   3   7   12.82    0.74
   1   3   7   13.33    0.93
   1   3   7   13.32    0.72
   1   3   7   11.92    0.71
   1   3   7   13.13    0.92
  -2  -3  -7   24.21    1.30
  -2  -3  -7   25.93    1.34
  -2  -3  -7   25.55    1.41
  -2  -3  -7   27.84    1.62
   2   3   7   22.15    1.19
   2   3   7   23.80    1.74
   2   3   7   23.74    1.42
   2   3   7   23.88    1.36
   2   3   7   22.08    1.36
   2   3   7   20.00    1.53
   2   3   7   22.78    1.19
   2   3   7   23.16    1.14
   2   3   7   21.71    1.15
   2   3   7   24.68    1.43
   2   3   7   23.40    1.20
   2   3   7   23.13    1.43
   2   3   7   23.53    1.16
  -3  -3  -7    6.08    0.59
  -3  -3  -7    6.63    0.42
   3   3   7    8.21    0.50
   3   3   7    7.28    0.46
   3   3   7    7.47    0.51
   3   3   7    7.80    0.46
   3   3   7    7.53    0.64
   3   3   7    7.18    0.60
   3   3   7    7.74    0.49
   3   3   7    7.62    0.68
   3   3   7    7.57    0.64
  -4  -3  -7    8.67    0.49
  -4  -3  -7    9.35    0.50
  -4  -3  -7    7.44    0.62
   4   3   7    9.39    0.53
   4   3   7    9.55    0.51
   4   3   7    9.20    0.72
   4   3   7    8.59    0.65
   4   3   7    9.60    0.66
   4   3   7    8.47    0.64
   4   3   7    9.04    0.52
   4   3   7    9.88    0.54
  -5  -3  -7    0.60    0.27
   5  -4  -7    2.62    0.28
   5  -4  -7    2.75    0.23
   5  -4  -7    2.81    0.24
  -5   4   7    5.37    0.42
  -5   4   7    5.72    0.39
   4  -4  -7    8.74    0.62
   4  -4  -7    8.82    0.68
   4  -4  -7    9.47    0.60
   4  -4  -7    9.87    0.67
   4  -4  -7   10.01    0.63
   4  -4  -7    9.16    0.59
   3  -4  -7    5.72    0.45
   3  -4  -7    6.33    0.51
   3  -4  -7    5.07    1.10
   3  -4  -7    6.12    0.55
   3  -4  -7    6.75    0.46
   3  -4  -7    5.92    0.48
   2  -4  -7   34.00    1.87
   2  -4  -7   33.99    1.85
   2  -4  -7   35.14    1.71
   2  -4  -7   31.70    1.80
  -2   4   7   50.11    2.59
  -2   4   7   47.09    2.38
  -2   4   7   49.73    2.32
  -2   4   7   49.01    2.63
  -2   4   7   45.90    2.45
  -2   4   7   43.11    2.25
   1  -4  -7    1.65    0.19
   1  -4  -7    1.76    0.18
   1  -4  -7    1.65    0.26
   1  -4  -7    1.69    0.31
  -1   4   7    1.48    0.20
  -1   4   7    1.32    0.23
  -1   4   7    1.47    0.26
  -1   4   7    1.76    0.28
  -1   4   7    1.84    0.19
   0  -4  -7    1.59    0.17
   0  -4  -7    1.33    0.14
   0  -4  -7    1.74    0.64
   0   4   7    1.25    0.24
   0   4   7    1.41    0.16
   0   4   7    1.08    0.23
   0   4   7    0.94    0.13
   0   4   7    1.34    0.17
  -1  -4  -7    7.88    0.53
  -1  -4  -7    8.33    0.51
  -1  -4  -7    9.01    0.74
  -1  -4  -7    9.86    1.49
  -1  -4  -7    8.86    0.55
   1   4   7    9.23    0.64
   1   4   7    8.33    0.54
   1   4   7    7.74    0.51
   1   4   7    8.67    0.72
   1   4   7    8.51    0.75
   1   4   7    8.47    0.51
   1   4   7    9.75    0.76
   1   4   7    8.57    0.69
  -2  -4  -7   14.41    1.02
  -2  -4  -7   13.49    0.77
  -2  -4  -7   14.69    0.78
   2   4   7   12.83    0.75
   2   4   7   12.83    0.95
   2   4   7   13.11    0.92
   2   4   7   13.61    0.96
   2   4   7   13.33    0.76
   2   4   7   13.39    0.72
   2   4   7   14.12    0.96
   2   4   7   13.55    0.88
   2   4   7   13.49    0.76
   2   4   7   12.26    0.82
  -3  -4  -7   68.05    2.95
  -3  -4  -7   64.64    3.22
  -3  -4  -7   56.23    2.92
   3   4   7   72.11    3.18
   3   4   7   67.37    3.36
   3   4   7   62.12    3.33
   3   4   7   72.06    3.45
   3   4   7   64.69    3.22
   3   4   7   70.03    3.50
   3   4   7   71.77    3.22
   3   4   7   67.66    3.43
   3   4   7   71.15    3.21
   3   4   7   67.11    3.17
  -4  -4  -7    2.62    0.24
  -4  -4  -7    2.52    0.27
   4   4   7    1.76    0.24
   4   4   7    2.13    0.24
   4   4   7    1.68    0.21
   4   4   7    2.40    0.21
   4   4   7    2.24    0.16
   4   4   7    1.95    0.23
   4   4   7    2.04    0.18
   4  -5  -7    2.03    0.19
   4  -5  -7    1.84    0.21
   4  -5  -7    2.07    0.22
   4  -5  -7    1.92    0.18
  -4   5   7    2.14    0.23
  -4   5   7    2.48    0.29
   3  -5  -7   16.26    0.99
   3  -5  -7   19.38    1.00
   3  -5  -7   16.39    1.01
   3  -5  -7   17.86    0.96
  -3   5   7   27.29    1.62
  -3   5   7   25.31    1.51
  -3   5   7   27.47    1.45
   2  -5  -7   30.94    1.53
   2  -5  -7   29.71    1.60
   2  -5  -7   28.47    1.65
  -2   5   7   38.47    1.97
  -2   5   7   39.99    2.13
  -2   5   7   36.50    2.35
   1  -5  -7   19.92    1.00
   1  -5  -7   19.14    1.14
   1  -5  -7   20.83    1.26
  -1   5   7   26.72    1.54
  -1   5   7   26.74    1.37
  -1   5   7   26.43    1.43
  -1   5   7   26.25    1.36
  -1   5   7   27.35    1.65
  -1   5   7   30.09    1.67
   0  -5  -7   15.87    0.87
   0  -5  -7   19.50    2.19
   0  -5  -7   15.45    1.09
   0  -5  -7   15.74    0.85
   0   5   7   18.73    1.19
   0   5   7   20.26    1.28
   0   5   7   19.03    1.26
   0   5   7   19.08    1.01
  -1  -5  -7   35.27    3.58
  -1  -5  -7   42.86    2.00
  -1  -5  -7   46.76    2.33
   1   5   7   46.97    2.67
   1   5   7   48.16    2.24
   1   5   7   45.83    2.51
   1   5   7   47.70    2.28
  -2  -5  -7    8.36    1.25
  -2  -5  -7   10.44    0.57
  -2  -5  -7    9.64    0.76
  -2  -5  -7   10.52    0.60
   2   5   7   12.16    0.66
   2   5   7   11.53    0.82
   2   5   7   10.75    0.65
   2   5   7   11.95    0.64
   2   5   7   10.70    0.82
   2   5   7   11.27    0.75
   2   5   7   11.14    0.81
   2   5   7   11.38    0.65
  -3  -5  -7   42.19    2.03
  -3  -5  -7   42.63    2.20
  -3  -5  -7   42.11    1.99
   3   5   7   47.05    1.97
   3   5   7   37.78    2.12
   3   5   7   36.29    2.09
   3   5   7   38.03    2.11
   3   5   7   45.17    1.96
  -4  -5  -7    0.46    0.06
   4   5   7    0.46    0.05
  -4   6   7    7.10    0.50
  -4   6   7    7.37    0.46
   3  -6  -7   29.68    1.44
   3  -6  -7   26.61    1.51
   3  -6  -7   29.49    1.48
  -3   6   7   36.62    1.94
  -3   6   7   34.78    1.79
   2  -6  -7    3.79    0.39
   2  -6  -7    4.73    0.37
  -2   6   7    7.16    0.63
  -2   6   7    6.85    0.57
  -2   6   7    6.94    0.49
   1  -6  -7    6.57    0.38
   1  -6  -7    5.96    0.55
  -1   6   7    8.67    0.70
  -1   6   7    9.69    0.76
  -1   6   7    8.20    0.57
   0  -6  -7   13.53    0.96
   0  -6  -7   14.39    0.75
   0  -6  -7   14.53    0.76
   0   6   7   16.33    0.94
   0   6   7   17.32    0.89
   0   6   7   17.21    1.05
   0   6   7   17.06    1.13
  -1  -6  -7   32.84    1.62
  -1  -6  -7   32.78    1.64
  -1  -6  -7   35.32    1.90
   1   6   7   32.73    1.63
   1   6   7   32.91    1.63
   1   6   7   34.45    1.88
   1   6   7   34.18    2.05
  -2  -6  -7   10.51    0.81
  -2  -6  -7   12.59    0.68
  -2  -6  -7   13.21    0.65
   2   6   7   11.97    0.80
   2   6   7   12.02    0.81
   2   6   7   12.17    0.66
   2   6   7   12.68    0.67
  -3  -6  -7    5.94    0.44
  -3  -6  -7    6.08    0.36
  -3  -6  -7    5.96    0.34
   3   6   7    7.24    0.40
   3   6   7    6.67    0.39
   3  -7  -7    0.33    0.24
  -3   7   7    6.30    0.41
  -3   7   7    6.51    0.48
   2  -7  -7    0.52    0.31
  -2   7   7    9.32    0.67
  -2   7   7    8.34    0.55
   1  -7  -7    1.01    0.18
   1  -7  -7    0.97    0.11
  -1   7   7    0.91    0.18
  -1   7   7    0.80    0.12
   0  -7  -7   10.29    0.56
   0  -7  -7   10.76    0.76
   0   7   7   10.05    0.65
   0   7   7   10.63    0.76
  -1  -7  -7   21.26    1.06
  -1  -7  -7   21.99    1.26
   1   7   7   21.23    1.02
   1   7   7   20.49    1.22
  -2  -7  -7    7.04    0.55
  -2  -7  -7    8.95    0.46
  -2  -7  -7    9.11    0.47
   2  -8  -7    0.10    0.12
  -2   8   7    2.41    0.29
  -1   8   7    5.40    0.38
  -1   8   7    6.97    0.49
   0  -8  -7    6.42    0.48
   0   8   7    7.80    0.56
  -1  -8  -7   14.25    0.71
  -1  -8  -7   14.72    0.83
   1   8   7   16.29    1.01
   1  10  -8    6.78    0.45
  -1 -10   8    6.97    0.39
   0 -10   8    0.61    0.09
   0 -10   8    0.42    0.11
  -1  10  -8    1.81    0.21
   1 -10   8    2.40    0.29
   2   9  -8    8.53    0.50
   2   9  -8    6.34    0.48
  -2  -9   8   12.49    0.62
  -2  -9   8   10.83    0.67
   1   9  -8   11.27    0.74
   1   9  -8   14.93    0.84
  -1  -9   8   15.43    0.99
  -1  -9   8   17.17    0.85
   0   9  -8    1.56    0.22
   0   9  -8    1.39    0.18
   0  -9   8    1.28    0.22
   0  -9   8    1.62    0.15
  -1   9  -8    2.83    0.27
  -1   9  -8    2.68    0.30
   1  -9   8    3.17    0.39
   1  -9   8    3.83    0.26
  -2   9  -8    3.78    0.39
  -2   9  -8    3.74    0.34
   2  -9   8    4.49    0.26
   2  -9   8    3.07    0.50
  -3   9  -8   23.84    1.35
   3  -9   8   19.03    1.14
   3   8  -8    4.09    0.34
   3   8  -8    5.01    0.36
  -3  -8   8    5.34    0.31
  -3  -8   8    4.60    0.38
   2   8  -8    1.26    0.19
   2   8  -8    0.99    0.15
  -2  -8   8    1.11    0.18
  -2  -8   8    0.98    0.12
   1   8  -8    0.11    0.07
   1   8  -8    0.06    0.04
   1   8  -8    0.08    0.07
  -1  -8   8    0.25    0.11
  -1  -8   8    0.18    0.09
  -1  -8   8    0.21    0.06
   0   8  -8    1.29    0.22
   0   8  -8    1.01    0.17
   0  -8   8    1.22    0.15
   0  -8   8    1.13    0.23
   0  -8   8    1.56    0.23
  -1   8  -8   15.08    0.99
  -1   8  -8   15.49    0.93
   1  -8   8   15.32    1.14
   1  -8   8   17.85    0.89
  -2   8  -8    8.89    0.64
  -2   8  -8   10.26    0.71
  -2   8  -8   11.19    0.71
   2  -8   8   10.59    0.56
   2  -8   8    8.30    0.76
   2  -8   8    9.70    0.65
   2  -8   8   10.94    0.56
  -3   8  -8    7.75    0.55
  -3   8  -8    8.77    0.55
  -3   8  -8    6.63    0.56
   3  -8   8    8.12    0.42
   3  -8   8    7.28    0.52
   3  -8   8    8.36    0.45
   3  -8   8    7.71    0.43
   3  -8   8    8.00    0.65
   4   7  -8    1.52    0.16
  -4  -7   8    4.82    0.38
   3   7  -8    2.76    0.28
   3   7  -8    2.69    0.29
  -3  -7   8    3.96    0.27
  -3  -7   8    3.70    0.38
   2   7  -8   14.66    0.93
   2   7  -8   15.35    0.92
  -2  -7   8   22.22    1.17
  -2  -7   8   23.61    1.37
   1   7  -8    9.93    0.74
   1   7  -8   10.22    0.68
   1   7  -8    9.04    0.67
  -1  -7   8   12.85    0.89
  -1  -7   8   13.63    0.76
   0   7  -8   22.15    1.32
   0   7  -8   21.78    1.34
   0  -7   8   22.88    1.59
   0  -7   8   23.69    1.21
  -1   7  -8    6.37    0.56
  -1   7  -8    6.75    0.53
   1  -7   8    7.27    0.68
   1  -7   8    5.18    0.47
   2  -7   8    5.87    0.39
   2  -7   8    6.51    0.65
   2  -7   8    6.05    0.40
   2  -7   8    6.24    0.51
  -3   7  -8    4.43    0.39
  -3   7  -8    4.61    0.42
   3  -7   8    4.50    0.56
   3  -7   8    4.17    0.37
   3  -7   8    3.63    0.45
   3  -7   8    4.37    0.30
   3  -7   8    3.99    0.38
   3  -7   8    4.43    0.29
   3  -7   8    4.51    0.27
   3  -7   8    4.72    0.40
  -4   7  -8    0.57    0.11
  -4   7  -8    0.81    0.12
   4  -7   8    0.57    0.11
   4  -7   8    0.63    0.11
   4  -7   8    0.74    0.07
   4  -7   8    0.56    0.18
   4  -7   8    0.82    0.09
   4   6  -8    2.14    0.15
   4   6  -8    2.17    0.23
   4   6  -8    1.82    0.21
   4   6  -8    1.67    0.17
  -4  -6   8    1.78    0.23
  -4  -6   8    2.46    0.19
  -4  -6   8    1.97    0.24
   3   6  -8    1.71    0.25
   3   6  -8    2.19    0.23
   3   6  -8    2.17    0.28
   3   6  -8    2.41    0.27
  -3  -6   8    3.59    0.38
  -3  -6   8    3.33    0.25
  -3  -6   8    3.42    0.42
  -3  -6   8    3.01    0.36
   2   6  -8    0.22    0.06
   2   6  -8    0.31    0.16
   2   6  -8    0.21    0.14
   2   6  -8    0.27    0.09
   2   6  -8    0.31    0.11
  -2  -6   8    0.45    0.11
  -2  -6   8    0.36    0.13
  -2  -6   8    0.55    0.25
  -2  -6   8    0.43    0.10
   1   6  -8   58.20    3.00
   1   6  -8   63.09    3.10
  -1  -6   8   79.83    3.90
  -1  -6   8   76.99    3.67
   0   6  -8   17.95    1.14
   0   6  -8   17.82    1.05
   0   6  -8   16.64    1.06
   0  -6   8   17.48    1.09
   0  -6   8   17.66    0.93
   0  -6   8   16.01    1.17
  -1   6  -8    0.31    0.12
  -1   6  -8    0.38    0.13
  -1   6  -8    0.33    0.12
  -1   6  -8    0.01    0.12
   1  -6   8    0.60    0.11
   1  -6   8    0.57    0.21
   1  -6   8    0.41    0.13
   1  -6   8    0.52    0.13
  -2   6  -8    4.94    0.51
  -2   6  -8    5.89    0.51
  -2   6  -8    5.51    0.51
   2  -6   8    5.41    0.63
   2  -6   8    7.13    0.58
   2  -6   8    6.74    0.44
   2  -6   8    6.82    0.56
  -3   6  -8    2.75    0.29
   3  -6   8   12.49    1.13
   3  -6   8   11.27    0.65
   3  -6   8   11.08    0.78
   3  -6   8   11.05    0.79
   3  -6   8   11.79    0.65
   3  -6   8   11.77    0.62
   3  -6   8   10.40    0.90
   3  -6   8   12.07    0.78
   4  -6   8   14.09    0.73
   4  -6   8   13.14    0.84
   4  -6   8   13.35    0.90
   4  -6   8   14.02    0.71
   4  -6   8   15.01    0.97
   4  -6   8   13.19    0.70
   4  -6   8   14.32    0.94
   4   5  -8   43.72    2.13
   4   5  -8   38.96    2.00
   4   5  -8   43.84    1.98
  -4  -5   8   55.14    2.81
  -4  -5   8   60.33    2.63
  -4  -5   8   47.87    2.73
  -4  -5   8   58.31    2.91
   3   5  -8   55.16    2.65
   3   5  -8   50.54    2.54
   3   5  -8   46.62    2.68
   3   5  -8   58.09    2.71
   3   5  -8   54.48    2.51
   3   5  -8   56.99    2.71
  -3  -5   8   67.47    3.23
  -3  -5   8   69.06    3.29
  -3  -5   8   69.10    3.53
  -3  -5   8   73.33    3.52
   2   5  -8   16.38    0.88
   2   5  -8   17.83    0.93
   2   5  -8   15.58    1.07
   2   5  -8   17.77    1.06
   2   5  -8   17.78    1.11
   2   5  -8   17.45    1.04
   2   5  -8   16.11    1.03
  -2  -5   8   20.01    1.24
  -2  -5   8   19.05    1.03
  -2  -5   8   19.33    0.99
  -2  -5   8   18.72    1.23
  -2  -5   8   19.39    1.02
   1   5  -8   34.56    1.65
   1   5  -8   37.55    2.12
   1   5  -8   28.50    1.75
   1   5  -8   36.02    2.25
  -1  -5   8   43.74    2.20
  -1  -5   8   38.09    2.33
  -1  -5   8   38.43    1.96
   0   5  -8   18.30    1.10
   0   5  -8   19.39    1.16
   0   5  -8   16.64    1.08
   0  -5   8   19.15    1.20
   0  -5   8   17.91    1.26
   0  -5   8   20.19    1.06
   0  -5   8   19.73    1.03
   0  -5   8   20.03    1.18
   1  -5   8   40.85    2.21
   1  -5   8   39.43    2.39
   1  -5   8   45.85    2.43
   1  -5   8   41.39    2.03
  -2   5  -8   13.77    0.84
   2  -5   8   27.79    1.42
   2  -5   8   29.48    1.50
   2  -5   8   28.31    1.61
   2  -5   8   27.35    1.46
   2  -5   8   28.37    1.63
   2  -5   8   28.63    1.46
   2  -5   8   29.73    1.67
   2  -5   8   31.83    1.87
   2  -5   8   28.45    1.63
   2  -5   8   34.24    2.19
   2  -5   8   27.71    1.68
   3  -5   8    1.98    0.22
   3  -5   8    2.44    0.38
   3  -5   8    2.19    0.21
   3  -5   8    2.50    0.48
   3  -5   8    1.92    0.28
   3  -5   8    2.17    0.18
   3  -5   8    2.06    0.27
   3  -5   8    1.91    0.28
   4  -5   8   12.30    0.65
   4  -5   8   12.13    0.63
   4  -5   8   12.37    0.62
   4  -5   8   11.93    0.78
   4  -5   8   10.04    0.83
   4  -5   8    9.70    1.00
   4  -5   8   12.84    0.79
  -5   5  -8   -0.08    0.14
   5  -5   8    5.48    0.52
   5  -5   8    5.94    0.31
   5  -5   8    5.77    0.29
   5  -5   8    4.28    0.40
   5  -5   8    4.48    0.36
   5   4  -8    9.78    0.51
   5   4  -8    8.45    0.56
   5   4  -8    9.99    0.49
   5   4  -8    9.41    0.57
   5   4  -8    9.49    0.58
  -5  -4   8   15.46    0.76
  -5  -4   8   13.95    0.87
   4   4  -8   28.41    1.53
   4   4  -8   24.06    1.40
   4   4  -8   32.07    1.65
   4   4  -8   28.12    1.48
   4   4  -8   30.44    1.55
  -4  -4   8   35.70    1.94
  -4  -4   8   31.25    1.83
  -4  -4   8   37.39    1.95
   3   4  -8   43.66    2.12
   3   4  -8   43.42    2.15
   3   4  -8   40.18    2.38
   3   4  -8   44.89    2.32
   3   4  -8   45.72    2.44
   3   4  -8   44.56    2.24
   3   4  -8   42.97    2.30
  -3  -4   8   57.01    3.32
  -3  -4   8   56.46    2.93
  -3  -4   8   55.16    2.81
   2   4  -8   61.96    3.16
   2   4  -8   62.68    3.15
   2   4  -8   71.03    3.29
   2   4  -8   60.47    2.97
   2   4  -8   65.44    3.00
   2   4  -8   60.53    3.15
   2   4  -8   65.54    3.23
  -2  -4   8   72.51    3.54
  -2  -4   8   74.79    3.77
  -2  -4   8   71.64    3.50
  -2  -4   8   76.19    3.80
  -2  -4   8   82.02    3.81
  -2  -4   8   74.65    3.48
   1   4  -8   28.55    1.58
   1   4  -8   27.10    1.40
   1   4  -8   30.60    1.42
   1   4  -8   27.92    1.61
   1   4  -8   29.74    1.59
  -1  -4   8   33.60    1.72
  -1  -4   8   36.94    1.97
  -1  -4   8   33.02    1.73
  -1  -4   8   37.94    1.98
   0   4  -8   24.91    1.39
   0   4  -8   24.04    1.19
   0   4  -8   24.23    1.57
   0   4  -8   22.53    1.34
   0  -4   8   26.82    1.43
   0  -4   8   29.74    1.62
   0  -4   8   29.83    1.65
   0  -4   8   28.97    1.44
   0  -4   8   28.72    1.61
   1  -4   8   87.36    4.12
   1  -4   8   77.05    4.22
   1  -4   8   90.22    4.58
   1  -4   8   81.36    4.08
   1  -4   8   81.02    3.89
   1  -4   8   82.78    3.90
   1  -4   8   86.70    4.11
  -2   4  -8   45.90    2.29
   2  -4   8  100.32    5.03
   2  -4   8   97.34    4.72
   2  -4   8   90.33    4.77
   2  -4   8   97.69    4.61
   2  -4   8  105.16    4.86
   2  -4   8  103.32    4.65
   2  -4   8  102.81    4.64
   2  -4   8   99.90    4.85
   2  -4   8  103.59    4.83
  -3   4  -8    4.37    0.39
   3  -4   8    7.25    0.64
   3  -4   8    7.39    0.52
   3  -4   8    7.93    0.95
   3  -4   8    8.00    0.64
   3  -4   8    7.51    0.52
   3  -4   8    7.81    0.49
   3  -4   8    7.56    0.49
  -4   4  -8    6.95    0.47
   4  -4   8   22.32    1.77
   4  -4   8   22.47    1.44
   4  -4   8   21.90    1.51
   4  -4   8   25.83    1.49
   5  -4   8    7.21    0.68
   5  -4   8   10.18    0.45
   5  -4   8    7.52    0.58
   5  -4   8    8.53    0.53
   5   3  -8    2.11    0.17
   5   3  -8    2.18    0.15
   5   3  -8    1.75    0.19
   5   3  -8    1.54    0.19
  -5  -3   8    2.30    0.18
  -5  -3   8    1.67    0.24
   4   3  -8    1.96    0.25
   4   3  -8    1.88    0.20
   4   3  -8    1.85    0.26
   4   3  -8    1.87    0.23
   4   3  -8    1.93    0.17
   4   3  -8    1.84    0.24
  -4  -3   8    1.93    0.37
  -4  -3   8    1.73    0.19
  -4  -3   8    1.68    0.26
  -4  -3   8    1.67    0.25
   3   3  -8    2.61    0.30
   3   3  -8    2.54    0.34
   3   3  -8    2.80    0.24
   3   3  -8    3.20    0.36
   3   3  -8    2.55    0.22
   3   3  -8    2.52    0.31
   3   3  -8    2.36    0.29
   3   3  -8    2.84    0.25
   3   3  -8    2.77    0.30
  -3  -3   8    3.77    0.28
  -3  -3   8    3.95    0.33
  -3  -3   8    4.07    0.43
  -3  -3   8    3.76    0.45
  -3  -3   8    3.79    0.45
  -3  -3   8    3.55    0.42
   2   3  -8   14.83    0.97
   2   3  -8   16.85    0.86
   2   3  -8   14.91    0.83
   2   3  -8   16.23    1.01
   2   3  -8   16.24    1.02
   2   3  -8   15.42    0.98
  -2  -3   8   16.33    0.95
  -2  -3   8   18.47    1.16
  -2  -3   8   18.19    1.39
  -2  -3   8   16.33    0.88
  -2  -3   8   17.46    1.16
   1   3  -8   29.80    1.72
   1   3  -8   31.24    1.49
   1   3  -8   29.51    1.66
   1   3  -8   30.52    1.67
  -1  -3   8   35.97    1.96
  -1  -3   8   36.67    1.95
  -1  -3   8   32.72    2.02
  -1  -3   8   35.37    1.72
   0   3  -8   40.74    1.99
   0   3  -8   43.06    2.27
   0  -3   8   45.63    2.51
   0  -3   8   49.06    2.48
   0  -3   8   49.07    2.27
   0  -3   8   49.52    2.48
   0  -3   8   43.70    2.25
  -1   3  -8    5.56    0.40
   1  -3   8   12.07    0.73
   1  -3   8   12.76    0.87
   1  -3   8   12.20    0.87
   1  -3   8   12.34    0.71
   1  -3   8   12.54    0.84
   1  -3   8   13.39    1.18
   1  -3   8   11.91    0.70
  -2   3  -8    4.37    0.36
   2  -3   8   10.37    1.12
   2  -3   8   10.73    0.63
   2  -3   8   11.29    0.79
   2  -3   8   11.23    0.91
   2  -3   8   10.39    0.57
   2  -3   8   10.44    0.62
   2  -3   8   10.39    0.76
   2  -3   8   10.36    0.77
   2  -3   8    9.74    0.60
   2  -3   8   10.17    0.63
   2  -3   8    9.58    0.57
  -3   3  -8   43.04    2.27
  -3   3  -8   39.87    2.12
  -3   3  -8   43.18    2.00
   3  -3   8   39.85    1.99
   3  -3   8   39.26    1.95
   3  -3   8   42.69    2.78
   3  -3   8   42.81    2.21
   3  -3   8   43.66    2.19
   3  -3   8   39.34    1.99
   3  -3   8   42.13    1.96
   3  -3   8   39.53    2.20
   3  -3   8   40.20    2.35
   3  -3   8   41.72    2.02
   3  -3   8   41.50    2.18
  -4   3  -8    4.31    0.34
   4  -3   8   20.61    1.70
   4  -3   8   25.80    1.34
   4  -3   8   20.00    1.41
   4  -3   8   24.46    1.18
   4  -3   8   24.85    1.17
   4  -3   8   22.19    1.35
   4  -3   8   22.94    1.27
   4  -3   8   24.88    1.15
   4  -3   8   22.00    1.20
   5  -3   8    4.27    0.50
   5  -3   8    4.64    0.27
   5  -3   8    4.88    0.38
   5  -3   8    4.76    0.29
   5   2  -8    5.29    0.37
   5   2  -8    5.74    0.46
   5   2  -8    5.12    0.30
   5   2  -8    5.27    0.39
   5   2  -8    4.44    0.33
  -5  -2   8    6.37    0.54
  -5  -2   8    6.98    0.40
   4   2  -8    2.02    0.24
   4   2  -8    1.88    0.20
   4   2  -8    2.08    0.27
   4   2  -8    2.19    0.19
   4   2  -8    1.87    0.26
   4   2  -8    1.89    0.25
  -4  -2   8    1.94    0.29
  -4  -2   8    1.68    0.22
  -4  -2   8    1.75    0.29
  -4  -2   8    1.97    0.21
   3   2  -8   26.30    1.49
   3   2  -8   30.76    1.63
   3   2  -8   25.54    1.55
   3   2  -8   27.77    1.53
   3   2  -8   28.28    1.39
   3   2  -8   28.47    1.55
   3   2  -8   28.37    1.55
   3   2  -8   27.51    1.43
  -3  -2   8   35.14    1.98
  -3  -2   8   33.78    1.88
  -3  -2   8   34.40    1.99
  -3  -2   8   34.62    1.73
  -3  -2   8   31.35    1.79
  -3  -2   8   34.69    1.81
   2   2  -8   20.47    1.08
   2   2  -8   19.83    1.21
   2   2  -8   20.34    1.24
   2   2  -8   21.71    1.27
   2   2  -8   22.07    1.10
   2   2  -8   22.67    1.27
  -2  -2   8   25.17    1.52
  -2  -2   8   23.52    1.27
  -2  -2   8   24.48    1.50
  -2  -2   8   24.78    1.44
  -2  -2   8   24.39    1.24
   1   2  -8    7.25    0.67
   1   2  -8    6.96    0.55
   1   2  -8    7.03    0.44
  -1  -2   8    7.79    0.65
  -1  -2   8    6.98    0.89
  -1  -2   8    7.46    0.47
  -1  -2   8    7.58    0.61
   0   2  -8    4.30    0.46
   0   2  -8    4.20    0.39
   0   2  -8    4.40    0.30
   0  -2   8    5.24    0.67
   0  -2   8    4.95    0.36
   0  -2   8    5.52    0.54
   0  -2   8    6.06    0.52
   0  -2   8    4.94    0.35
   0  -2   8    5.16    0.36
  -1   2  -8   22.82    1.09
  -1   2  -8   22.80    1.34
  -1   2  -8   22.35    1.14
   1  -2   8   25.75    1.89
   1  -2   8   23.87    1.49
   1  -2   8   23.12    1.22
   1  -2   8   21.96    1.19
   1  -2   8   23.91    1.40
   1  -2   8   21.79    1.14
   1  -2   8   24.23    1.22
   1  -2   8   23.69    1.39
   1  -2   8   24.92    1.41
  -2   2  -8    7.35    0.54
  -2   2  -8    7.24    0.43
  -2   2  -8    7.38    0.61
  -2   2  -8    7.40    0.57
   2  -2   8    7.08    0.44
   2  -2   8    7.89    0.72
   2  -2   8    7.59    0.44
   2  -2   8    8.25    0.65
   2  -2   8    7.88    0.94
   2  -2   8    7.66    0.49
   2  -2   8    7.72    0.63
   2  -2   8    7.88    0.63
   2  -2   8    7.36    0.52
   2  -2   8    7.87    0.62
   2  -2   8    7.58    0.50
   2  -2   8    7.25    0.47
  -3   2  -8    1.82    0.17
  -3   2  -8    1.61    0.25
  -3   2  -8    1.75    0.24
   3  -2   8    1.81    0.19
   3  -2   8    1.83    0.27
   3  -2   8    2.22    0.48
   3  -2   8    1.89    0.21
   3  -2   8    1.85    0.28
   3  -2   8    2.10    0.28
   3  -2   8    1.83    0.17
   3  -2   8    2.11    0.22
   3  -2   8    1.66    0.18
   3  -2   8    1.67    0.17
   3  -2   8    1.68    0.31
  -4   2  -8    0.56    0.13
   4  -2   8    1.96    0.32
   4  -2   8    1.73    0.16
   4  -2   8    1.76    0.26
   4  -2   8    1.83    0.18
   4  -2   8    1.50    0.18
   4  -2   8    1.79    0.18
   4  -2   8    1.62    0.37
   4  -2   8    1.84    0.24
   4  -2   8    1.65    0.25
   5  -2   8    0.84    0.09
   5  -2   8    0.64    0.13
   5  -2   8    0.60    0.17
   5  -2   8    0.81    0.09
   5  -2   8    0.87    0.10
   5  -2   8    0.71    0.15
   5   1  -8    5.12    0.38
   5   1  -8    6.41    0.47
   5   1  -8    6.06    0.35
   5   1  -8    6.98    0.47
   5   1  -8    6.70    0.48
  -5  -1   8    8.11    0.44
  -5  -1   8    7.14    0.59
   4   1  -8    8.52    0.49
   4   1  -8    8.85    0.54
   4   1  -8    8.82    0.66
   4   1  -8    8.03    0.60
   4   1  -8    8.22    0.60
   4   1  -8    8.35    0.63
   4   1  -8    7.72    0.57
  -4  -1   8   11.13    0.84
  -4  -1   8   11.09    0.66
  -4  -1   8   10.71    0.86
   3   1  -8   42.38    2.16
   3   1  -8   39.87    2.00
   3   1  -8   43.84    2.13
   3   1  -8   38.35    2.12
   3   1  -8   39.36    2.08
   3   1  -8   38.71    1.92
   3   1  -8   39.12    2.09
   3   1  -8   39.52    2.07
   3   1  -8   38.88    1.97
  -3  -1   8   50.84    2.79
  -3  -1   8   54.63    2.62
  -3  -1   8   52.64    2.66
  -3  -1   8   53.60    2.85
  -3  -1   8   51.20    2.54
  -3  -1   8   52.33    2.67
   2   1  -8   51.81    2.57
   2   1  -8   55.64    2.41
   2   1  -8   46.45    2.53
   2   1  -8   51.20    2.55
   2   1  -8   46.80    2.35
   2   1  -8   47.85    2.51
  -2  -1   8   58.62    2.96
  -2  -1   8   63.29    2.99
  -2  -1   8   65.34    3.28
  -2  -1   8   63.11    3.24
  -2  -1   8   62.25    3.14
   1   1  -8   13.95    0.75
   1   1  -8   13.51    0.95
  -1  -1   8   17.68    1.15
  -1  -1   8   17.43    1.20
  -1  -1   8   17.46    0.94
   0   1  -8   22.00    1.06
   0   1  -8   18.14    1.14
   0   1  -8   21.63    1.24
   0  -1   8   23.20    1.74
   0  -1   8   24.92    1.42
   0  -1   8   24.99    1.24
   0  -1   8   24.39    1.50
   0  -1   8   25.18    1.46
   0  -1   8   22.82    1.24
  -1   1  -8   29.07    1.62
  -1   1  -8   28.64    1.42
   1  -1   8   29.96    1.67
   1  -1   8   29.48    2.09
   1  -1   8   28.37    1.64
   1  -1   8   30.49    1.69
   1  -1   8   30.58    1.50
   1  -1   8   30.59    1.69
  -2   1  -8  179.95    8.45
  -2   1  -8  177.26    8.21
  -2   1  -8  182.42    8.34
  -2   1  -8  186.74    8.18
   2  -1   8  186.92    8.18
   2  -1   8  182.69    8.39
   2  -1   8  181.01    8.09
   2  -1   8  180.21    8.38
   2  -1   8  165.09    8.10
   2  -1   8  187.07    8.42
   2  -1   8  178.75    8.15
   2  -1   8  180.06    8.52
   2  -1   8  185.84    8.22
   2  -1   8  173.24    8.15
   2  -1   8  163.98    8.13
   2  -1   8  181.72    8.37
   2  -1   8  192.36    9.04
  -3   1  -8   34.00    1.73
  -3   1  -8   33.88    1.59
  -3   1  -8   30.75    1.78
   3  -1   8   28.29    1.63
   3  -1   8   29.76    1.52
   3  -1   8   29.26    1.46
   3  -1   8   28.89    1.64
   3  -1   8   29.01    1.45
   3  -1   8   31.52    1.45
   3  -1   8   29.65    1.72
   3  -1   8   29.47    1.49
   3  -1   8   31.48    1.70
   3  -1   8   30.56    1.83
   3  -1   8   29.30    2.13
   3  -1   8   28.56    1.48
   3  -1   8   30.80    1.51
   4  -1   8   10.87    0.83
   4  -1   8   11.14    0.73
   4  -1   8   10.06    0.66
   4  -1   8   10.82    0.76
   4  -1   8    9.64    0.99
   4  -1   8    9.68    0.61
   4  -1   8    9.21    0.58
   4  -1   8   10.00    0.58
   5  -1   8    1.93    0.14
   5  -1   8    2.15    0.26
   5  -1   8    1.72    0.23
   5  -1   8    2.01    0.16
   5  -1   8    1.72    0.21
   5  -1   8    1.90    0.15
   5   0  -8    0.15    0.06
   5   0  -8    0.20    0.08
   5   0  -8    0.26    0.09
   5   0  -8    0.14    0.04
  -5   0   8    0.49    0.46
  -5   0   8    0.25    0.07
  -5   0   8    0.14    0.08
   4   0  -8    8.19    0.59
   4   0  -8    8.32    0.53
   4   0  -8    8.20    0.61
   4   0  -8    8.54    0.64
   4   0  -8    8.05    0.59
   4   0  -8    8.22    0.48
  -4   0   8    9.39    0.72
  -4   0   8    9.54    0.56
  -4   0   8    8.24    0.74
   3   0  -8   15.34    0.87
   3   0  -8   15.51    0.96
   3   0  -8   14.97    1.00
   3   0  -8   16.02    0.99
   3   0  -8   14.48    0.89
   3   0  -8   15.47    0.98
   3   0  -8   15.61    0.96
   3   0  -8   15.49    0.82
  -3   0   8   20.80    1.14
  -3   0   8   21.96    1.43
  -3   0   8   21.31    1.25
  -3   0   8   22.08    1.38
   2   0  -8   24.45    1.25
   2   0  -8   23.76    1.38
   2   0  -8   25.62    1.42
   2   0  -8   24.39    1.43
   2   0  -8   25.27    1.44
   2   0  -8   26.81    1.28
  -2   0   8   31.89    1.79
  -2   0   8   34.39    1.66
  -2   0   8   34.84    1.93
  -2   0   8   32.00    1.66
   1   0  -8    8.44    0.63
   1   0  -8    9.26    0.53
   1   0  -8    8.34    0.79
  -1   0   8    9.11    0.76
  -1   0   8    9.93    0.76
  -1   0   8    9.37    0.57
  -1   0   8    9.50    0.75
   0   0  -8    0.58    0.15
   0   0  -8    0.41    0.20
   0   0  -8    0.61    0.12
   0   0   8    0.40    0.10
   0   0   8    0.52    0.18
  -1   0  -8   17.88    1.21
  -1   0  -8   16.66    0.91
   1   0   8   20.43    1.26
   1   0   8   19.24    1.06
   1   0   8   20.69    1.24
   1   0   8   17.43    1.06
   1   0   8   20.94    1.24
   1   0   8   19.87    1.06
   1   0   8   21.96    1.67
   1   0   8   20.08    1.24
  -2   0  -8   31.90    1.65
  -2   0  -8   30.82    1.72
  -2   0  -8   30.76    1.54
   2   0   8   31.55    1.61
   2   0   8   32.09    1.61
   2   0   8   29.78    1.58
   2   0   8   33.52    1.92
   2   0   8   33.59    1.82
   2   0   8   31.95    1.61
   2   0   8   30.99    1.81
   2   0   8   35.95    2.36
   2   0   8   30.53    1.60
   2   0   8   31.29    1.54
   2   0   8   33.37    2.02
  -3   0  -8   41.38    2.26
  -3   0  -8   46.63    2.24
   3   0   8   40.87    2.03
   3   0   8   41.57    2.03
   3   0   8   46.14    2.32
   3   0   8   41.14    2.04
   3   0   8   42.82    2.07
   3   0   8   42.53    2.25
   3   0   8   39.33    2.69
   3   0   8   43.38    2.25
   3   0   8   41.48    2.37
   4   0   8    4.80    0.34
   4   0   8    4.85    0.46
   4   0   8    4.67    0.49
   4   0   8    4.79    0.32
   4   0   8    4.25    0.78
   4   0   8    4.79    0.45
   4   0   8    5.04    0.32
   5   0   8    1.38    0.12
   5   0   8    1.37    0.12
   5   0   8    1.30    0.11
   5   0   8    1.35    0.19
   5  -1  -8   11.64    0.72
   5  -1  -8   13.46    0.76
   5  -1  -8   12.96    0.71
   5  -1  -8   12.19    0.68
  -5   1   8   22.70    1.24
  -5   1   8   20.93    1.26
   4  -1  -8    1.63    0.22
   4  -1  -8    1.47    0.17
   4  -1  -8    1.75    0.23
   4  -1  -8    1.52    0.22
   4  -1  -8    1.30    0.22
   4  -1  -8    1.28    0.20
  -4   1   8    1.76    0.30
  -4   1   8    1.33    0.25
  -4   1   8    1.59    0.28
  -4   1   8    1.84    0.18
   3  -1  -8    0.24    0.07
   3  -1  -8    0.27    0.11
   3  -1  -8    0.35    0.12
   3  -1  -8    0.29    0.11
   3  -1  -8    0.28    0.12
   3  -1  -8    0.39    0.09
   3  -1  -8    0.31    0.10
   3  -1  -8    0.53    0.37
  -3   1   8    0.27    0.12
  -3   1   8    0.45    0.57
  -3   1   8    0.25    0.12
  -3   1   8    0.06    0.06
  -3   1   8    0.17    0.22
  -3   1   8    0.03    0.09
  -3   1   8    0.16    0.07
  -3   1   8    0.11    0.11
   2  -1  -8    6.36    0.53
   2  -1  -8    7.96    1.31
   2  -1  -8    5.76    0.49
   2  -1  -8    5.48    0.53
   2  -1  -8    6.97    0.43
  -2   1   8    9.84    0.81
  -2   1   8    9.01    0.57
  -2   1   8    9.28    0.80
  -2   1   8    8.98    0.58
  -2   1   8    9.49    0.80
   1  -1  -8   19.95    1.07
   1  -1  -8   24.21    2.36
   1  -1  -8   20.41    1.24
   1  -1  -8   18.84    1.21
  -1   1   8   23.74    1.45
  -1   1   8   22.68    1.41
  -1   1   8   21.86    1.18
  -1   1   8   22.86    1.41
  -1   1   8   24.01    1.55
  -1   1   8   21.98    1.20
   0  -1  -8   50.34    2.56
   0  -1  -8   49.12    2.36
   0   1   8   46.58    3.05
   0   1   8   55.51    2.84
   0   1   8   53.41    2.59
   0   1   8   56.85    2.60
   0   1   8   56.74    2.86
   0   1   8   56.66    3.31
  -1  -1  -8   20.70    1.25
  -1  -1  -8   21.80    1.33
  -1  -1  -8   21.70    1.15
   1   1   8   18.61    0.99
   1   1   8   19.90    1.61
   1   1   8   19.11    1.03
   1   1   8   19.86    1.24
   1   1   8   20.20    1.25
   1   1   8   17.74    0.96
   1   1   8   19.67    1.19
   1   1   8   19.92    1.21
  -2  -1  -8    9.86    0.60
  -2  -1  -8   10.35    0.70
  -2  -1  -8   10.85    0.74
   2   1   8   11.89    0.87
   2   1   8   12.36    0.92
   2   1   8   10.78    0.66
   2   1   8   12.16    0.88
   2   1   8   12.63    0.86
   2   1   8   11.65    0.69
   2   1   8   11.48    1.18
   2   1   8   11.31    0.66
   2   1   8   11.16    0.64
   2   1   8   12.35    0.69
   2   1   8   11.94    0.69
   2   1   8   11.23    0.62
   3   1   8   19.04    1.25
   3   1   8   20.81    1.64
   3   1   8   18.17    1.33
   3   1   8   22.37    1.15
   3   1   8   22.43    1.43
   3   1   8   21.11    1.08
   3   1   8   20.81    1.08
   3   1   8   21.44    1.37
   3   1   8   20.39    1.11
   3   1   8   21.12    1.10
  -4  -1  -8    1.14    0.13
  -4  -1  -8    0.89    0.18
   4   1   8    1.64    0.26
   4   1   8    1.43    0.21
   4   1   8    1.60    0.15
   4   1   8    1.50    0.16
   4   1   8    1.39    0.14
   4   1   8    1.52    0.21
   4   1   8    1.53    0.15
   4   1   8    1.41    0.22
   5   1   8    8.97    0.60
   5   1   8    9.25    0.47
   5   1   8    8.90    0.46
   5   1   8    8.89    0.46
   5  -2  -8    8.11    0.47
   5  -2  -8    7.66    0.48
   5  -2  -8    6.82    0.42
   5  -2  -8    6.30    0.46
   5  -2  -8    7.77    0.50
  -5   2   8    8.09    0.51
  -5   2   8    8.30    0.59
   4  -2  -8   27.85    1.44
   4  -2  -8   24.55    1.46
   4  -2  -8   29.53    1.43
   4  -2  -8   24.57    1.47
  -4   2   8   12.36    1.71
   3  -2  -8   54.05    2.55
   3  -2  -8   55.28    2.60
   3  -2  -8   48.49    2.47
   3  -2  -8   43.45    2.48
   3  -2  -8   42.96    4.20
  -3   2   8   69.74    3.67
  -3   2   8   73.08    3.67
  -3   2   8   69.96    3.56
   2  -2  -8   35.00    2.06
   2  -2  -8   38.45    1.90
   2  -2  -8   37.61    1.98
   2  -2  -8   40.31    2.07
   2  -2  -8   41.25    1.88
  -2   2   8   55.62    2.90
  -2   2   8   52.19    2.80
  -2   2   8   51.45    2.56
  -2   2   8   53.56    2.62
  -2   2   8   54.74    2.89
  -2   2   8   52.92    2.64
   1  -2  -8   14.06    0.96
   1  -2  -8   16.02    0.83
   1  -2  -8   15.27    0.97
  -1   2   8   20.19    1.29
  -1   2   8   18.57    1.23
  -1   2   8   19.85    1.27
  -1   2   8   18.10    1.02
  -1   2   8   19.22    1.03
   0  -2  -8   56.99    2.99
   0  -2  -8   58.51    2.96
   0  -2  -8   61.52    4.42
   0  -2  -8   58.51    2.78
   0   2   8   59.63    3.15
   0   2   8   64.48    3.11
   0   2   8   63.39    3.20
   0   2   8   61.82    3.17
   0   2   8   65.40    2.95
   0   2   8   60.76    2.94
   0   2   8   60.04    3.77
  -1  -2  -8   26.36    1.35
  -1  -2  -8   29.00    1.40
  -1  -2  -8   27.41    1.53
   1   2   8   28.77    1.45
   1   2   8   28.75    1.63
   1   2   8   30.85    1.79
   1   2   8   28.44    1.69
   1   2   8   25.75    1.39
   1   2   8   30.05    1.70
  -2  -2  -8   11.97    0.78
  -2  -2  -8   11.90    0.92
  -2  -2  -8   12.40    0.68
  -2  -2  -8   12.00    0.69
   2   2   8   10.96    0.61
   2   2   8   10.84    0.62
   2   2   8   11.75    0.64
   2   2   8   10.92    0.84
   2   2   8   10.49    0.63
   2   2   8   11.49    1.12
   2   2   8   10.92    0.65
   2   2   8   10.59    0.82
   2   2   8   11.32    0.80
   2   2   8   10.33    0.64
   2   2   8   10.72    0.82
  -3  -2  -8    8.87    0.53
  -3  -2  -8    9.05    0.75
   3   2   8    8.39    0.88
   3   2   8    8.06    0.70
   3   2   8    8.65    0.53
   3   2   8    8.65    0.52
   3   2   8    8.91    0.70
   3   2   8    9.20    0.68
   3   2   8    8.69    0.68
   3   2   8    8.47    0.50
   3   2   8    9.07    0.50
   3   2   8    7.82    0.64
   4   2   8   11.66    0.69
   4   2   8   13.20    0.80
   4   2   8   12.35    0.65
   4   2   8   12.51    0.85
   4   2   8   12.96    0.81
   4   2   8   12.61    0.67
   4   2   8   12.76    0.65
   4   2   8   11.00    0.76
   5  -3  -8    4.95    0.31
   5  -3  -8    4.83    0.33
  -5   3   8    6.79    0.41
  -5   3   8    5.28    0.49
   4  -3  -8    6.48    0.53
   4  -3  -8    6.82    0.45
   4  -3  -8    8.16    0.53
   4  -3  -8    7.45    0.49
   4  -3  -8    7.77    0.50
   4  -3  -8    6.18    0.48
  -4   3   8    8.52    0.69
  -4   3   8   11.48    0.68
  -4   3   8    9.94    0.76
   3  -3  -8   23.77    1.26
   3  -3  -8   24.53    1.32
   3  -3  -8   24.67    1.38
   3  -3  -8   23.08    1.40
  -3   3   8   32.01    1.61
  -3   3   8   28.02    1.73
  -3   3   8   28.95    1.46
  -3   3   8   29.75    1.78
   2  -3  -8   44.35    2.27
   2  -3  -8   41.14    2.28
   2  -3  -8   43.20    2.12
   2  -3  -8   45.20    2.09
  -2   3   8   52.45    2.57
  -2   3   8   50.34    2.80
  -2   3   8   52.44    2.70
  -2   3   8   54.09    2.81
  -2   3   8   47.82    2.46
  -2   3   8   53.80    2.50
   1  -3  -8   10.05    1.57
   1  -3  -8   10.15    0.71
   1  -3  -8    9.36    0.72
  -1   3   8    9.59    0.77
  -1   3   8   11.00    0.86
  -1   3   8   10.73    0.85
  -1   3   8   10.09    0.62
   0  -3  -8    3.56    0.25
   0  -3  -8    3.03    0.34
   0  -3  -8    3.56    0.40
   0  -3  -8    3.65    0.28
   0   3   8    3.56    0.41
   0   3   8    3.53    0.43
   0   3   8    3.63    0.42
   0   3   8    3.26    0.29
   0   3   8    3.70    0.29
  -1  -3  -8   14.10    0.81
  -1  -3  -8   16.27    1.98
  -1  -3  -8   14.47    0.79
  -1  -3  -8   15.79    1.06
   1   3   8   13.86    0.80
   1   3   8   14.79    0.79
   1   3   8   15.30    1.04
   1   3   8   16.20    1.07
   1   3   8   14.96    0.96
   1   3   8   16.19    1.08
   1   3   8   15.13    0.84
   1   3   8   14.84    1.01
   1   3   8   13.93    0.98
  -2  -3  -8   35.40    2.09
  -2  -3  -8   29.89    1.53
  -2  -3  -8   26.11    1.47
   2   3   8   27.41    1.63
   2   3   8   29.54    1.56
   2   3   8   31.23    1.73
   2   3   8   31.52    1.87
   2   3   8   30.59    1.50
   2   3   8   29.48    1.45
  -3  -3  -8   33.31    1.75
  -3  -3  -8   38.12    1.77
  -3  -3  -8   38.71    2.04
   3   3   8   34.52    1.71
   3   3   8   36.09    1.69
   3   3   8   33.24    1.85
   3   3   8   36.02    1.96
   3   3   8   36.47    1.94
   3   3   8   33.55    1.68
   3   3   8   37.23    1.90
  -4  -3  -8    1.89    0.15
  -4  -3  -8    1.85    0.17
   4   3   8    1.91    0.15
   4   3   8    2.06    0.22
   4   3   8    2.06    0.24
   4   3   8    2.26    0.17
   4   3   8    2.09    0.16
   4   3   8    1.96    0.16
   4  -4  -8   10.80    0.65
   4  -4  -8    9.50    0.58
   4  -4  -8   10.48    0.66
  -4   4   8   18.83    1.24
  -4   4   8   15.88    0.93
  -4   4   8   14.91    1.03
   3  -4  -8   37.29    1.96
   3  -4  -8   36.95    1.89
   3  -4  -8   35.25    1.81
  -3   4   8   45.96    2.55
  -3   4   8   52.75    2.67
  -3   4   8   48.84    2.62
   2  -4  -8    3.92    0.38
   2  -4  -8    3.50    0.30
  -2   4   8    3.92    0.34
  -2   4   8    3.48    0.38
  -2   4   8    4.01    0.47
  -2   4   8    3.86    0.45
  -2   4   8    3.85    0.29
   1  -4  -8    2.39    0.28
   1  -4  -8    1.69    0.86
   1  -4  -8    2.49    0.31
  -1   4   8    3.67    0.44
  -1   4   8    3.41    0.44
  -1   4   8    3.68    0.29
  -1   4   8    3.59    0.43
   0  -4  -8   15.23    1.02
   0  -4  -8   14.80    0.78
   0   4   8   18.53    0.98
   0   4   8   18.94    1.22
   0   4   8   16.83    1.28
   0   4   8   18.74    1.18
  -1  -4  -8    8.19    0.47
  -1  -4  -8    7.75    0.49
  -1  -4  -8    7.97    0.67
   1   4   8    9.37    0.52
   1   4   8    8.51    0.65
   1   4   8    9.62    0.72
   1   4   8    8.59    0.52
   1   4   8    7.90    0.68
   1   4   8    8.72    0.76
   1   4   8    9.49    0.65
  -2  -4  -8    5.50    0.35
  -2  -4  -8    5.49    0.38
  -2  -4  -8    4.98    0.97
  -2  -4  -8    5.86    0.54
   2   4   8    5.36    0.45
   2   4   8    4.96    0.35
   2   4   8    5.33    0.50
   2   4   8    5.36    0.37
   2   4   8    5.50    0.52
   2   4   8    4.86    0.49
   2   4   8    5.47    0.35
  -3  -4  -8   16.91    0.82
  -3  -4  -8   16.95    0.85
  -3  -4  -8   14.16    0.98
   3   4   8   15.49    0.76
   3   4   8   14.40    0.90
   3   4   8   15.89    0.74
   3   4   8   12.56    0.83
   3   4   8   14.42    0.71
   3   4   8   15.52    0.76
   3   4   8   12.79    0.88
   3   4   8   11.80    0.87
  -4  -4  -8    4.60    0.34
  -4  -4  -8    4.60    0.26
   4   4   8    4.71    0.27
   4   4   8    5.19    0.35
   4  -5  -8    8.78    0.53
   4  -5  -8    9.25    0.52
  -4   5   8    6.51    0.53
   3  -5  -8   20.88    1.13
   3  -5  -8   20.77    1.07
  -3   5   8   19.87    1.20
  -3   5   8   21.81    1.27
  -3   5   8   21.45    1.13
   2  -5  -8   12.04    0.78
  -2   5   8   19.95    1.27
  -2   5   8   20.03    1.08
  -2   5   8   19.88    1.24
   1  -5  -8    2.07    0.28
   1  -5  -8    1.79    0.22
  -1   5   8    2.97    0.34
  -1   5   8    3.03    0.38
  -1   5   8    3.11    0.39
  -1   5   8    3.16    0.24
   0  -5  -8    4.62    0.46
   0  -5  -8    4.62    0.30
   0   5   8    5.53    0.55
   0   5   8    5.21    0.52
   0   5   8    5.19    0.36
   0   5   8    5.18    0.47
  -1  -5  -8   32.88    1.79
  -1  -5  -8   30.76    1.51
  -1  -5  -8   30.77    1.56
   1   5   8   33.20    1.84
   1   5   8   33.02    1.83
   1   5   8   31.99    1.62
   1   5   8   35.91    1.65
  -2  -5  -8   23.80    1.09
  -2  -5  -8   24.27    1.12
  -2  -5  -8   18.01    1.25
   2   5   8   20.19    1.20
   2   5   8   18.94    1.21
   2   5   8   23.35    1.06
   2   5   8   22.90    1.08
   2   5   8   19.39    1.22
   2   5   8   23.20    1.09
  -3  -5  -8   11.10    0.69
  -3  -5  -8   10.07    0.54
  -3  -5  -8   10.41    0.56
   3   5   8    9.91    0.51
   3   5   8    9.66    0.49
   3   5   8    8.01    0.54
   3   5   8    9.95    0.51
  -3   6   8    3.67    0.27
  -3   6   8    2.86    0.31
   2  -6  -8   15.19    0.88
   2  -6  -8   16.38    0.92
  -2   6   8   24.49    1.21
  -2   6   8   21.99    1.30
  -2   6   8   22.84    1.35
  -1   6   8    2.02    0.29
  -1   6   8    1.70    0.26
   0  -6  -8   -0.03    0.03
   0  -6  -8    0.13    0.23
   0  -6  -8    0.01    0.04
   0   6   8    0.06    0.07
   0   6   8   -0.04    0.05
   0   6   8    0.06    0.04
  -1  -6  -8   10.08    0.75
  -1  -6  -8   12.21    0.60
  -1  -6  -8   11.46    0.60
   1   6   8   11.61    0.62
   1   6   8   10.13    0.72
   1   6   8    9.66    0.68
  -2  -6  -8    5.78    0.34
  -2  -6  -8    4.47    0.41
  -2  -6  -8    5.95    0.32
   2   6   8    5.24    0.31
   2   6   8    4.75    0.39
   2  -7  -8    0.52    0.30
  -2   7   8   16.48    0.95
  -1  -7  -8    9.25    0.44
  -1  -7  -8    7.19    0.54
   1   9  -9    3.82    0.32
  -1  -9   9    4.34    0.28
   0   9  -9    1.17    0.16
   0   9  -9    1.51    0.16
   0  -9   9    1.35    0.22
  -1   9  -9    2.57    0.25
  -1   9  -9    2.51    0.23
   1  -9   9    2.04    0.26
  -2   9  -9    8.49    0.65
   2  -9   9    6.61    0.51
   2   8  -9    1.76    0.20
   2   8  -9    2.34    0.24
  -2  -8   9    2.06    0.23
  -2  -8   9    2.10    0.17
   1   8  -9    8.51    0.63
   1   8  -9    9.83    0.63
  -1  -8   9   11.57    0.76
  -1  -8   9   13.13    0.68
   0   8  -9    0.25    0.10
   0   8  -9    0.19    0.09
   0  -8   9    0.45    0.14
   0  -8   9    0.33    0.11
   0  -8   9    0.35    0.08
  -1   8  -9    2.37    0.27
  -1   8  -9    2.34    0.26
   1  -8   9    1.96    0.29
   1  -8   9    2.09    0.18
  -2   8  -9    8.13    0.56
  -2   8  -9    9.55    0.59
  -2   8  -9    8.30    0.55
   2  -8   9    9.12    0.76
   3  -8   9    4.77    0.46
   3   7  -9    0.22    0.08
   3   7  -9    0.16    0.08
  -3  -7   9    0.05    0.04
  -3  -7   9    0.09    0.04
   2   7  -9    1.19    0.16
   2   7  -9    1.12    0.18
   2   7  -9    1.52    0.23
  -2  -7   9    1.87    0.25
  -2  -7   9    1.92    0.17
   1   7  -9    1.28    0.21
   1   7  -9    1.23    0.19
  -1  -7   9    1.60    0.24
  -1  -7   9    1.58    0.17
   0   7  -9    3.42    0.37
   0   7  -9    3.75    0.36
   0  -7   9    5.06    0.46
   0  -7   9    5.45    0.37
  -1   7  -9    5.53    0.52
  -1   7  -9    5.67    0.47
   1  -7   9    5.29    0.42
   1  -7   9    4.72    0.52
   1  -7   9    5.38    0.36
  -2   7  -9    1.85    0.24
  -2   7  -9    2.15    0.25
   2  -7   9    1.55    0.21
   2  -7   9    2.09    0.32
   2  -7   9    1.94    0.17
  -3   7  -9    2.56    0.35
  -3   7  -9    1.88    0.24
   3  -7   9    2.39    0.17
   3  -7   9    2.00    0.43
   3  -7   9    2.21    0.17
   3  -7   9    2.08    0.31
   3  -7   9    1.87    0.23
   4   6  -9    3.86    0.30
   3   6  -9    0.73    0.14
   3   6  -9    0.69    0.10
   3   6  -9    0.54    0.14
  -3  -6   9    0.67    0.15
  -3  -6   9    0.75    0.09
  -3  -6   9    0.68    0.14
  -3  -6   9    0.77    0.11
   2   6  -9    4.52    0.39
   2   6  -9    5.31    0.42
   2   6  -9    5.15    0.46
  -2  -6   9    6.31    0.54
  -2  -6   9    6.70    0.42
  -2  -6   9    6.49    0.56
   1   6  -9    1.80    0.24
   1   6  -9    1.82    0.26
  -1  -6   9    2.68    0.34
  -1  -6   9    2.85    0.24
   0   6  -9    4.61    0.42
   0   6  -9    5.24    0.47
   0  -6   9    6.51    0.57
   0  -6   9    8.19    0.60
  -1   6  -9   20.91    1.22
  -1   6  -9   21.25    1.24
  -1   6  -9   20.04    1.21
   1  -6   9   22.48    1.10
   1  -6   9   20.45    1.22
   1  -6   9   19.16    1.35
   1  -6   9   21.45    1.24
  -2   6  -9    0.45    0.11
  -2   6  -9    0.42    0.11
  -2   6  -9    0.48    0.60
   2  -6   9    0.25    0.13
   2  -6   9    0.55    0.26
   2  -6   9    0.35    0.13
   2  -6   9    0.35    0.08
   3  -6   9    2.85    0.37
   3  -6   9    2.73    0.31
   3  -6   9    3.36    0.24
   3  -6   9    2.96    0.30
   3  -6   9    2.99    0.44
   3  -6   9    3.36    0.23
  -4   6  -9    6.40    0.45
   4  -6   9    6.57    0.36
   4  -6   9    6.24    0.60
   4  -6   9    6.94    0.46
   4   5  -9    1.52    0.19
   4   5  -9    1.41    0.16
   4   5  -9    1.68    0.13
  -4  -5   9    2.75    0.26
  -4  -5   9    2.66    0.20
  -4  -5   9    2.04    0.24
   3   5  -9   24.78    1.23
   3   5  -9   25.39    1.34
   3   5  -9   25.26    1.64
  -3  -5   9   34.08    1.60
  -3  -5   9   31.32    1.78
  -3  -5   9   31.46    1.75
   2   5  -9   12.78    0.86
   2   5  -9   12.29    0.67
   2   5  -9   12.73    0.82
  -2  -5   9   16.48    0.89
  -2  -5   9   16.95    1.11
  -2  -5   9   16.52    0.91
  -2  -5   9   18.42    1.13
   1   5  -9   13.23    0.86
   1   5  -9   14.08    0.89
   1   5  -9   13.26    0.91
  -1  -5   9   17.30    1.07
  -1  -5   9   16.71    1.09
  -1  -5   9   16.53    0.89
  -1  -5   9   15.67    0.88
   0   5  -9   19.98    1.19
   0   5  -9   19.13    1.17
   0   5  -9   19.87    1.18
   0  -5   9   23.17    1.38
   0  -5   9   22.41    1.18
  -1   5  -9    3.51    0.38
  -1   5  -9    3.61    0.37
   1  -5   9    3.75    0.40
   1  -5   9    4.03    0.48
   1  -5   9    3.82    0.40
   1  -5   9    3.86    0.41
   1  -5   9    3.93    0.31
   2  -5   9    4.34    0.61
   2  -5   9    3.93    0.39
   2  -5   9    4.23    0.32
   2  -5   9    4.23    0.50
   2  -5   9    4.26    0.43
   3  -5   9    7.56    0.57
   3  -5   9    7.19    0.42
   3  -5   9    8.56    0.90
   3  -5   9    7.99    0.62
   3  -5   9    7.79    0.46
   3  -5   9    7.95    0.55
   3  -5   9    6.90    0.85
   4  -5   9    2.07    0.16
   4  -5   9    2.12    0.23
   4  -5   9    1.92    0.16
   4  -5   9    2.03    0.33
   4  -5   9    1.60    0.20
   4  -5   9    2.02    0.14
   4  -5   9    2.20    0.28
   4   4  -9   12.22    0.76
   4   4  -9   14.86    0.77
   4   4  -9   15.04    0.69
   4   4  -9   12.93    0.77
   4   4  -9   11.10    0.78
  -4  -4   9   20.12    1.15
  -4  -4   9   18.27    1.21
  -4  -4   9   22.93    1.08
  -4  -4   9   22.58    1.25
   3   4  -9   15.07    1.01
   3   4  -9   17.74    1.06
   3   4  -9   17.47    0.88
   3   4  -9   17.39    1.01
  -3  -4   9   23.45    1.20
  -3  -4   9   21.69    1.39
  -3  -4   9   22.91    1.35
  -3  -4   9   23.85    1.48
   2   4  -9    4.10    0.39
   2   4  -9    4.23    0.30
   2   4  -9    4.11    0.42
   2   4  -9    4.08    0.45
  -2  -4   9    7.62    0.65
  -2  -4   9    8.80    0.82
  -2  -4   9    7.46    0.51
  -2  -4   9    7.27    0.64
   1   4  -9   17.15    1.05
   1   4  -9   16.51    1.05
   1   4  -9   16.84    1.02
   1   4  -9   16.45    1.03
  -1  -4   9   17.27    0.98
  -1  -4   9   17.98    0.97
  -1  -4   9   18.99    1.20
  -1  -4   9   19.68    1.21
   0   4  -9   10.50    0.75
   0   4  -9   11.48    0.79
   0   4  -9   11.06    0.77
   0  -4   9   13.15    0.91
   0  -4   9   12.59    0.79
   0  -4   9   13.91    0.95
   0  -4   9   13.27    0.74
   0  -4   9   13.37    0.75
  -1   4  -9    0.53    0.34
  -1   4  -9    0.37    0.13
  -1   4  -9    0.20    0.11
   1  -4   9    0.44    0.24
   1  -4   9    0.56    0.15
   1  -4   9    0.75    0.17
   1  -4   9    0.51    0.18
   1  -4   9    0.56    0.17
   1  -4   9    0.40    0.10
  -2   4  -9   10.77    0.64
   2  -4   9   40.86    2.06
   2  -4   9   45.36    2.30
   2  -4   9   47.56    2.76
   2  -4   9   38.60    2.40
   2  -4   9   38.80    2.26
   2  -4   9   43.95    2.08
   2  -4   9   42.73    2.24
   3  -4   9    9.09    0.66
   3  -4   9    8.38    0.91
   3  -4   9    8.32    0.50
   3  -4   9    8.01    0.46
   3  -4   9    8.32    0.49
   3  -4   9    8.12    0.63
   3  -4   9    8.06    0.61
   3  -4   9    7.89    0.52
  -4   4  -9    2.21    0.29
   4  -4   9    2.87    0.22
   4  -4   9    2.28    0.23
   4  -4   9    2.95    0.44
   4  -4   9    3.24    0.41
   4  -4   9    3.05    0.30
   4   3  -9    9.00    0.63
   4   3  -9    8.55    0.61
   4   3  -9   11.02    0.64
   4   3  -9   10.91    0.55
   4   3  -9   10.86    0.68
  -4  -3   9   14.02    0.94
  -4  -3   9   14.84    0.96
  -4  -3   9   12.97    0.92
  -4  -3   9   15.35    0.79
   3   3  -9    9.01    0.52
   3   3  -9    9.08    0.64
   3   3  -9    9.30    0.68
   3   3  -9    8.61    0.61
   3   3  -9    9.10    0.64
  -3  -3   9   10.51    0.77
  -3  -3   9   11.02    0.84
  -3  -3   9   11.05    0.66
  -3  -3   9   10.46    0.83
   2   3  -9    2.44    0.21
   2   3  -9    1.79    0.25
   2   3  -9    2.19    0.28
   2   3  -9    2.14    0.27
   2   3  -9    1.98    0.19
  -2  -3   9    1.83    0.30
  -2  -3   9    1.86    0.30
  -2  -3   9    1.89    0.28
  -2  -3   9    1.82    0.21
   1   3  -9   17.29    1.06
   1   3  -9   17.35    0.90
   1   3  -9   16.50    1.04
   1   3  -9   15.96    1.03
  -1  -3   9   16.82    0.96
  -1  -3   9   17.12    0.93
  -1  -3   9   18.34    1.15
  -1  -3   9   18.13    1.18
  -1  -3   9   18.58    1.16
  -1  -3   9   17.82    0.96
   0   3  -9    8.93    0.53
   0   3  -9    9.03    0.88
   0  -3   9   12.21    0.86
   0  -3   9   10.91    0.83
   0  -3   9   10.99    0.90
   0  -3   9   12.44    0.69
  -1   3  -9   24.21    1.42
  -1   3  -9   27.41    1.52
   1  -3   9   29.93    1.75
   1  -3   9   31.47    1.56
   1  -3   9   33.21    1.77
   1  -3   9   31.60    1.72
   1  -3   9   29.26    1.52
   1  -3   9   31.47    2.14
   1  -3   9   30.05    1.54
  -2   3  -9    7.67    0.52
  -2   3  -9    7.75    0.64
  -2   3  -9    7.14    0.55
   2  -3   9    8.36    0.52
   2  -3   9    8.13    0.63
   2  -3   9    9.32    0.57
   2  -3   9    8.22    0.49
   2  -3   9    8.76    0.68
   2  -3   9    9.28    0.79
   2  -3   9    9.04    0.55
   2  -3   9    8.74    0.67
   2  -3   9    8.49    0.69
   2  -3   9   10.16    1.04
  -3   3  -9    0.82    0.16
   3  -3   9    5.30    0.47
   3  -3   9    5.51    0.50
   3  -3   9    5.58    0.57
   3  -3   9    5.47    0.37
   3  -3   9    5.13    0.35
   3  -3   9    5.29    0.49
   3  -3   9    5.35    0.72
   3  -3   9    5.17    0.33
  -4   3  -9    1.71    0.22
   4  -3   9    2.18    0.23
   4  -3   9    2.20    0.39
   4  -3   9    1.87    0.28
   4  -3   9    2.59    0.20
   4  -3   9    2.38    0.25
   4  -3   9    2.46    0.27
   4  -3   9    2.29    0.19
   4   2  -9    1.45    0.18
   4   2  -9    1.55    0.21
   4   2  -9    1.71    0.21
   4   2  -9    1.73    0.21
   4   2  -9    1.46    0.15
   4   2  -9    1.77    0.15
  -4  -2   9    2.28    0.21
  -4  -2   9    2.62    0.34
  -4  -2   9    2.31    0.30
   3   2  -9    8.35    0.61
   3   2  -9    8.71    0.66
   3   2  -9    8.33    0.59
   3   2  -9    8.75    0.51
   3   2  -9    9.02    0.65
   3   2  -9    8.81    0.63
  -3  -2   9   11.86    0.82
  -3  -2   9   12.41    0.93
  -3  -2   9   12.15    0.91
  -3  -2   9   12.14    0.72
   2   2  -9   29.72    1.62
   2   2  -9   30.25    1.64
   2   2  -9   27.05    1.61
   2   2  -9   28.98    1.60
   2   2  -9   29.38    1.46
   2   2  -9   31.04    1.64
  -2  -2   9   42.24    2.32
  -2  -2   9   45.07    2.21
  -2  -2   9   39.59    2.05
  -2  -2   9   42.50    2.24
  -2  -2   9   40.41    2.31
   1   2  -9   61.80    2.87
   1   2  -9   62.65    3.46
   1   2  -9   58.56    3.10
  -1  -2   9   73.11    3.77
  -1  -2   9   77.80    3.55
  -1  -2   9   75.76    3.80
  -1  -2   9   76.24    3.82
   0   2  -9    6.73    0.57
   0   2  -9    6.43    0.52
   0   2  -9    7.08    0.44
   0  -2   9    7.17    0.48
   0  -2   9    7.70    0.84
   0  -2   9    6.86    0.45
   0  -2   9    8.24    0.65
   0  -2   9    6.81    0.47
  -1   2  -9   41.44    2.16
  -1   2  -9   36.22    2.21
  -1   2  -9   41.91    1.93
   1  -2   9   46.69    2.30
   1  -2   9   50.60    2.99
   1  -2   9   46.29    2.31
   1  -2   9   44.98    2.48
   1  -2   9   50.08    2.53
  -2   2  -9   12.13    0.85
  -2   2  -9   11.13    0.98
  -2   2  -9   12.21    0.64
   2  -2   9   12.43    0.87
   2  -2   9   12.75    0.72
   2  -2   9   11.46    0.68
   2  -2   9   12.44    0.70
   2  -2   9   12.03    0.84
   2  -2   9   12.68    0.73
   2  -2   9   13.46    1.27
   2  -2   9   13.44    0.90
   2  -2   9   13.16    0.89
   2  -2   9   12.22    0.72
   2  -2   9   12.85    0.97
   3  -2   9   18.88    0.99
   3  -2   9   18.23    1.15
   3  -2   9   19.12    1.13
   3  -2   9   19.08    1.26
   3  -2   9   20.04    1.58
   3  -2   9   18.35    1.14
   3  -2   9   16.84    0.95
  -4   2  -9   17.26    0.97
   4  -2   9   15.89    1.26
   4  -2   9   15.71    0.96
   4  -2   9   16.53    0.83
   4  -2   9   16.30    0.83
   4  -2   9   15.03    0.97
   4  -2   9   17.22    1.07
   5   1  -9    4.62    0.34
   5   1  -9    4.97    0.35
   5   1  -9    5.33    0.35
  -5  -1   9    4.89    0.39
   4   1  -9    3.67    0.27
   4   1  -9    3.14    0.29
   4   1  -9    3.75    0.35
   4   1  -9    3.74    0.34
  -4  -1   9    4.54    0.47
  -4  -1   9    3.71    0.41
  -4  -1   9    4.71    0.32
   3   1  -9    0.12    0.07
   3   1  -9    0.12    0.07
   3   1  -9   -0.03    0.10
   3   1  -9    0.06    0.04
   3   1  -9    0.14    0.05
  -3  -1   9    0.15    0.08
  -3  -1   9    0.22    0.11
  -3  -1   9    0.21    0.10
   2   1  -9   15.97    0.99
   2   1  -9   15.08    0.98
   2   1  -9   15.96    0.98
   2   1  -9   15.59    1.00
  -2  -1   9   22.67    1.44
  -2  -1   9   24.00    1.39
  -2  -1   9   23.77    1.49
  -2  -1   9   23.79    1.48
  -2  -1   9   22.95    1.24
   1   1  -9    7.64    0.65
   1   1  -9    7.44    0.48
  -1  -1   9    8.32    0.71
  -1  -1   9    7.74    0.69
  -1  -1   9    8.40    0.53
   0   1  -9   12.82    0.85
   0   1  -9   14.08    0.93
   0   1  -9   13.86    0.76
   0  -1   9   17.63    0.96
   0  -1   9   17.30    1.13
   0  -1   9   17.83    1.44
   0  -1   9   16.70    0.94
   0  -1   9   18.83    1.15
   0  -1   9   16.32    1.21
  -1   1  -9   27.16    1.39
  -1   1  -9   28.51    1.60
   1  -1   9   31.07    2.15
   1  -1   9   27.56    1.47
   1  -1   9   31.83    1.71
   1  -1   9   28.42    1.68
   1  -1   9   28.82    1.47
   1  -1   9   30.00    1.50
   1  -1   9   28.52    1.63
  -2   1  -9   17.58    0.97
  -2   1  -9   19.42    1.17
   2  -1   9   19.10    1.57
   2  -1   9   18.14    1.14
   2  -1   9   16.44    1.07
   2  -1   9   19.80    1.18
   2  -1   9   19.09    0.99
   2  -1   9   18.27    0.96
   2  -1   9   15.38    1.17
   2  -1   9   17.18    0.94
   2  -1   9   18.46    1.15
   2  -1   9   18.44    0.96
  -3   1  -9   27.48    1.52
   3  -1   9   28.53    1.40
   3  -1   9   27.40    2.00
   3  -1   9   27.65    1.40
   3  -1   9   28.81    1.62
   3  -1   9   27.96    1.37
   3  -1   9   29.71    1.55
   3  -1   9   28.21    1.69
   3  -1   9   27.65    1.42
   3  -1   9   27.80    1.58
   4  -1   9    3.65    0.25
   4  -1   9    3.67    0.39
   4  -1   9    3.16    0.47
   4  -1   9    3.41    0.35
   4  -1   9    3.70    0.24
   4  -1   9    3.78    0.34
   4  -1   9    3.71    0.25
   5   0  -9    1.14    0.14
  -5   0   9    2.29    0.25
   4   0  -9    1.04    0.16
   4   0  -9    0.88    0.11
   4   0  -9    1.01    0.15
   4   0  -9    0.98    0.16
   4   0  -9    0.86    0.14
   4   0  -9    1.09    0.18
  -4   0   9    0.89    0.19
  -4   0   9    1.44    0.68
  -4   0   9    0.95    0.18
  -4   0   9    1.02    0.13
  -4   0   9    1.03    0.20
   3   0  -9    8.98    0.66
   3   0  -9    9.61    0.70
   3   0  -9    9.18    0.65
   3   0  -9    9.24    0.65
   3   0  -9    8.81    0.55
  -3   0   9   11.18    0.87
  -3   0   9   10.17    0.82
  -3   0   9   11.01    0.66
  -3   0   9   11.02    1.49
  -3   0   9   11.40    0.89
   2   0  -9   15.55    0.82
   2   0  -9   14.23    0.91
   2   0  -9   14.40    0.95
   2   0  -9   14.77    1.77
   2   0  -9   14.76    0.95
  -2   0   9   17.80    1.00
  -2   0   9   18.70    1.26
  -2   0   9   18.58    1.23
  -2   0   9   19.22    1.01
  -2   0   9   18.19    1.12
  -2   0   9   17.80    1.21
   1   0  -9    0.20    0.10
   1   0  -9    0.22    0.06
   1   0  -9    0.26    0.26
   1   0  -9    0.19    0.10
   1   0  -9    0.13    0.08
  -1   0   9    0.25    0.11
  -1   0   9    0.35    0.11
  -1   0   9    0.26    0.12
  -1   0   9    0.25    0.12
  -1   0   9    0.24    0.12
  -1   0   9    0.18    0.08
   0   0  -9    3.81    0.41
   0   0  -9    3.91    0.30
   0   0   9    3.52    0.43
   0   0   9    3.40    0.29
   0   0   9    3.69    0.42
   0   0   9    3.82    0.43
  -1   0  -9    5.28    0.46
  -1   0  -9    4.26    0.46
  -1   0  -9    4.95    0.47
   1   0   9    5.68    0.52
   1   0   9    6.06    0.55
   1   0   9    5.95    0.56
   1   0   9    6.15    0.54
   1   0   9    5.79    0.39
   1   0   9    5.91    0.41
   1   0   9    5.79    0.78
  -2   0  -9    1.75    0.25
  -2   0  -9    1.79    0.19
   2   0   9    3.01    0.36
   2   0   9    2.49    0.32
   2   0   9    2.36    0.21
   2   0   9    2.33    0.36
   2   0   9    2.40    0.23
   2   0   9    2.19    0.20
   2   0   9    2.34    0.20
   2   0   9    2.66    0.33
   2   0   9    2.57    0.52
  -3   0  -9    0.28    0.07
  -3   0  -9    0.35    0.13
   3   0   9    0.33    0.14
   3   0   9    0.49    0.09
   3   0   9    0.45    0.12
   3   0   9    0.44    0.24
   3   0   9    0.36    0.08
   3   0   9    0.40    0.14
   3   0   9    0.41    0.07
   3   0   9    0.59    0.21
   3   0   9    0.33    0.08
   3   0   9    0.43    0.14
  -4   0  -9    1.04    0.11
  -4   0  -9    1.06    0.18
   4   0   9    0.86    0.15
   4   0   9    0.80    0.15
   4   0   9    0.94    0.11
   4   0   9    1.01    0.10
   4   0   9    0.98    0.30
   4  -1  -9    7.67    0.53
   4  -1  -9    8.26    0.52
   4  -1  -9    8.65    0.56
   4  -1  -9    7.24    0.54
   4  -1  -9    9.25    0.64
   4  -1  -9    9.30    0.62
  -4   1   9   12.86    0.93
  -4   1   9   11.43    0.84
  -4   1   9   11.69    0.84
   3  -1  -9   13.86    0.83
   3  -1  -9   11.86    0.79
   3  -1  -9   13.32    0.73
   3  -1  -9   12.21    0.83
   3  -1  -9   13.75    0.89
  -3   1   9   19.95    1.06
  -3   1   9   19.33    1.30
  -3   1   9   20.99    1.33
  -3   1   9   19.89    1.26
   2  -1  -9   39.00    1.97
   2  -1  -9   34.64    1.87
   2  -1  -9   34.92    1.95
  -2   1   9   50.96    2.72
  -2   1   9   53.90    2.65
  -2   1   9   49.79    2.46
  -2   1   9   49.33    2.72
  -2   1   9   51.45    3.05
   1  -1  -9   13.86    0.92
   1  -1  -9   14.66    0.79
   1  -1  -9   13.12    0.84
  -1   1   9   16.76    1.16
  -1   1   9   17.51    1.15
  -1   1   9   16.50    0.92
  -1   1   9   17.44    0.95
  -1   1   9   16.18    1.04
  -1   1   9   15.84    1.11
   0  -1  -9   11.99    0.83
   0  -1  -9   14.84    0.94
   0  -1  -9   13.47    1.78
   0  -1  -9   13.00    0.89
   0   1   9   13.96    1.01
   0   1   9   15.19    1.03
   0   1   9   14.06    0.81
   0   1   9   13.67    0.94
   0   1   9   14.70    0.95
  -1  -1  -9    4.09    0.46
  -1  -1  -9    4.72    0.37
  -1  -1  -9    5.17    0.47
  -1  -1  -9    5.04    0.32
   1   1   9    4.90    0.50
   1   1   9    4.46    0.46
   1   1   9    5.58    0.75
   1   1   9    4.82    0.47
   1   1   9    5.08    0.37
   1   1   9    4.98    0.41
   1   1   9    5.28    0.52
  -2  -1  -9    1.02    0.22
  -2  -1  -9    1.09    0.18
  -2  -1  -9    1.41    0.15
   2   1   9    1.03    0.13
   2   1   9    1.03    0.11
   2   1   9    1.36    0.35
   2   1   9    1.02    0.19
   2   1   9    0.99    0.12
   2   1   9    1.04    0.14
   2   1   9    0.81    0.19
   2   1   9    1.10    0.20
  -3  -1  -9   20.86    0.99
  -3  -1  -9   17.47    1.19
   3   1   9   20.42    1.15
   3   1   9   18.43    0.99
   3   1   9   19.68    1.01
   3   1   9   16.92    1.13
   3   1   9   19.66    1.58
   3   1   9   18.03    1.17
   3   1   9   19.99    1.14
   3   1   9   17.91    1.12
   4   1   9    2.04    0.17
   4   1   9    2.23    0.17
   4   1   9    2.25    0.26
   4   1   9    2.27    0.16
   4   1   9    2.25    0.16
   4   1   9    1.88    0.22
   4   1   9    2.22    0.24
   4  -2  -9    4.94    0.43
   4  -2  -9    6.28    0.43
   4  -2  -9    5.25    0.35
   4  -2  -9    6.22    0.41
  -4   2   9    8.44    0.60
  -4   2   9    6.14    0.46
  -4   2   9    7.41    0.59
   3  -2  -9    6.00    0.48
   3  -2  -9    5.23    0.47
   3  -2  -9    5.42    0.38
   3  -2  -9    5.75    0.50
  -3   2   9    6.10    0.77
  -3   2   9    6.54    0.60
  -3   2   9    5.70    0.52
  -3   2   9    6.31    0.46
   2  -2  -9    9.63    0.65
   2  -2  -9   10.41    0.73
   2  -2  -9    9.46    0.70
  -2   2   9   14.13    0.79
  -2   2   9   13.71    1.02
  -2   2   9   14.83    1.00
  -2   2   9   13.69    1.02
   1  -2  -9    1.82    0.26
   1  -2  -9    1.79    0.19
  -1   2   9    1.73    0.35
  -1   2   9    1.75    0.30
  -1   2   9    1.82    0.21
  -1   2   9    1.57    0.27
  -1   2   9    1.96    0.20
   0  -2  -9   21.89    2.42
   0  -2  -9   24.73    1.24
   0  -2  -9   23.56    1.40
   0  -2  -9   26.43    1.41
   0   2   9   27.46    1.54
   0   2   9   28.15    1.64
   0   2   9   26.78    1.40
   0   2   9   27.23    1.65
   0   2   9   28.15    1.61
   0   2   9   27.19    1.41
  -1  -2  -9   20.52    1.35
  -1  -2  -9   22.07    1.33
   1   2   9   25.16    1.33
   1   2   9   24.69    1.54
   1   2   9   26.82    1.54
   1   2   9   27.61    1.64
   1   2   9   25.40    1.55
  -2  -2  -9    8.19    0.67
  -2  -2  -9    7.26    1.24
  -2  -2  -9    7.82    0.46
   2   2   9    9.07    0.66
   2   2   9    8.95    0.54
   2   2   9    8.84    0.50
   2   2   9    8.45    0.49
   2   2   9    9.05    0.70
   2   2   9    8.65    0.52
   2   2   9    8.50    0.69
  -3  -2  -9    4.34    0.28
  -3  -2  -9    3.23    0.27
  -3  -2  -9    4.51    0.44
   3   2   9    5.62    0.33
   3   2   9    5.11    0.34
   3   2   9    4.92    0.46
   3   2   9    5.39    0.34
   3   2   9    5.20    0.33
   3   2   9    5.34    0.48
   3   2   9    5.39    0.47
   3   2   9    5.64    0.46
  -4  -2  -9    1.65    0.20
   4   2   9    3.30    0.21
   4   2   9    3.32    0.20
   4   2   9    2.92    0.22
   4  -3  -9    5.21    0.34
   4  -3  -9    4.33    0.34
   4  -3  -9    4.83    0.31
  -4   3   9    5.62    0.50
  -4   3   9    7.29    0.44
  -4   3   9    7.47    0.51
   3  -3  -9    4.60    0.36
   3  -3  -9    4.86    0.33
   3  -3  -9    5.40    0.42
  -3   3   9    6.19    0.57
  -3   3   9    5.78    0.42
  -3   3   9    6.27    0.38
  -3   3   9    5.71    0.53
   2  -3  -9    7.19    0.53
   2  -3  -9    5.13    1.05
  -2   3   9    8.46    0.50
  -2   3   9    7.94    0.69
  -2   3   9    7.70    0.62
  -2   3   9    8.09    0.70
   1  -3  -9    1.43    0.21
   1  -3  -9    1.66    0.27
   1  -3  -9    1.49    0.79
  -1   3   9    2.23    0.32
  -1   3   9    2.35    0.22
  -1   3   9    2.54    0.35
  -1   3   9    2.47    0.33
   0  -3  -9    5.52    0.51
   0  -3  -9    6.89    1.25
   0  -3  -9    6.30    0.49
   0   3   9    7.48    0.63
   0   3   9    7.28    0.46
   0   3   9    6.09    0.58
   0   3   9    6.90    0.63
  -1  -3  -9    2.37    0.19
  -1  -3  -9    1.96    0.67
  -1  -3  -9    2.54    0.33
   1   3   9    3.56    0.42
   1   3   9    3.14    0.37
   1   3   9    2.86    0.33
   1   3   9    3.10    0.37
   1   3   9    3.34    0.27
   1   3   9    3.10    0.23
   1   3   9    2.48    0.29
  -2  -3  -9    0.25    0.11
  -2  -3  -9    0.24    0.07
  -2  -3  -9    0.19    0.08
  -2  -3  -9    0.13    0.29
   2   3   9    0.08    0.07
   2   3   9    0.15    0.10
   2   3   9    0.09    0.05
   2   3   9   -0.01    0.05
   2   3   9    0.11    0.04
   2   3   9    0.06    0.06
   2   3   9    0.17    0.06
  -3  -3  -9    1.33    0.20
  -3  -3  -9    0.95    0.13
  -3  -3  -9    0.87    0.32
  -3  -3  -9    1.14    0.12
   3   3   9    1.60    0.21
   3   3   9    1.85    0.15
   3   3   9    1.65    0.27
   3   3   9    1.89    0.24
   3   3   9    1.39    0.16
   3   3   9    1.66    0.19
   3   3   9    1.62    0.13
   4  -4  -9    1.10    0.13
  -4   4   9    1.55    0.22
   3  -4  -9   25.68    1.23
   3  -4  -9   23.95    1.30
  -3   4   9   42.80    2.07
  -3   4   9   36.18    1.85
  -3   4   9   35.82    1.98
   2  -4  -9   18.82    1.08
  -2   4   9   18.68    1.25
  -2   4   9   22.91    1.32
  -2   4   9   20.42    1.03
   1  -4  -9    3.02    0.35
   1  -4  -9    2.62    0.32
  -1   4   9    3.70    0.42
  -1   4   9    3.50    0.46
  -1   4   9    3.65    0.45
  -1   4   9    3.84    0.29
   0   4   9    5.15    0.51
   0   4   9    4.41    0.45
   0   4   9    5.26    0.35
   0   4   9    4.65    0.45
  -1  -4  -9   12.60    0.63
  -1  -4  -9   11.48    0.92
   1   4   9   15.87    0.78
   1   4   9   14.31    0.94
   1   4   9   15.74    0.99
  -2  -4  -9   28.25    1.31
  -2  -4  -9   22.54    2.19
  -2  -4  -9   27.54    1.50
  -2  -4  -9   28.64    1.29
   2   4   9   31.77    1.55
   2   4   9   31.29    1.66
   2   4   9   34.11    1.58
   2   4   9   31.00    1.73
   2   4   9   34.68    1.55
   3   4   9   11.82    0.65
   3   4   9   11.76    0.59
   3   4   9   10.52    0.57
  -3   5   9    5.92    0.47
  -2   5   9    4.75    0.45
  -2   5   9    5.05    0.44
   1  -5  -9    2.77    0.70
   1  -5  -9    3.39    0.32
  -1   5   9    4.46    0.44
  -1   5   9    5.59    0.49
   0   5   9   11.67    0.63
   0   5   9   10.42    0.77
   0   5   9   12.86    0.85
  -1  -5  -9    6.16    0.51
  -1  -5  -9    6.82    0.37
   1   5   9    8.26    0.47
   1   5   9    7.77    0.57
  -2  -5  -9   34.81    1.62
   2  -6  -9    0.80    0.39
  -2   6   9    6.11    0.50
  -1  -6  -9    2.70    0.27
   1   6   9    0.01    0.06
   1   8 -10    0.72    0.12
  -1  -8  10    1.08    0.11
  -1  -8  10    1.02    0.15
   0   8 -10    2.18    0.21
   0   8 -10    1.80    0.21
   0  -8  10    2.81    0.21
  -1   8 -10    4.09    0.32
  -1   8 -10    3.50    0.35
   1  -8  10    3.72    0.23
   1  -8  10    2.58    0.30
   2  -8  10    3.69    0.23
   2   7 -10    0.86    0.12
   2   7 -10    0.86    0.14
  -2  -7  10    1.44    0.13
  -2  -7  10    1.16    0.17
   1   7 -10    2.32    0.24
   1   7 -10    2.29    0.25
  -1  -7  10    2.67    0.20
  -1  -7  10    2.21    0.26
   0   7 -10    3.98    0.36
   0   7 -10    4.32    0.36
   0  -7  10    5.40    0.44
   0  -7  10    5.19    0.35
  -1   7 -10    3.37    0.31
  -1   7 -10    3.14    0.32
  -1   7 -10    3.98    0.34
   1  -7  10    3.32    0.29
   1  -7  10    3.20    0.36
   1  -7  10    3.58    0.25
  -2   7 -10    3.48    0.30
  -2   7 -10    3.37    0.33
   2  -7  10    3.08    0.34
   2  -7  10    3.29    0.25
   3   6 -10    6.89    0.47
   2   6 -10   28.29    1.54
   2   6 -10   29.79    1.50
  -2  -6  10   41.01    2.09
  -2  -6  10   39.58    2.00
  -2  -6  10   40.05    1.89
   1   6 -10   22.79    1.29
  -1  -6  10   31.72    1.57
  -1  -6  10   33.09    1.87
   0   6 -10    3.55    0.33
   0   6 -10    4.10    0.37
   0   6 -10    3.54    0.35
   0  -6  10    6.37    0.41
   0  -6  10    6.51    0.53
  -1   6 -10    0.18    0.07
   1  -6  10    0.19    0.09
   1  -6  10    0.25    0.10
  -2   6 -10   13.41    0.86
  -2   6 -10   14.55    0.85
   2  -6  10   14.88    0.99
   2  -6  10   16.82    0.80
   2  -6  10   13.26    0.89
   2  -6  10   14.25    0.84
  -3   6 -10    7.99    0.54
   3  -6  10    8.83    0.58
   3  -6  10    9.32    0.96
   3  -6  10    8.78    0.48
   3  -6  10    8.65    0.64
   3   5 -10    0.89    0.13
  -3  -5  10    0.66    0.18
  -3  -5  10    0.75    0.10
   2   5 -10    3.96    0.42
   2   5 -10    3.77    0.36
  -2  -5  10    5.08    0.34
  -2  -5  10    5.51    0.51
  -2  -5  10    5.08    0.46
  -2  -5  10    4.62    0.31
   1   5 -10    1.23    0.19
   1   5 -10    1.14    0.19
   1   5 -10    1.11    0.18
  -1  -5  10    2.00    0.28
  -1  -5  10    1.49    0.31
  -1  -5  10    1.91    0.22
  -1  -5  10    2.03    0.19
   0   5 -10   13.15    0.84
   0   5 -10   12.93    0.83
   0   5 -10   11.90    0.80
   0  -5  10   14.93    0.80
   0  -5  10   13.89    0.95
  -1   5 -10   19.14    1.16
  -1   5 -10   19.71    1.14
   1  -5  10   19.83    1.05
   1  -5  10   20.89    1.22
  -2   5 -10    5.58    0.44
  -2   5 -10    5.52    0.56
   2  -5  10    4.56    0.40
   2  -5  10    4.71    0.56
   2  -5  10    5.09    0.59
   2  -5  10    4.77    0.48
  -3   5 -10    4.02    0.36
  -3   5 -10    3.64    0.30
   3  -5  10    4.26    0.52
   3  -5  10    4.91    0.40
   3  -5  10    4.30    0.43
   3  -5  10    4.60    0.30
   4   4 -10    7.46    0.48
   3   4 -10    3.56    0.30
   3   4 -10    2.64    0.29
  -3  -4  10    4.46    0.31
  -3  -4  10    3.84    0.37
  -3  -4  10    4.57    0.41
  -3  -4  10    4.32    0.42
   2   4 -10   14.57    0.91
   2   4 -10   14.49    0.89
   2   4 -10   13.99    0.84
  -2  -4  10   17.06    1.11
  -2  -4  10   17.22    1.09
  -2  -4  10   17.79    0.94
   1   4 -10   14.78    0.96
   1   4 -10   17.19    0.99
   1   4 -10   15.02    0.96
  -1  -4  10   19.30    1.00
  -1  -4  10   18.95    1.21
  -1  -4  10   19.32    1.21
  -1  -4  10   19.88    1.02
   0   4 -10   11.86    0.82
   0   4 -10   12.13    0.80
   0  -4  10   12.40    0.69
   0  -4  10   11.61    0.82
   0  -4  10   13.59    0.91
   0  -4  10   11.97    0.68
  -1   4 -10   16.53    1.02
  -1   4 -10   17.45    1.08
   1  -4  10   15.55    0.86
   1  -4  10   14.97    1.25
   1  -4  10   17.54    1.06
  -2   4 -10    0.07    0.23
  -2   4 -10    0.76    0.49
   2  -4  10    0.10    0.05
   2  -4  10    0.20    0.08
   2  -4  10    0.12    0.07
   2  -4  10    0.14    0.12
   2  -4  10    0.16    0.13
  -3   4 -10    0.29    0.10
  -3   4 -10   -0.04    0.28
   3  -4  10    0.73    0.21
   3  -4  10    0.52    0.11
   3  -4  10    0.61    0.09
   3  -4  10    0.54    0.07
   3  -4  10    0.60    0.13
   3  -4  10    0.62    0.14
   3  -4  10    0.48    0.15
  -4   4 -10    4.90    0.71
   4  -4  10    2.93    0.38
   4  -4  10    3.78    0.36
   4  -4  10    3.62    0.21
   4   3 -10    0.98    0.13
   4   3 -10    0.91    0.25
  -4  -3  10    2.28    0.25
   3   3 -10   16.26    0.99
   3   3 -10   17.90    0.99
  -3  -3  10   25.98    1.38
  -3  -3  10   22.42    1.41
  -3  -3  10   25.79    1.26
  -3  -3  10   24.03    1.43
   2   3 -10   30.18    1.55
   2   3 -10   24.02    1.50
   2   3 -10   30.39    1.53
  -2  -3  10   38.18    2.09
  -2  -3  10   33.40    2.14
  -2  -3  10   39.99    2.05
  -2  -3  10   38.65    1.86
   1   3 -10    0.51    0.13
   1   3 -10    0.34    0.14
  -1  -3  10    0.25    0.12
  -1  -3  10    0.21    0.08
  -1  -3  10    0.16    0.09
   0   3 -10   10.42    0.76
   0   3 -10   10.66    0.85
   0  -3  10   10.00    0.85
   0  -3  10   11.05    0.81
  -1   3 -10    7.48    0.55
  -1   3 -10    7.17    0.60
   1  -3  10    9.64    0.73
   1  -3  10    8.90    0.54
   1  -3  10   10.08    0.57
   1  -3  10    9.95    0.98
   1  -3  10    8.60    0.67
  -2   3 -10   15.62    1.00
   2  -3  10   19.86    1.18
   2  -3  10   19.28    1.51
   2  -3  10   19.96    1.00
   2  -3  10   17.34    1.20
  -3   3 -10   11.38    0.75
   3  -3  10    8.78    0.60
   3  -3  10    8.39    0.67
   3  -3  10    7.70    0.50
   3  -3  10    9.29    0.61
  -4   3 -10    3.05    0.57
   4  -3  10    1.47    0.19
   4  -3  10    1.37    0.16
   4  -3  10    1.33    0.25
   4   2 -10    1.46    0.17
   4   2 -10    2.05    0.36
   4   2 -10    1.57    0.18
  -4  -2  10    1.86    0.30
  -4  -2  10    1.65    0.23
  -4  -2  10    2.19    0.17
   3   2 -10    0.75    0.13
   3   2 -10    1.01    0.16
   3   2 -10    0.82    0.14
   3   2 -10    0.94    0.15
  -3  -2  10    1.70    0.18
  -3  -2  10    1.36    0.20
  -3  -2  10    1.38    0.23
  -3  -2  10    1.67    0.26
  -3  -2  10    1.63    0.25
   2   2 -10    6.00    0.48
   2   2 -10    5.15    0.45
   2   2 -10    6.14    0.48
  -2  -2  10   10.03    0.76
  -2  -2  10    9.13    0.76
  -2  -2  10    9.25    0.71
  -2  -2  10    9.88    0.60
   1   2 -10   18.54    1.18
  -1  -2  10   22.83    1.75
  -1  -2  10   24.88    1.47
  -1  -2  10   28.68    1.77
  -1  -2  10   22.45    1.48
   0   2 -10   45.59    2.34
   0   2 -10   42.76    2.24
   0  -2  10   47.75    2.40
   0  -2  10   53.74    2.66
   0  -2  10   49.24    2.63
  -1   2 -10    4.89    0.41
  -1   2 -10    4.72    0.53
   1  -2  10    5.68    0.38
   1  -2  10    5.54    0.73
   1  -2  10    5.29    0.50
   1  -2  10    5.08    0.36
  -2   2 -10   24.73    1.42
   2  -2  10   28.54    1.58
   2  -2  10   29.47    1.39
   2  -2  10   29.06    2.00
   2  -2  10   27.33    1.53
   2  -2  10   24.78    1.58
  -3   2 -10    2.22    0.25
   3  -2  10    3.32    0.24
   3  -2  10    3.07    0.21
   3  -2  10    2.60    0.29
   3  -2  10    3.20    0.33
   3  -2  10    3.49    0.52
   3  -2  10    3.21    0.24
  -4   2 -10    0.81    0.29
  -4   2 -10    0.48    0.12
   4  -2  10    0.89    0.16
   4  -2  10    0.78    0.08
   4  -2  10    0.69    0.17
   4  -2  10    0.55    0.11
   4  -2  10    0.85    0.09
   4   1 -10   10.70    0.60
   4   1 -10    8.87    0.59
   4   1 -10    9.05    0.57
  -4  -1  10   12.65    0.84
  -4  -1  10   13.72    0.70
   3   1 -10    2.75    0.28
   3   1 -10    2.60    0.27
   3   1 -10    2.78    0.29
   3   1 -10    3.09    0.32
  -3  -1  10    3.26    0.27
  -3  -1  10    2.90    0.35
  -3  -1  10    3.05    0.37
  -3  -1  10    2.94    0.35
   2   1 -10    6.26    0.50
   2   1 -10    6.23    0.50
   2   1 -10    6.12    0.51
  -2  -1  10    8.93    0.72
  -2  -1  10    8.43    0.53
  -2  -1  10    8.60    0.71
  -2  -1  10    6.67    0.58
  -2  -1  10    7.68    0.63
   1   1 -10    2.80    0.74
  -1  -1  10    9.17    0.73
  -1  -1  10    8.76    0.63
  -1  -1  10    8.80    0.94
   0  -1  10    2.64    0.34
   0  -1  10    2.95    0.36
   0  -1  10    2.77    0.25
   0  -1  10    2.88    0.36
  -1   1 -10    7.06    0.59
   1  -1  10    7.84    0.51
   1  -1  10    8.41    0.50
   1  -1  10    9.12    0.95
   1  -1  10    7.93    0.66
   1  -1  10    8.16    0.66
  -2   1 -10    0.65    0.16
  -2   1 -10    0.99    0.49
  -2   1 -10    0.56    0.13
   2  -1  10    0.56    0.22
   2  -1  10    0.49    0.16
   2  -1  10    0.55    0.13
   2  -1  10    0.40    0.09
   2  -1  10    0.47    0.15
   2  -1  10    0.44    0.10
  -3   1 -10    5.08    0.33
  -3   1 -10    5.69    0.48
  -3   1 -10    4.98    0.41
   3  -1  10    6.61    0.51
   3  -1  10    6.78    0.51
   3  -1  10    6.55    0.54
   3  -1  10    6.31    0.36
   3  -1  10    6.22    0.73
   3  -1  10    6.35    0.39
  -4   1 -10    0.66    0.12
   4  -1  10    0.96    0.10
   4  -1  10    0.89    0.14
   4  -1  10    0.98    0.13
   4  -1  10    0.67    0.18
   4   0 -10    0.40    0.09
   4   0 -10    0.34    0.07
   4   0 -10    0.29    0.08
  -4   0  10    1.02    0.17
  -4   0  10    0.91    0.10
   3   0 -10    6.96    0.54
   3   0 -10    7.99    0.54
   3   0 -10    8.26    0.58
  -3   0  10   13.00    0.70
  -3   0  10   12.34    0.89
  -3   0  10   11.69    0.85
  -3   0  10   12.44    0.86
   2   0 -10   14.66    0.92
   2   0 -10   15.47    0.96
   2   0 -10   15.33    0.91
  -2   0  10   22.01    1.14
  -2   0  10   21.83    1.36
  -2   0  10   20.88    1.36
  -2   0  10   20.97    1.31
   1   0 -10    1.41    0.54
   1   0 -10    1.80    0.23
   1   0 -10    2.00    0.27
  -1   0  10    1.74    0.28
  -1   0  10    1.69    0.28
  -1   0  10    1.78    0.25
  -1   0  10    1.59    0.20
   0   0 -10    0.43    0.39
   0   0  10    0.72    0.23
   0   0  10    0.84    0.19
   0   0  10    0.95    0.21
  -1   0 -10    3.10    0.34
  -1   0 -10    2.73    0.32
   1   0  10    2.86    0.33
   1   0  10    2.70    0.34
   1   0  10    2.55    0.31
   1   0  10    2.57    0.23
   1   0  10    2.46    0.30
  -2   0 -10    9.27    0.78
  -2   0 -10    9.11    0.70
   2   0  10   10.17    0.73
   2   0  10    9.68    0.53
   2   0  10   10.06    0.71
   2   0  10   10.07    1.01
   2   0  10    9.91    0.57
   2   0  10   10.08    0.76
   2   0  10    9.11    0.64
  -3   0 -10    1.85    0.25
   3   0  10    1.40    0.14
   3   0  10    1.55    0.22
   3   0  10    1.66    0.14
   3   0  10    1.67    0.14
   3   0  10    1.19    0.19
   3   0  10    1.61    0.33
   3   0  10    1.29    0.19
   3   0  10    1.54    0.14
   4   0  10    1.03    0.21
   4  -1 -10    1.39    0.19
   4  -1 -10    1.63    0.16
   4  -1 -10    1.88    0.20
  -4   1  10    1.45    0.20
   3  -1 -10    8.58    0.59
   3  -1 -10    8.95    0.61
  -3   1  10   13.18    0.91
  -3   1  10   12.73    0.89
  -3   1  10   12.51    0.85
  -3   1  10   13.48    0.71
   2  -1 -10    8.87    0.80
   2  -1 -10   10.05    0.69
  -2   1  10   12.60    0.90
  -2   1  10   11.74    0.90
  -2   1  10   12.81    0.90
  -2   1  10   13.32    0.73
   1  -1 -10   23.30    1.33
  -1   1  10   29.47    1.69
  -1   1  10   30.64    1.46
  -1   1  10   27.38    1.55
  -1   1  10   26.95    1.61
  -1   1  10   29.83    1.71
   0  -1 -10   32.85    1.79
   0   1  10   33.35    1.84
   0   1  10   34.75    1.93
   0   1  10   34.54    1.94
   0   1  10   34.72    1.71
  -1  -1 -10    2.22    0.29
  -1  -1 -10    2.37    0.29
   1   1  10    2.32    0.29
   1   1  10    1.82    0.26
   1   1  10    2.19    0.31
   1   1  10    2.16    0.21
   1   1  10    2.28    0.31
  -2  -1 -10    8.22    0.45
  -2  -1 -10    8.09    0.63
  -2  -1 -10    7.52    0.55
   2   1  10    9.87    0.73
   2   1  10   11.05    0.67
   2   1  10   10.01    0.73
   2   1  10   11.32    0.80
   2   1  10    9.94    0.55
   2   1  10   10.12    0.55
   3   1  10    4.25    0.39
   3   1  10    5.55    0.47
   3   1  10    5.45    0.31
   3   1  10    5.30    0.32
   3   1  10    5.50    0.31
   3   1  10    5.35    0.31
  -4   2  10    9.69    0.82
   3  -2 -10    3.64    0.29
   3  -2 -10    4.15    0.34
  -3   2  10    3.67    0.43
  -3   2  10    4.03    0.41
  -3   2  10    4.47    0.27
   2  -2 -10    0.46    0.14
   2  -2 -10    0.61    0.14
  -2   2  10    0.39    0.13
  -2   2  10    0.47    0.13
  -2   2  10    0.58    0.09
  -2   2  10    0.44    0.15
  -1   2  10    6.28    0.59
  -1   2  10    6.56    0.57
  -1   2  10    6.82    0.57
  -1   2  10    6.70    0.44
   0  -2 -10    9.79    0.80
   0  -2 -10   10.24    0.69
   0   2  10    9.20    0.77
   0   2  10   11.55    0.63
   0   2  10   10.37    0.79
   0   2  10   10.52    0.79
  -1  -2 -10    7.02    1.21
  -1  -2 -10    9.37    0.79
  -1  -2 -10    8.74    0.58
   1   2  10   10.58    0.75
   1   2  10   10.63    0.62
   1   2  10   10.27    0.79
  -2  -2 -10    2.54    0.18
  -2  -2 -10    2.21    0.28
   2   2  10    3.00    0.33
   2   2  10    3.38    0.32
   2   2  10    3.31    0.35
   2   2  10    3.45    0.25
   2   2  10    2.97    0.23
   3   2  10    3.60    0.30
   3   2  10    3.88    0.26
   3   2  10    3.17    0.23
   3   2  10    3.06    0.30
  -3   3  10    3.26    0.33
  -3   3  10    3.57    0.34
  -2   3  10    5.01    0.46
  -2   3  10    4.16    0.39
  -2   3  10    4.49    0.30
  -2   3  10    3.98    0.41
   1  -3 -10    1.25    0.48
   1  -3 -10    1.77    0.22
  -1   3  10    1.71    0.25
  -1   3  10    2.32    0.31
  -1   3  10    2.10    0.27
  -1   3  10    2.11    0.19
   0  -3 -10    3.94    0.37
   0  -3 -10    4.09    0.35
   0   3  10    4.79    0.48
   0   3  10    5.35    0.48
   0   3  10    5.49    0.36
  -1  -3 -10    2.88    0.70
   1   3  10    7.64    0.56
   1   3  10    9.36    0.51
   1   3  10    8.08    0.63
  -2  -3 -10    4.59    0.27
  -2  -3 -10    4.87    0.41
   2   3  10    4.37    0.51
   2   3  10    3.53    0.32
   2   3  10    4.82    0.26
  -3   4  10    4.09    0.39
  -2   4  10    2.98    0.31
  -2   4  10    2.78    0.30
  -1   4  10    2.07    0.30
  -1   4  10    1.96    0.17
   0   4  10    2.92    0.29
   0   4  10    2.98    0.22
   0   4  10    2.38    0.28
  -1  -4 -10    6.61    0.49
  -2  -4 -10    1.86    0.20
   2  -5 -10    0.25    0.25
   1  -5 -10    0.22    0.24
   0  -5 -10    0.19    0.20
   0   5  10    0.16    0.08
  -1  -7  11   18.59    1.04
   0   7 -11    2.58    0.23
   0  -7  11    3.38    0.21
   0  -7  11    2.63    0.25
  -1   7 -11    8.69    0.53
   1  -7  11   11.21    0.59
   2   6 -11    3.89    0.30
  -2  -6  11    6.63    0.47
   1   6 -11   15.19    0.85
  -1  -6  11   20.98    1.02
   0   6 -11   10.37    0.62
   0   6 -11    8.39    0.57
   0  -6  11   10.98    0.81
  -1   6 -11    4.85    0.48
  -1   6 -11    3.98    0.34
   1  -6  11    5.11    0.40
   1  -6  11    5.74    0.43
  -2   6 -11    0.21    0.07
   2  -6  11    0.08    0.03
   2   5 -11    5.19    0.40
   2   5 -11    4.66    0.36
  -2  -5  11    7.27    0.39
  -2  -5  11    6.16    0.50
   1   5 -11   11.47    0.69
   1   5 -11   12.08    0.73
  -1  -5  11   14.41    0.89
  -1  -5  11   13.22    0.71
   0   5 -11    4.67    0.40
   0   5 -11    5.31    0.41
   0  -5  11    5.15    0.32
   0  -5  11    4.27    0.41
  -1   5 -11    6.91    0.51
  -1   5 -11    6.52    0.48
   1  -5  11    8.53    0.60
   1  -5  11    8.51    0.49
  -2   5 -11    2.72    0.23
  -2   5 -11    2.30    0.25
   2  -5  11    2.29    0.23
   2  -5  11    2.51    0.19
   3  -5  11    1.13    0.13
   3   4 -11   10.52    0.61
  -3  -4  11   12.46    0.74
  -3  -4  11   13.09    0.74
   2   4 -11    9.99    0.61
   2   4 -11   10.55    0.65
  -2  -4  11   12.85    0.84
  -2  -4  11   13.89    0.75
  -2  -4  11   13.49    0.87
   1   4 -11    6.10    0.46
   1   4 -11    5.93    0.46
  -1  -4  11    7.55    0.61
  -1  -4  11    8.02    0.61
  -1  -4  11    8.48    0.48
   0   4 -11   10.66    0.70
   0   4 -11   11.19    0.74
   0  -4  11   14.35    0.73
   0  -4  11   12.75    0.97
  -1   4 -11   10.90    0.73
  -1   4 -11   10.58    0.68
   1  -4  11   13.40    0.85
   1  -4  11   12.80    0.70
  -2   4 -11    6.90    0.51
  -2   4 -11    6.13    0.42
   2  -4  11    6.84    0.39
   2  -4  11    6.64    0.64
   2  -4  11    5.38    0.49
  -3   4 -11   15.61    0.87
   3  -4  11   16.05    1.08
   3  -4  11   17.23    0.83
   3   3 -11    7.38    0.48
   3   3 -11    8.28    0.50
  -3  -3  11    8.81    0.57
   2   3 -11    2.98    0.28
   2   3 -11    2.64    0.26
  -2  -3  11    3.98    0.28
  -2  -3  11    3.48    0.34
  -2  -3  11    3.35    0.35
  -2  -3  11    3.42    0.37
   1   3 -11   20.22    1.21
  -1  -3  11   26.53    1.35
  -1  -3  11   27.90    1.55
   0   3 -11    7.10    0.56
   0  -3  11    9.47    0.55
   0  -3  11    9.58    0.54
   0  -3  11    8.90    0.68
   0  -3  11   10.66    0.73
  -1   3 -11   34.28    1.70
  -1   3 -11   32.11    1.99
   1  -3  11   41.09    1.96
   1  -3  11   41.31    2.33
  -2   3 -11    2.24    0.26
   2  -3  11    2.37    0.27
   2  -3  11    2.50    0.20
   2  -3  11    2.18    0.36
   3  -3  11   11.71    0.59
   3  -3  11   11.19    0.87
   3  -3  11   11.50    0.75
   3   2 -11   10.60    0.60
   3   2 -11    8.43    0.64
  -3  -2  11   13.70    0.71
  -3  -2  11   13.06    0.83
   2   2 -11    7.40    0.55
   2   2 -11    8.79    0.56
  -2  -2  11   11.72    0.62
  -2  -2  11    9.85    0.88
  -2  -2  11   11.11    0.78
  -2  -2  11    9.69    0.69
   1   2 -11   14.80    0.92
  -1  -2  11   17.97    1.08
  -1  -2  11   19.33    1.21
  -1  -2  11   18.08    1.04
  -1  -2  11   16.26    1.26
   0   2 -11    0.51    0.29
   0   2 -11    0.33    0.11
   0  -2  11    0.92    0.13
   0  -2  11    1.06    0.19
   0  -2  11    0.95    0.21
  -1   2 -11   17.49    1.11
   1  -2  11   20.73    1.03
   1  -2  11   21.15    1.03
   1  -2  11   19.24    1.18
  -2   2 -11    6.57    0.50
   2  -2  11    6.93    0.75
   2  -2  11    8.41    0.59
   2  -2  11    8.72    0.46
  -3   2 -11    3.36    0.27
   3  -2  11    4.23    0.49
   3  -2  11    4.43    0.27
   3  -2  11    4.53    0.34
   3   1 -11    5.88    0.39
   3   1 -11    4.95    0.37
  -3  -1  11    7.72    0.44
  -3  -1  11    7.16    0.55
   2   1 -11    0.18    0.07
   2   1 -11    0.14    0.07
  -2  -1  11    0.16    0.12
  -2  -1  11    0.14    0.08
  -2  -1  11    0.31    0.12
  -2  -1  11    0.19    0.06
   1   1 -11    5.35    0.41
   1   1 -11    5.12    0.44
  -1  -1  11    7.67    0.61
  -1  -1  11    7.33    0.65
  -1  -1  11    7.39    0.58
  -1  -1  11    8.06    0.56
   0   1 -11    6.30    0.52
   0  -1  11    7.73    0.72
   0  -1  11    6.86    0.45
   0  -1  11    7.31    0.57
   1  -1  11   13.68    0.73
   1  -1  11   14.05    0.94
   1  -1  11   12.45    0.86
  -2   1 -11   16.69    0.98
  -2   1 -11   17.28    0.98
   2  -1  11   16.76    1.05
   2  -1  11   21.75    1.08
   2  -1  11   20.27    0.96
   2  -1  11   18.88    1.11
  -3   1 -11    1.03    0.34
   3  -1  11    5.46    0.31
   3  -1  11    5.28    0.39
   3   0 -11   14.18    0.75
   3   0 -11   12.07    0.74
  -3   0  11   14.38    0.88
  -3   0  11   13.66    0.88
   2   0 -11    1.14    0.16
   2   0 -11    1.23    0.18
  -2   0  11    2.05    0.28
  -2   0  11    2.15    0.19
  -2   0  11    2.17    0.28
   1   0 -11    7.52    0.57
   1   0 -11    8.30    0.52
  -1   0  11   11.56    0.82
  -1   0  11   10.43    0.72
  -1   0  11   12.04    0.69
  -1   0  11   11.59    0.80
   0   0  11    3.69    0.36
   0   0  11    3.82    0.40
   0   0  11    3.34    0.36
   1   0  11   15.89    0.83
   1   0  11   14.98    0.97
   1   0  11   15.83    0.96
  -2   0 -11    3.66    0.30
  -2   0 -11    3.11    0.30
   2   0  11    3.34    0.22
   2   0  11    3.79    0.24
   2   0  11    2.85    0.29
   2   0  11    3.00    0.30
  -3   0 -11    0.00    0.11
   3   0  11    0.07    0.05
   3  -1 -11    6.13    0.41
  -3   1  11   11.24    0.58
  -3   1  11   11.20    0.72
   2  -1 -11    8.49    0.51
   2  -1 -11    7.74    0.54
  -2   1  11   10.76    0.72
  -2   1  11    8.93    0.70
  -2   1  11    9.53    0.66
  -2   1  11   11.75    0.59
  -1   1  11   12.02    0.65
  -1   1  11   11.07    0.79
  -1   1  11   10.90    0.79
   0   1  11    5.03    0.34
   0   1  11    4.98    0.46
   0   1  11    4.78    0.44
   0   1  11    4.86    0.40
  -1  -1 -11    1.22    0.45
   1   1  11    4.51    0.41
   1   1  11    4.78    0.31
   1   1  11    3.62    0.35
   2   1  11    6.49    0.46
   2   1  11    6.48    0.38
  -2   2  11    7.89    0.59
  -2   2  11    9.25    0.47
  -2   2  11    7.22    0.58
   1  -2 -11    1.26    0.45
  -1   2  11    4.49    0.29
  -1   2  11    4.56    0.41
  -1   2  11    3.54    0.37
   0  -2 -11    9.98    0.62
   0  -2 -11    9.76    1.30
   0   2  11   15.65    0.81
   0   2  11   16.71    1.04
   0   2  11   13.94    0.94
  -1  -2 -11    2.00    0.66
  -1  -2 -11    2.11    0.26
   1   2  11    2.50    0.37
   1   2  11    2.32    0.23
  -2  -2 -11    1.10    0.37
   2  -3 -11    0.35    0.08
  -2   3  11    0.68    0.15
  -1   3  11   11.40    0.74
  -1   3  11   10.92    0.59
   0  -3 -11    1.34    0.43
  -1  -3 -11    0.46    0.30
   1   3  11    2.81    0.20
  -1  -5  12    4.53    0.38
   0   5 -12    2.99    0.25
   0   5 -12    3.52    0.27
   0  -5  12    3.07    0.28
  -1   5 -12    8.68    0.54
   1  -5  12   10.94    0.64
   2   4 -12    0.82    0.11
   1   4 -12    0.22    0.07
  -1  -4  12    0.39    0.09
   0   4 -12    1.03    0.13
   0   4 -12    0.81    0.13
   0  -4  12    1.96    0.23
  -1   4 -12    4.67    0.37
   1  -4  12    4.65    0.37
  -2   4 -12    7.71    0.64
  -2  -3  12   25.93    1.27
   1   3 -12    4.27    0.32
   1   3 -12    3.82    0.32
  -1  -3  12    4.22    0.26
  -1  -3  12    3.28    0.32
   0   3 -12   12.24    0.80
   0   3 -12   13.91    0.74
   0  -3  12   16.99    0.97
   0  -3  12   22.41    1.18
  -1   3 -12   15.51    0.89
   1  -3  12   18.42    1.04
   1  -3  12   18.43    0.92
  -2   3 -12    5.79    0.40
   2   2 -12    2.30    0.22
  -2  -2  12    3.78    0.25
   1   2 -12    2.34    0.24
   1   2 -12    2.49    0.22
  -1  -2  12    3.02    0.28
  -1  -2  12    2.94    0.22
   0   2 -12   15.61    0.93
   0  -2  12   25.97    1.19
   0  -2  12   22.81    1.36
   1  -2  12   14.38    0.74
   1  -2  12   12.12    0.78
   2  -2  12   12.87    0.77
   2   1 -12    5.67    0.41
   1   1 -12    2.67    0.27
   1   1 -12    3.76    0.32
  -1  -1  12    3.35    0.30
  -1  -1  12    4.21    0.27
   0   1 -12    6.12    0.85
   0  -1  12   21.63    1.09
   0  -1  12   22.46    1.20
   1  -1  12    5.84    0.45
   1  -1  12    6.65    0.43
   2  -1  12    7.73    0.49
   2   0 -12   22.01    1.14
  -2   0  12   49.26    2.31
   1   0 -12    6.32    0.44
  -1   0  12    8.69    0.48
   0   0 -12    1.91    0.47
   0   0  12   10.68    0.70
   0   0  12   11.62    0.60
  -1   0 -12    1.18    0.14
   1   0  12    1.26    0.19
   1  -1 -12    4.10    0.31
  -1   1  12   10.00    0.54
   0  -1 -12    2.96    0.24
   0   1  12    4.62    0.29
  -1  -1 -12    1.01    0.33
   1   1  12    3.70    0.29
   0   0   0    0.00    0.00
;
_shelx_hkl_checksum              66088
loop_
_space_group_symop_operation_xyz
'x, y, z'
loop_
_atom_site_label
_atom_site_type_symbol
_atom_site_fract_x
_atom_site_fract_y
_atom_site_fract_z
_atom_site_U_iso_or_equiv
_atom_site_adp_type
_atom_site_occupancy
_atom_site_site_symmetry_order
_atom_site_calc_flag
_atom_site_refinement_flags_posn
_atom_site_refinement_flags_adp
P1 P 0.4928(2) 0.55845(15) 0.46785(14) 0.0197(4) Uani 1 1 d . .
O1 O 0.2807(11) 0.2010(6) 0.9139(6) 0.0318(13) Uani 1 1 d . .
O2 O -0.0441(10) 0.2278(6) 0.7872(6) 0.0301(13) Uani 1 1 d . .
O3 O 0.2657(11) 0.8789(6) 0.9231(5) 0.0335(14) Uani 1 1 d . .
O4 O 0.6372(12) 0.9320(7) 0.9210(6) 0.0367(14) Uani 1 1 d . .
O5 O 0.7258(9) 0.5876(6) 0.5345(5) 0.0238(11) Uani 1 1 d . .
O6 O 0.3698(9) 0.4042(5) 0.4643(5) 0.0237(12) Uani 1 1 d . .
O7 O 0.4923(9) 0.5710(6) 0.3185(5) 0.0239(11) Uani 1 1 d . .
N1 N 0.4536(12) 0.8775(6) 0.8688(6) 0.0249(14) Uani 1 1 d . .
C1 C 0.2690(13) 0.6670(7) 0.5360(7) 0.0206(14) Uani 1 1 d . .
H1 H 0.113042 0.625068 0.497768 0.025 Uiso 1 1 calc R U
C2 C 0.2688(14) 0.6868(8) 0.6889(7) 0.0227(15) Uani 1 1 d . .
H2 H 0.117090 0.725135 0.716755 0.027 Uiso 1 1 calc R U
C3 C 0.4575(14) 0.8071(8) 0.7275(7) 0.0232(15) Uani 1 1 d . .
H3 H 0.613790 0.769928 0.709415 0.028 Uiso 1 1 calc R U
C4 C 0.4116(17) 0.9121(8) 0.6378(7) 0.0311(18) Uani 1 1 d . .
H4A H 0.299814 0.980212 0.676306 0.037 Uiso 1 1 calc R U
H4B H 0.558231 0.964981 0.621137 0.037 Uiso 1 1 calc R U
C5 C 0.3093(13) 0.8183(7) 0.5135(7) 0.0208(14) Uani 1 1 d . .
C6 C 0.2512(15) 0.8638(9) 0.4057(8) 0.0296(17) Uani 1 1 d . .
H6A H 0.272878 0.961558 0.402642 0.036 Uiso 1 1 calc R U
H6B H 0.187906 0.798543 0.331509 0.036 Uiso 1 1 calc R U
C7 C 0.2919(13) 0.5568(7) 0.7486(7) 0.0204(14) Uani 1 1 d . .
C8 C 0.4896(14) 0.5382(8) 0.8219(7) 0.0239(15) Uani 1 1 d . .
H8 H 0.618833 0.606727 0.831063 0.029 Uiso 1 1 calc R U
C9 C 0.5018(15) 0.4205(8) 0.8825(8) 0.0276(16) Uani 1 1 d . .
H9 H 0.635522 0.408181 0.933061 0.033 Uiso 1 1 calc R U
C10 C 0.3129(15) 0.3250(8) 0.8652(7) 0.0259(16) Uani 1 1 d . .
C11 C 0.0351(16) 0.1607(9) 0.8914(9) 0.0321(18) Uani 1 1 d . .
H11A H -0.050587 0.192328 0.971440 0.039 Uiso 1 1 calc R U
H11B H 0.008140 0.056613 0.866147 0.039 Uiso 1 1 calc R U
C12 C 0.1143(14) 0.3424(8) 0.7906(7) 0.0240(15) Uani 1 1 d . .
C13 C 0.1002(13) 0.4558(8) 0.7322(7) 0.0219(15) Uani 1 1 d . .
H13 H -0.034746 0.466617 0.681824 0.026 Uiso 1 1 calc R U
C14 C 0.5001(14) 0.2877(7) 0.4152(7) 0.0233(15) Uani 1 1 d . .
C15 C 0.4605(16) 0.2238(8) 0.2868(8) 0.0299(18) Uani 1 1 d . .
H15 H 0.344440 0.253273 0.233715 0.036 Uiso 1 1 calc R U
C16 C 0.6009(19) 0.1114(9) 0.2365(9) 0.041(2) Uani 1 1 d . .
H16 H 0.581610 0.065231 0.147849 0.049 Uiso 1 1 calc R U
C17 C 0.7640(18) 0.0706(9) 0.3171(11) 0.044(2) Uani 1 1 d . .
H17 H 0.859252 -0.003018 0.282783 0.052 Uiso 1 1 calc R U
C18 C 0.7932(18) 0.1342(9) 0.4479(10) 0.039(2) Uani 1 1 d . .
H18 H 0.904850 0.103239 0.502631 0.047 Uiso 1 1 calc R U
C19 C 0.6571(16) 0.2437(8) 0.4973(8) 0.0297(17) Uani 1 1 d . .
H19 H 0.672399 0.287489 0.586756 0.036 Uiso 1 1 calc R U
C20 C 0.6854(13) 0.5897(8) 0.2434(7) 0.0216(14) Uani 1 1 d . .
C21 C 0.8567(14) 0.4939(8) 0.2307(7) 0.0253(15) Uani 1 1 d . .
H21 H 0.849621 0.418874 0.278210 0.030 Uiso 1 1 calc R U
C22 C 1.0398(14) 0.5093(9) 0.1471(7) 0.0266(16) Uani 1 1 d . .
H22 H 1.159184 0.445353 0.137905 0.032 Uiso 1 1 calc R U
C23 C 1.0453(13) 0.6196(9) 0.0776(7) 0.0263(16) Uani 1 1 d . .
H23 H 1.168376 0.630258 0.020221 0.032 Uiso 1 1 calc R U
C24 C 0.8745(14) 0.7125(8) 0.0914(7) 0.0259(16) Uani 1 1 d . .
H24 H 0.880005 0.787429 0.043842 0.031 Uiso 1 1 calc R U
C25 C 0.6923(14) 0.6977(8) 0.1750(7) 0.0254(15) Uani 1 1 d . .
H25 H 0.573755 0.762205 0.184368 0.031 Uiso 1 1 calc R U
loop_
_atom_site_aniso_label
_atom_site_aniso_U_11
_atom_site_aniso_U_22
_atom_site_aniso_U_33
_atom_site_aniso_U_23
_atom_site_aniso_U_13
_atom_site_aniso_U_12
P1 0.0226(9) 0.0193(8) 0.0165(8) 0.0025(6) 0.0012(6) -0.0019(6)
O1 0.032(3) 0.025(3) 0.041(3) 0.015(2) 0.001(2) 0.003(2)
O2 0.028(3) 0.024(3) 0.039(3) 0.012(2) -0.003(2) -0.006(2)
O3 0.044(4) 0.029(3) 0.025(3) 0.002(2) 0.013(2) -0.002(2)
O4 0.045(4) 0.035(3) 0.025(3) -0.002(2) -0.008(3) -0.003(3)
O5 0.024(3) 0.025(2) 0.023(2) 0.0067(19) -0.004(2) 0.002(2)
O6 0.025(3) 0.018(2) 0.026(3) 0.002(2) 0.005(2) -0.002(2)
O7 0.022(3) 0.032(3) 0.018(3) 0.005(2) 0.002(2) -0.002(2)
N1 0.041(4) 0.014(3) 0.019(3) 0.001(2) 0.000(3) 0.001(3)
C1 0.022(4) 0.022(3) 0.017(3) 0.005(3) 0.001(3) -0.004(3)
C2 0.029(4) 0.021(3) 0.018(3) 0.006(3) -0.001(3) -0.005(3)
C3 0.030(4) 0.021(3) 0.017(3) 0.002(3) 0.003(3) -0.004(3)
C4 0.048(5) 0.023(4) 0.022(4) 0.008(3) 0.002(3) -0.009(3)
C5 0.025(4) 0.017(3) 0.020(3) 0.002(3) 0.005(3) 0.005(3)
C6 0.034(5) 0.028(4) 0.029(4) 0.011(3) -0.003(3) 0.004(3)
C7 0.026(4) 0.017(3) 0.018(3) 0.003(3) 0.002(3) 0.000(3)
C8 0.029(4) 0.020(3) 0.022(3) 0.002(3) 0.001(3) -0.002(3)
C9 0.033(4) 0.026(4) 0.025(4) 0.007(3) 0.000(3) 0.001(3)
C10 0.033(4) 0.022(3) 0.023(3) 0.006(3) -0.001(3) 0.001(3)
C11 0.033(4) 0.026(4) 0.040(5) 0.014(3) 0.004(3) -0.003(3)
C12 0.030(4) 0.020(3) 0.021(3) 0.003(3) 0.001(3) -0.002(3)
C13 0.021(4) 0.023(3) 0.020(3) 0.002(3) 0.001(3) 0.000(3)
C14 0.029(4) 0.016(3) 0.024(4) 0.001(3) 0.007(3) 0.000(3)
C15 0.041(5) 0.022(4) 0.023(4) -0.002(3) -0.001(3) -0.005(3)
C16 0.055(6) 0.028(4) 0.034(5) -0.008(3) 0.011(4) -0.008(4)
C17 0.043(5) 0.022(4) 0.063(6) -0.002(4) 0.013(4) 0.005(4)
C18 0.037(5) 0.024(4) 0.055(6) 0.004(4) -0.003(4) 0.003(3)
C19 0.035(4) 0.022(4) 0.030(4) 0.003(3) -0.003(3) -0.001(3)
C20 0.018(3) 0.027(3) 0.019(3) 0.003(3) -0.001(3) 0.000(3)
C21 0.029(4) 0.025(3) 0.022(3) 0.007(3) -0.003(3) 0.000(3)
C22 0.026(4) 0.030(4) 0.022(3) 0.003(3) -0.001(3) -0.001(3)
C23 0.020(4) 0.036(4) 0.021(3) 0.003(3) 0.002(3) -0.002(3)
C24 0.029(4) 0.027(4) 0.021(3) 0.007(3) 0.002(3) -0.001(3)
C25 0.028(4) 0.027(4) 0.021(3) 0.003(3) 0.002(3) -0.001(3)
loop_
_atom_type_symbol
_atom_type_description
_atom_type_scat_dispersion_real
_atom_type_scat_dispersion_imag
_atom_type_scat_source
C C 0.0181 0.0091 'International Tables Vol C Tables 4.2.6.8 and 6.1.1.4'
H H 0.0000 0.0000 'International Tables Vol C Tables 4.2.6.8 and 6.1.1.4'
N N 0.0311 0.0180 'International Tables Vol C Tables 4.2.6.8 and 6.1.1.4'
O O 0.0492 0.0322 'International Tables Vol C Tables 4.2.6.8 and 6.1.1.4'
P P 0.2955 0.4335 'International Tables Vol C Tables 4.2.6.8 and 6.1.1.4'
loop_
_geom_angle_atom_site_label_1
_geom_angle_atom_site_label_2
_geom_angle_atom_site_label_3
_geom_angle
O5 P1 O7 114.0(3)
O5 P1 O6 115.9(3)
O7 P1 O6 103.0(3)
O5 P1 C1 116.4(3)
O7 P1 C1 104.8(3)
O6 P1 C1 101.0(3)
C10 O1 C11 104.0(6)
C12 O2 C11 104.5(6)
C14 O6 P1 117.0(5)
C20 O7 P1 127.3(5)
O4 N1 O3 124.2(6)
O4 N1 C3 117.3(7)
O3 N1 C3 118.5(6)
C5 C1 C2 102.8(5)
C5 C1 P1 112.0(5)
C2 C1 P1 112.2(5)
C5 C1 H1 109.9
C2 C1 H1 109.9
P1 C1 H1 109.9
C7 C2 C3 116.6(6)
C7 C2 C1 117.5(6)
C3 C2 C1 100.9(5)
C7 C2 H2 107.0
C3 C2 H2 107.0
C1 C2 H2 107.0
N1 C3 C2 113.2(6)
N1 C3 C4 110.9(6)
C2 C3 C4 105.1(6)
N1 C3 H3 109.2
C2 C3 H3 109.2
C4 C3 H3 109.2
C5 C4 C3 103.5(6)
C5 C4 H4A 111.1
C3 C4 H4A 111.1
C5 C4 H4B 111.1
C3 C4 H4B 111.1
H4A C4 H4B 109.0
C6 C5 C4 124.8(7)
C6 C5 C1 125.9(7)
C4 C5 C1 109.2(6)
C5 C6 H6A 120.0
C5 C6 H6B 120.0
H6A C6 H6B 120.0
C8 C7 C13 120.2(7)
C8 C7 C2 122.5(7)
C13 C7 C2 117.2(6)
C7 C8 C9 121.5(7)
C7 C8 H8 119.2
C9 C8 H8 119.2
C10 C9 C8 116.8(7)
C10 C9 H9 121.6
C8 C9 H9 121.6
C9 C10 O1 128.2(7)
C9 C10 C12 122.0(7)
O1 C10 C12 109.8(7)
O1 C11 O2 107.1(6)
O1 C11 H11A 110.3
O2 C11 H11A 110.3
O1 C11 H11B 110.3
O2 C11 H11B 110.3
H11A C11 H11B 108.6
C13 C12 O2 129.3(7)
C13 C12 C10 121.7(7)
O2 C12 C10 108.9(7)
C12 C13 C7 117.7(7)
C12 C13 H13 121.1
C7 C13 H13 121.1
C19 C14 C15 123.3(7)
C19 C14 O6 119.0(7)
C15 C14 O6 117.7(7)
C14 C15 C16 117.3(8)
C14 C15 H15 121.4
C16 C15 H15 121.4
C17 C16 C15 119.5(8)
C17 C16 H16 120.3
C15 C16 H16 120.3
C16 C17 C18 121.6(9)
C16 C17 H17 119.2
C18 C17 H17 119.2
C19 C18 C17 119.1(9)
C19 C18 H18 120.4
C17 C18 H18 120.4
C14 C19 C18 119.1(8)
C14 C19 H19 120.5
C18 C19 H19 120.5
C25 C20 C21 121.1(7)
C25 C20 O7 118.3(7)
C21 C20 O7 120.4(7)
C20 C21 C22 119.2(7)
C20 C21 H21 120.4
C22 C21 H21 120.4
C23 C22 C21 119.3(7)
C23 C22 H22 120.3
C21 C22 H22 120.3
C24 C23 C22 120.5(7)
C24 C23 H23 119.8
C22 C23 H23 119.8
C23 C24 C25 120.3(7)
C23 C24 H24 119.8
C25 C24 H24 119.8
C20 C25 C24 119.6(7)
C20 C25 H25 120.2
C24 C25 H25 120.2
loop_
_geom_bond_atom_site_label_1
_geom_bond_atom_site_label_2
_geom_bond_distance
P1 O5 1.479(5)
P1 O7 1.586(5)
P1 O6 1.597(5)
P1 C1 1.793(8)
O1 C10 1.387(9)
O1 C11 1.440(11)
O2 C12 1.377(9)
O2 C11 1.446(10)
O3 N1 1.231(9)
O4 N1 1.216(9)
O6 C14 1.418(9)
O7 C20 1.394(9)
N1 C3 1.506(9)
C1 C5 1.525(9)
C1 C2 1.572(9)
C1 H1 1.0000
C2 C7 1.514(9)
C2 C3 1.522(10)
C2 H2 1.0000
C3 C4 1.534(10)
C3 H3 1.0000
C4 C5 1.518(10)
C4 H4A 0.9900
C4 H4B 0.9900
C5 C6 1.326(11)
C6 H6A 0.9500
C6 H6B 0.9500
C7 C8 1.397(11)
C7 C13 1.404(10)
C8 C9 1.404(10)
C8 H8 0.9500
C9 C10 1.360(12)
C9 H9 0.9500
C10 C12 1.405(11)
C11 H11A 0.9900
C11 H11B 0.9900
C12 C13 1.355(11)
C13 H13 0.9500
C14 C19 1.373(12)
C14 C15 1.375(11)
C15 C16 1.427(13)
C15 H15 0.9500
C16 C17 1.373(16)
C16 H16 0.9500
C17 C18 1.390(15)
C17 H17 0.9500
C18 C19 1.389(13)
C18 H18 0.9500
C19 H19 0.9500
C20 C25 1.368(11)
C20 C21 1.390(11)
C21 C22 1.400(11)
C21 H21 0.9500
C22 C23 1.394(11)
C22 H22 0.9500
C23 C24 1.368(12)
C23 H23 0.9500
C24 C25 1.395(11)
C24 H24 0.9500
C25 H25 0.9500
loop_
_geom_hbond_atom_site_label_D
_geom_hbond_atom_site_label_H
_geom_hbond_atom_site_label_A
_geom_hbond_distance_DH
_geom_hbond_distance_HA
_geom_hbond_distance_DA
_geom_hbond_angle_DHA
_geom_hbond_site_symmetry_A
_geom_hbond_publ_flag
C1 H1 O5 1.00 2.28 3.162(9) 146.0 1_455 yes
C3 H3 O5 1.00 2.42 3.154(9) 129.5 . yes
C11 H11B O3 0.99 2.49 3.177(11) 126.4 1_545 yes
C11 H11B O4 0.99 2.50 3.126(11) 120.5 1_445 yes
C13 H13 O5 0.95 2.53 3.417(9) 154.5 1_455 yes
loop_
_geom_torsion_atom_site_label_1
_geom_torsion_atom_site_label_2
_geom_torsion_atom_site_label_3
_geom_torsion_atom_site_label_4
_geom_torsion
O5 P1 O6 C14 -52.9(6)
O7 P1 O6 C14 72.2(6)
C1 P1 O6 C14 -179.7(5)
O5 P1 O7 C20 7.8(7)
O6 P1 O7 C20 -118.5(6)
C1 P1 O7 C20 136.2(6)
O5 P1 C1 C5 70.7(6)
O7 P1 C1 C5 -56.1(5)
O6 P1 C1 C5 -162.9(5)
O5 P1 C1 C2 -44.3(6)
O7 P1 C1 C2 -171.2(5)
O6 P1 C1 C2 82.0(5)
C5 C1 C2 C7 -165.4(7)
P1 C1 C2 C7 -44.9(8)
C5 C1 C2 C3 -37.5(7)
P1 C1 C2 C3 83.1(6)
O4 N1 C3 C2 152.1(7)
O3 N1 C3 C2 -29.4(9)
O4 N1 C3 C4 -90.1(9)
O3 N1 C3 C4 88.5(8)
C7 C2 C3 N1 -67.4(9)
C1 C2 C3 N1 164.1(6)
C7 C2 C3 C4 171.5(6)
C1 C2 C3 C4 42.9(7)
N1 C3 C4 C5 -154.1(6)
C2 C3 C4 C5 -31.4(8)
C3 C4 C5 C6 -177.1(8)
C3 C4 C5 C1 6.8(9)
C2 C1 C5 C6 -156.9(8)
P1 C1 C5 C6 82.4(9)
C2 C1 C5 C4 19.2(8)
P1 C1 C5 C4 -101.5(6)
C3 C2 C7 C8 -8.2(10)
C1 C2 C7 C8 111.8(8)
C3 C2 C7 C13 169.3(6)
C1 C2 C7 C13 -70.8(9)
C13 C7 C8 C9 -1.0(11)
C2 C7 C8 C9 176.4(7)
C7 C8 C9 C10 0.6(11)
C8 C9 C10 O1 180.0(7)
C8 C9 C10 C12 -0.1(11)
C11 O1 C10 C9 167.1(8)
C11 O1 C10 C12 -12.9(8)
C10 O1 C11 O2 22.5(8)
C12 O2 C11 O1 -23.9(8)
C11 O2 C12 C13 -166.0(8)
C11 O2 C12 C10 15.8(8)
C9 C10 C12 C13 -0.2(12)
O1 C10 C12 C13 179.8(7)
C9 C10 C12 O2 178.1(7)
O1 C10 C12 O2 -1.9(9)
O2 C12 C13 C7 -178.1(7)
C10 C12 C13 C7 -0.1(11)
C8 C7 C13 C12 0.7(10)
C2 C7 C13 C12 -176.8(7)
P1 O6 C14 C19 83.4(8)
P1 O6 C14 C15 -97.1(7)
C19 C14 C15 C16 -3.6(12)
O6 C14 C15 C16 176.8(7)
C14 C15 C16 C17 1.1(12)
C15 C16 C17 C18 1.3(15)
C16 C17 C18 C19 -1.3(15)
C15 C14 C19 C18 3.6(13)
O6 C14 C19 C18 -176.8(7)
C17 C18 C19 C14 -1.1(13)
P1 O7 C20 C25 -128.0(6)
P1 O7 C20 C21 57.0(9)
C25 C20 C21 C22 0.5(11)
O7 C20 C21 C22 175.3(6)
C20 C21 C22 C23 -0.6(11)
C21 C22 C23 C24 0.5(11)
C22 C23 C24 C25 -0.2(11)
C21 C20 C25 C24 -0.2(11)
O7 C20 C25 C24 -175.2(6)
C23 C24 C25 C20 0.1(11)
