#------------------------------------------------------------------------------
#$Date: 2020-03-04 03:33:41 +0200 (Wed, 04 Mar 2020) $
#$Revision: 248696 $
#$URL: file:///home/coder/svn-repositories/cod/cif/4/51/74/4517407.cif $
#------------------------------------------------------------------------------
#
# This file is available in the Crystallography Open Database (COD),
# http://www.crystallography.net/
#
# All data on this site have been placed in the public domain by the
# contributors.
#
data_4517407
loop_
_publ_author_name
'Chiou, Wen-Hua'
'Hsu, Kuo-Hsun'
'Huang, Wen-Wei'
_publ_section_title
;
 Rh-Catalyzed Hydroformylation-Initiated Bicyclization: Construction of
 Azabicyclic Systems.
;
_journal_issue                   7
_journal_name_full               'ACS omega'
_journal_page_first              3717
_journal_page_last               3724
_journal_paper_doi               10.1021/acsomega.9b04400
_journal_volume                  5
_journal_year                    2020
_chemical_absolute_configuration unk
_chemical_formula_sum            'C17 H23 N3 O3 S'
_chemical_formula_weight         349.44
_space_group_crystal_system      triclinic
_space_group_IT_number           1
_space_group_name_Hall           'P 1'
_space_group_name_H-M_alt        'P 1'
_atom_sites_solution_hydrogens   mixed
_audit_creation_method           SHELXL-2018/3
_cell_angle_alpha                81.685(6)
_cell_angle_beta                 63.540(5)
_cell_angle_gamma                72.764(5)
_cell_formula_units_Z            1
_cell_length_a                   7.9413(13)
_cell_length_b                   7.9555(13)
_cell_length_c                   8.0755(13)
_cell_measurement_reflns_used    2570
_cell_measurement_temperature    150(2)
_cell_measurement_theta_max      26.425
_cell_measurement_theta_min      4.607
_cell_volume                     436.18(12)
_computing_cell_refinement       'SAINT V7.34A (Bruker AXS, 2006)'
_computing_data_collection       'APEX2 (Bruker AXS, 2010)'
_computing_data_reduction        'SAINT V7.34A (Bruker AXS, 2006)'
_computing_molecular_graphics    'Bruker SHELXTL'
_computing_publication_material  'Bruker SHELXTL'
_computing_structure_refinement  'SHELXL-2014/7 (Sheldrick, 2014)'
_computing_structure_solution    'SHELXL-2014/7 (Sheldrick, 2014)'
_diffrn_ambient_temperature      150(2)
_diffrn_measured_fraction_theta_full 0.953
_diffrn_measured_fraction_theta_max 0.954
_diffrn_measurement_device_type  'Bruker APEX-II CCD'
_diffrn_measurement_method       '\f and \w scans'
_diffrn_radiation_probe          x-ray
_diffrn_radiation_type           MoK\a
_diffrn_radiation_wavelength     0.71073
_diffrn_reflns_av_R_equivalents  0.0348
_diffrn_reflns_av_unetI/netI     0.0580
_diffrn_reflns_Laue_measured_fraction_full 0.953
_diffrn_reflns_Laue_measured_fraction_max 0.954
_diffrn_reflns_limit_h_max       8
_diffrn_reflns_limit_h_min       -9
_diffrn_reflns_limit_k_max       9
_diffrn_reflns_limit_k_min       -9
_diffrn_reflns_limit_l_max       9
_diffrn_reflns_limit_l_min       -9
_diffrn_reflns_number            3835
_diffrn_reflns_point_group_measured_fraction_full 0.751
_diffrn_reflns_point_group_measured_fraction_max 0.750
_diffrn_reflns_theta_full        25.242
_diffrn_reflns_theta_max         26.000
_diffrn_reflns_theta_min         4.608
_exptl_absorpt_coefficient_mu    0.206
_exptl_absorpt_correction_T_max  0.9281
_exptl_absorpt_correction_T_min  0.7046
_exptl_absorpt_correction_type   multi-scan
_exptl_absorpt_process_details   'SADABS V2012/1 (Bruker AXS Inc.)'
_exptl_crystal_density_diffrn    1.330
_exptl_crystal_description       block
_exptl_crystal_F_000             186
_exptl_crystal_size_max          0.500
_exptl_crystal_size_mid          0.390
_exptl_crystal_size_min          0.250
_refine_diff_density_max         0.507
_refine_diff_density_min         -0.292
_refine_diff_density_rms         0.060
_refine_ls_abs_structure_details
;
 Flack x determined using 723 quotients [(I+)-(I-)]/[(I+)+(I-)]
 (Parsons, Flack and Wagner, Acta Cryst. B69 (2013) 249-259).
;
_refine_ls_abs_structure_Flack   0.10(6)
_refine_ls_extinction_method     none
_refine_ls_goodness_of_fit_ref   0.946
_refine_ls_hydrogen_treatment    mixed
_refine_ls_matrix_type           full
_refine_ls_number_parameters     221
_refine_ls_number_reflns         2574
_refine_ls_number_restraints     3
_refine_ls_restrained_S_all      0.946
_refine_ls_R_factor_all          0.0740
_refine_ls_R_factor_gt           0.0560
_refine_ls_shift/su_max          0.000
_refine_ls_shift/su_mean         0.000
_refine_ls_structure_factor_coef Fsqd
_refine_ls_weighting_details
'w=1/[\s^2^(Fo^2^)+(0.0077P)^2^+0.9013P] where P=(Fo^2^+2Fc^2^)/3'
_refine_ls_weighting_scheme      calc
_refine_ls_wR_factor_gt          0.1170
_refine_ls_wR_factor_ref         0.1313
_reflns_Friedel_coverage         0.571
_reflns_Friedel_fraction_full    0.550
_reflns_Friedel_fraction_max     0.545
_reflns_number_gt                2190
_reflns_number_total             2574
_reflns_threshold_expression     'I > 2\s(I)'
_cod_data_source_file            ao9b04400_si_002.cif
_cod_data_source_block           wei1181p
_cod_depositor_comments          'Adding full bibliography for 4517407.cif.'
_cod_database_code               4517407
_shelx_shelxl_version_number     2018/3
_shelx_space_group_comment
;
The symmetry employed for this shelxl refinement is uniquely defined
by the following loop, which should always be used as a source of
symmetry information in preference to the above space-group names.
They are only intended as comments.
;
_shelx_estimated_absorpt_t_min   0.904
_shelx_estimated_absorpt_t_max   0.950
_shelx_res_file
;
TITL wei1181p in P1
    wei1181p.res
    created by SHELXL-2018/3 at 10:33:36 on 11-Jul-2019
CELL 0.71073   7.94130   7.95550   8.07550  81.6852  63.5404  72.7639
ZERR    1.00   0.00130   0.00130   0.00130   0.0060   0.0053   0.0053
LATT -1
SFAC C  H  N  O  S
UNIT 17  23  3  3  1

L.S. 30
ACTA
BOND $H
FMAP 2
PLAN 0
SIZE 0.25 0.39 0.50
TEMP -123.150
OMIT -1 52

OMIT 4 -3 3
OMIT 0 6 -2
OMIT 3 -5 -1
OMIT 2 5 -6
OMIT 6 -2 0
OMIT 0 -7 2
OMIT 6 9 3
OMIT 2 0 0
OMIT 2 2 0
OMIT 0 5 -3
OMIT -4 -2 -2
OMIT -4 -5 2
OMIT -6 -9 -3
OMIT 1 2 -8
OMIT 6 7 -1
OMIT -2 -3 0
OMIT 1 5 0
OMIT 0 5 4
OMIT 1 1 9
OMIT 0 2 6
OMIT 1 6 -1
OMIT -4 -1 -1
OMIT 4 7 0
OMIT 1 8 2
OMIT 5 9 1

WGHT    0.007700    0.901300
FVAR       0.79823
S     5    0.950474    0.714630    1.052231    11.00000    0.04626    0.03111 =
         0.05695    0.00279   -0.03579   -0.00962
O1    4    1.127725    0.604198    1.056464    11.00000    0.04692    0.03543 =
         0.06782    0.01250   -0.04436   -0.01558
O2    4    0.840385    0.862642    1.172809    11.00000    0.07723    0.03464 =
         0.05724   -0.00219   -0.04222   -0.01521
O3    4    0.235596    1.464927    0.640965    11.00000    0.03288    0.02955 =
         0.05953    0.00235   -0.02747   -0.00106
N1    3    1.017898    0.788372    0.838427    11.00000    0.02627    0.02747 =
         0.05198   -0.00148   -0.02339    0.00028
H1A   2    1.080612    0.707173    0.762561    11.00000    0.04056
N2    3    0.858383    0.900704    0.806702    11.00000    0.03514    0.02017 =
         0.05290   -0.00016   -0.02734   -0.00315
N3    3    0.529776    1.382401    0.650440    11.00000    0.03302    0.01952 =
         0.05249    0.00167   -0.02497   -0.00484
C1    1    0.794643    0.582046    1.089419    11.00000    0.03090    0.02179 =
         0.03688    0.00373   -0.02042   -0.00614
C2    1    0.870844    0.401517    1.073616    11.00000    0.02740    0.02779 =
         0.03340    0.00383   -0.01664   -0.00387
AFIX  43
H2C   2    1.005050    0.349784    1.043524    11.00000   -1.20000
AFIX   0
C3    1    0.745966    0.296876    1.102912    11.00000    0.03967    0.02289 =
         0.04193   -0.00155   -0.02025   -0.00188
AFIX  43
H3A   2    0.796068    0.172643    1.093702    11.00000   -1.20000
AFIX   0
C4    1    0.549335    0.371686    1.145375    11.00000    0.03407    0.03168 =
         0.03204    0.00074   -0.01680   -0.01197
C5    1    0.480363    0.552772    1.158579    11.00000    0.02726    0.03956 =
         0.04486   -0.01136   -0.01730    0.00065
AFIX  43
H5A   2    0.346506    0.605338    1.187661    11.00000   -1.20000
AFIX   0
C6    1    0.600019    0.659875    1.130800    11.00000    0.04074    0.02388 =
         0.04958   -0.00492   -0.02680   -0.00094
AFIX  43
H6A   2    0.549733    0.784097    1.139921    11.00000   -1.20000
AFIX   0
C7    1    0.415368    0.257154    1.176504    11.00000    0.03680    0.03818 =
         0.03965    0.00483   -0.01579   -0.01274
AFIX  33
H7A   2    0.489681    0.133271    1.161440    11.00000   -1.50000
H7B   2    0.310288    0.274660    1.301932    11.00000   -1.50000
H7C   2    0.359474    0.289442    1.086278    11.00000   -1.50000
AFIX   0
C8    1    0.894375    0.943129    0.637327    11.00000    0.03220    0.02506 =
         0.04544   -0.00260   -0.01996   -0.00721
C9    1    0.724563    1.071216    0.606081    11.00000    0.04157    0.02054 =
         0.05047    0.00136   -0.02930   -0.00328
AFIX  13
H9A   2    0.758110    1.074569    0.470901    11.00000   -1.20000
AFIX   0
C10   1    0.532972    1.024099    0.709934    11.00000    0.04159    0.02625 =
         0.07402   -0.00139   -0.03511   -0.00614
AFIX  23
H10A  2    0.494334    1.024849    0.844589    11.00000   -1.20000
H10B  2    0.547655    0.903938    0.676632    11.00000   -1.20000
AFIX   0
C11   1    0.373262    1.155697    0.663491    11.00000    0.03307    0.02896 =
         0.05764   -0.00225   -0.02607   -0.00618
AFIX  23
H11A  2    0.386686    1.123080    0.543617    11.00000   -1.20000
H11B  2    0.244653    1.144060    0.759028    11.00000   -1.20000
AFIX   0
C12   1    0.376096    1.347452    0.651542    11.00000    0.03558    0.02587 =
         0.03729   -0.00096   -0.01860   -0.00373
C13   1    0.551465    1.561527    0.623800    11.00000    0.03609    0.02638 =
         0.05575    0.00608   -0.02461   -0.00760
AFIX  23
H13A  2    0.454202    1.634766    0.732143    11.00000   -1.20000
H13B  2    0.535955    1.617082    0.511789    11.00000   -1.20000
AFIX   0
C14   1    0.758827    1.538769    0.601833    11.00000    0.03929    0.03182 =
         0.05474    0.00329   -0.02332   -0.01186
AFIX  23
H14A  2    0.756894    1.568450    0.717677    11.00000   -1.20000
H14B  2    0.825655    1.614915    0.500288    11.00000   -1.20000
AFIX   0
C15   1    0.860819    1.343578    0.556537    11.00000    0.03422    0.03356 =
         0.05321    0.00134   -0.01973   -0.01013
AFIX  23
H15A  2    0.915665    1.323843    0.422119    11.00000   -1.20000
H15B  2    0.966879    1.300931    0.597471    11.00000   -1.20000
AFIX   0
C16   1    0.702744    1.254198    0.661888    11.00000    0.02755    0.02693 =
         0.04918    0.00277   -0.02179   -0.00747
AFIX  13
H16A  2    0.681377    1.246504    0.794208    11.00000   -1.20000
AFIX   0
C17   1    1.082738    0.882844    0.472169    11.00000    0.04134    0.04014 =
         0.05633   -0.00521   -0.02308    0.00582
AFIX  33
H17A  2    1.069003    0.935854    0.360011    11.00000   -1.50000
H17B  2    1.185198    0.918777    0.483059    11.00000   -1.50000
H17C  2    1.117670    0.754324    0.465011    11.00000   -1.50000

AFIX   0
HKLF 4




REM  wei1181p in P1
REM wR2 = 0.1313, GooF = S = 0.946, Restrained GooF = 0.946 for all data
REM R1 = 0.0560 for 2190 Fo > 4sig(Fo) and 0.0740 for all 2574 data
REM 221 parameters refined using 3 restraints

END

WGHT      0.0000      0.6098

REM Highest difference peak  0.507,  deepest hole -0.292,  1-sigma level  0.060
Q1    1   0.8776  0.7201  1.1984  11.00000  0.05    0.51
Q2    1   0.7726  0.8380  1.0375  11.00000  0.05    0.33
Q3    1   0.7866  1.3331  0.6959  11.00000  0.05    0.30
Q4    1   1.0057  0.7058  0.9134  11.00000  0.05    0.29
Q5    1   1.2272  0.5630  0.9084  11.00000  0.05    0.29
Q6    1   0.5906  1.0337  0.5755  11.00000  0.05    0.27
Q7    1   1.0488  0.5329  1.2662  11.00000  0.05    0.26
Q8    1   0.5729  1.3803  0.5250  11.00000  0.05    0.25
Q9    1   0.5333  0.5968  1.1962  11.00000  0.05    0.24
Q10   1   1.1043  0.8246  1.0435  11.00000  0.05    0.23
Q11   1   1.0762  0.8154  0.6586  11.00000  0.05    0.23
Q12   1   0.4917  0.3188  1.1558  11.00000  0.05    0.23
Q13   1   1.2723  0.7428  0.9942  11.00000  0.05    0.23
Q14   1   0.1643  1.4636  0.7811  11.00000  0.05    0.22
Q15   1   0.5404  0.9172  1.1669  11.00000  0.05    0.22
Q16   1   1.1000  0.4958  1.0434  11.00000  0.05    0.22
Q17   1   0.9089  1.4225  0.6205  11.00000  0.05    0.22
Q18   1   0.5559  0.5957  0.9410  11.00000  0.05    0.22
Q19   1   0.4464  0.5061  1.2890  11.00000  0.05    0.22
Q20   1   0.9257  0.8401  1.0442  11.00000  0.05    0.21
;
_shelx_res_checksum              45633
_shelx_hkl_file
;
  -2   0   0  291.82   10.91
   2   0   0  220.87   11.01
  -3   0   0  165.61    7.41
   3   0   0  172.85    7.33
  -4   0   0    9.57    1.18
   4   0   0   11.22    1.16
  -5   0   0   33.98    2.04
  -6   0   0   38.64    2.38
  -7   0   0   12.11    1.76
  -8   0   0    3.97    1.01
  -8   1   0    1.91    0.92
  -7   1   0   -0.07    0.83
   6  -1   0   80.20    4.04
  -6   1   0   82.72    4.03
   5  -1   0   23.20    1.76
  -5   1   0   24.62    1.75
  -5   1   0   19.62    1.88
   4  -1   0   40.26    2.07
  -4   1   0   41.17    2.10
  -4   1   0   34.29    1.86
   3  -1   0  184.87    8.08
  -3   1   0  188.74    8.09
   2  -1   0  102.89    4.33
  -2   1   0   94.54    4.26
  -2   1   0   99.56    4.32
  -3  -1   0   40.38    1.89
  -4  -1   0   15.50    1.32
  -4  -1   0   15.91    0.98
  -5  -1   0   10.33    1.28
  -6  -1   0   48.13    2.71
  -7  -1   0    9.95    1.73
  -8  -1   0    4.02    1.01
  -7   2   0    5.59    1.00
   6  -2   0   32.54    2.06
   5  -2   0   94.14    4.35
  -5   2   0   92.91    4.35
  -5   2   0   85.94    4.09
   4  -2   0   13.94    1.30
  -4   2   0   14.17    1.33
  -4   2   0   11.21    1.11
   3  -2   0  151.69    6.46
  -3   2   0  144.68    6.37
  -3   2   0  144.73    6.44
   2  -2   0   55.84    2.74
  -2   2   0   60.14    2.75
  -2   2   0   59.09    2.71
   1  -2   0  139.52    5.94
   1  -2   0  147.31    5.96
  -1   2   0  124.27    6.11
  -1   2   0  140.64    5.94
   0  -2   0   85.87    3.89
   0   2   0   91.23    3.98
  -2  -2   0  435.07   16.77
   2   2   0  355.63   16.90
  -3  -2   0  704.99   29.79
  -4  -2   0  222.63    9.92
  -4  -2   0  241.92   10.06
  -5  -2   0   44.17    2.18
  -5  -2   0   47.26    2.49
  -6  -2   0   76.17    3.58
  -6  -2   0   63.77    3.17
  -7  -2   0   -1.48    1.46
  -8  -2   0    3.38    1.02
   7  -3   0    0.03    0.96
  -7   3   0   -0.69    0.86
  -6   3   0   -0.59    0.81
  -6   3   0   -0.58    0.57
   5  -3   0   61.73    3.30
  -5   3   0   63.93    3.30
  -5   3   0   62.01    3.08
   4  -3   0   69.61    3.39
  -4   3   0   69.45    3.38
  -4   3   0   64.35    3.25
   3  -3   0  214.54    9.28
  -3   3   0  212.95    9.27
  -3   3   0  213.62    9.23
   2  -3   0  116.18    5.09
  -2   3   0  113.04    5.09
  -2   3   0  114.37    5.09
   1  -3   0   85.51    4.17
   1  -3   0  107.36    4.39
  -1   3   0   91.55    4.18
  -1   3   0   88.17    4.21
   0  -3   0  135.07    5.78
   0   3   0  130.53    5.82
   1   3   0  126.43    5.56
  -2  -3   0  179.30    8.77
   2   3   0  214.61    8.54
  -3  -3   0  179.88    8.18
   3   3   0  193.74    8.12
  -4  -3   0   23.99    1.41
   4   3   0   22.29    1.53
  -5  -3   0   33.70    1.84
  -6  -3   0    5.91    1.12
  -6  -3   0    4.79    1.00
  -7  -3   0   12.44    1.94
  -7  -3   0   13.47    1.25
  -7  -3   0   15.63    1.26
  -8  -3   0   -0.41    0.59
  -8  -3   0   -0.99    0.96
   6  -4   0   16.48    1.88
  -6   4   0   14.75    1.52
  -6   4   0   14.64    1.87
  -5   4   0    1.94    0.90
  -5   4   0    2.18    0.71
   4  -4   0  287.73   12.67
  -4   4   0  298.80   12.59
  -4   4   0  287.09   12.65
   3  -4   0  317.77   13.67
  -3   4   0  310.65   13.64
  -3   4   0  321.56   13.62
   2  -4   0   34.64    1.97
  -2   4   0   34.47    1.99
  -2   4   0   35.25    2.01
   1  -4   0   98.80    4.48
   1  -4   0   99.14    4.40
  -1   4   0   93.77    4.45
   0  -4   0   97.03    4.42
   0  -4   0   98.83    4.32
   0   4   0   90.46    4.38
  -1  -4   0   84.90    3.98
   1   4   0   85.15    4.00
  -2  -4   0   35.17    1.97
   2   4   0   30.24    1.98
  -3  -4   0   20.92    1.46
   3   4   0   19.03    1.53
  -4  -4   0   53.11    2.65
   4   4   0   53.21    2.72
  -5  -4   0    9.33    1.28
   5   4   0   10.89    1.45
  -6  -4   0   16.13    1.47
  -7  -4   0   15.78    1.42
  -7  -4   0   14.42    1.96
  -8  -4   0   16.65    2.15
  -8  -4   0   18.25    1.52
   6  -5   0   18.06    2.05
  -6   5   0   13.76    1.91
  -6   5   0   12.69    1.96
   5  -5   0   15.23    1.85
  -5   5   0   14.01    1.72
  -5   5   0   12.86    1.83
  -4   5   0   20.25    1.96
  -4   5   0   21.97    1.93
   3  -5   0    4.74    0.96
  -3   5   0    4.02    0.91
  -3   5   0    7.68    1.61
   2  -5   0  198.11    8.84
  -2   5   0  203.40    8.85
   1  -5   0   48.15    2.60
   1  -5   0   46.94    2.44
  -1   5   0   44.10    2.54
   0  -5   0   34.33    2.17
   0  -5   0   37.03    2.01
   0   5   0   37.14    2.17
  -1  -5   0   87.43    4.48
   1   5   0  105.64    4.70
  -2  -5   0   11.65    1.34
   2   5   0    8.99    1.37
   2   5   0    9.91    0.95
  -3  -5   0   74.10    3.54
   3   5   0   71.71    3.58
  -4  -5   0   53.58    2.79
   4   5   0   52.35    2.88
  -5  -5   0   28.80    1.94
   5   5   0   25.24    2.08
  -6  -5   0   18.52    1.67
  -7  -5   0    3.66    0.74
  -7  -5   0    5.34    1.14
  -8  -5   0   15.12    2.17
  -8  -5   0   13.05    1.61
   5  -6   0    1.15    0.96
  -5   6   0    1.85    0.96
  -5   6   0    1.91    0.98
   4  -6   0   -0.42    0.85
  -4   6   0   -0.06    0.79
  -4   6   0   -0.57    0.83
  -3   6   0    1.53    0.82
   2  -6   0   40.10    2.51
  -2   6   0   48.58    3.11
   1  -6   0  107.78    4.89
   1  -6   0  102.69    4.77
  -1   6   0   91.34    5.39
   0  -6   0   79.47    4.10
   0  -6   0   84.41    4.18
   0   6   0   82.63    4.12
  -1  -6   0   26.69    2.11
  -1  -6   0   30.64    1.86
   1   6   0   27.03    2.14
  -2  -6   0   68.72    3.48
   2   6   0   64.73    3.50
   2   6   0   66.80    3.15
  -3  -6   0   78.84    3.78
   3   6   0   70.34    3.80
  -4  -6   0   29.66    2.17
   4   6   0   31.78    2.34
  -5  -6   0   64.93    3.33
   5   6   0   60.44    4.46
  -6  -6   0    0.80    0.73
   6   6   0    1.16    0.96
  -7  -6   0    0.88    0.74
   7   6   0    0.91    0.93
  -8  -6   0   13.10    2.23
  -8  -6   0   14.15    1.83
  -4   7   0    4.03    1.00
   3  -7   0   -0.24    0.85
  -3   7   0   -1.31    0.82
   2  -7   0    0.10    0.85
  -2   7   0    1.12    0.93
   1  -7   0   59.50    3.45
  -1   7   0   50.47    3.23
  -2  -7   0   51.21    3.19
   2   7   0   43.82    2.50
  -3  -7   0    3.93    1.44
   3   7   0    3.82    0.62
   3   7   0    2.78    0.87
   4   7   0    7.53    1.45
  -7  -7   0   13.18    1.93
   3  -8   0    0.98    1.07
  -3   8   0   -1.35    1.10
   2  -8   0    6.04    1.23
  -2   8   0    5.80    1.29
   1  -8   0   33.62    2.39
  -1   8   0   34.27    2.74
   0  -8   0   -0.50    0.79
   0  -8   0   -0.84    0.92
   0   8   0   -0.23    0.80
  -1  -8   0    6.81    1.16
   1   8   0    4.81    1.64
   1   8   0    8.74    1.79
  -2  -8   0    0.53    0.73
   2   8   0    0.94    0.73
  -3  -8   0   16.57    2.02
   3   8   0   14.75    2.16
   3   8   0   15.00    1.43
  -4  -8   0   39.14    2.70
   4   8   0   38.64    2.78
   5   8   0   10.86    2.12
  -6  -8   0    9.45    1.95
   6   8   0   11.48    2.15
   1  -9   0    4.35    1.21
  -1   9   0    2.21    0.94
   0  -9   0   21.49    2.38
   0  -9   0   22.06    2.13
   0   9   0   23.99    2.51
   0   9   0   21.98    2.24
  -1  -9   0   13.33    1.88
  -1  -9   0   13.40    2.17
   1   9   0   14.26    2.18
  -2  -9   0   18.90    2.29
  -2  -9   0   16.36    2.75
   2   9   0   18.03    2.84
   2   9   0   20.58    2.06
  -3  -9   0    1.09    1.00
  -3  -9   0    0.11    0.99
   3   9   0    0.76    0.74
   3   9   0   -0.19    1.21
  -4  -9   0   10.31    2.08
   4   9   0   11.01    2.41
  -5  -9   0   29.47    2.64
   5   9   0   29.63    2.75
   4   9  -1    0.07    1.05
  -4  -9   1   -0.10    0.88
   3   9  -1    3.75    0.69
   3   9  -1    2.74    1.09
  -3  -9   1    3.12    1.17
   2   9  -1    3.72    0.82
   2   9  -1    3.62    1.10
  -2  -9   1    4.65    1.14
  -2  -9   1    3.92    1.15
   1   9  -1   21.23    2.49
   1   9  -1   19.36    1.95
  -1  -9   1   20.24    2.08
  -1  -9   1   23.32    2.45
   0   9  -1   38.94    2.99
   0  -9   1   34.75    2.57
  -1   9  -1   20.54    2.67
   1  -9   1   18.98    2.09
   6   8  -1   33.23    2.81
  -6  -8   1   34.36    2.63
   5   8  -1   17.01    2.22
  -5  -8   1   15.88    2.15
   4   8  -1    6.56    1.19
  -4  -8   1   10.68    1.96
   3   8  -1    1.60    0.93
  -3  -8   1    2.34    0.90
   2   8  -1    8.48    1.35
   2   8  -1    6.43    1.05
  -2  -8   1    5.48    0.94
  -1  -8   1    4.99    1.08
  -1  -8   1    6.46    1.05
   0   8  -1    6.69    1.17
   0  -8   1    5.52    0.96
   0  -8   1    6.04    1.04
  -1   8  -1   27.90    2.52
   1  -8   1   24.46    2.11
  -2   8  -1   17.04    2.36
   2  -8   1   12.07    2.47
  -3   8  -1   -1.31    1.39
   3  -8   1   -0.64    0.92
  -7  -7   1   -0.43    0.90
   6   7  -1    1.48    1.01
  -6  -7   1    4.83    0.93
   3   7  -1   -0.21    0.44
  -3  -7   1   -0.51    1.24
  -2   7  -1   13.30    2.03
  -3   7  -1    3.19    1.09
   3  -7   1    3.59    0.97
  -4   7  -1   25.31    2.34
   4  -7   1   17.36    3.47
   7   6  -1    7.34    1.32
  -7  -6   1    7.89    1.67
   6   6  -1    2.43    1.10
  -6  -6   1    3.43    0.83
   5   6  -1   15.53    3.03
  -5  -6   1   19.41    1.89
   4   6  -1   53.61    3.74
  -4  -6   1   61.36    3.17
   3   6  -1   63.14    3.74
  -3  -6   1   67.25    3.45
   2   6  -1  132.56    6.28
  -2  -6   1  125.29    5.96
   1   6  -1    6.34    1.36
  -1   6  -1   57.85    3.20
   1  -6   1   54.41    3.12
  -2   6  -1   58.16    3.21
   2  -6   1   55.04    3.05
  -4   6  -1    2.86    1.00
   4  -6   1    4.10    1.39
   5  -6   1   -0.34    0.82
  -8  -5   1    6.77    1.57
  -7  -5   1    3.43    0.75
  -7  -5   1    3.57    1.14
   6   5  -1    8.90    1.69
  -6  -5   1   12.52    1.55
   5   5  -1   38.34    2.48
  -5  -5   1   40.65    2.39
   4   5  -1  115.87    5.37
  -4  -5   1  115.36    5.32
   3   5  -1   46.05    2.63
  -3  -5   1   46.60    2.57
   2   5  -1   13.67    1.56
  -2  -5   1   14.65    1.51
   1   5  -1    8.11    1.34
  -1  -5   1    9.32    1.39
   0   5  -1   20.56    1.64
   0  -5   1   18.25    1.46
   0  -5   1   21.67    1.69
  -1   5  -1   39.91    2.26
   1  -5   1   35.75    2.11
  -2   5  -1   58.85    3.09
   2  -5   1   57.55    2.96
  -3   5  -1   29.43    2.21
  -4   5  -1   82.65    3.89
  -4   5  -1   74.50    4.17
   4  -5   1   67.37    3.74
  -5   5  -1    1.13    0.81
  -5   5  -1   -0.15    0.80
  -6   5  -1    5.37    0.96
  -6   5  -1    4.77    1.00
   6  -5   1    6.28    1.09
  -8  -4   1    0.63    1.11
  -7  -4   1   12.40    2.08
  -6  -4   1    1.18    0.59
  -6  -4   1   -1.35    0.98
   5   4  -1   22.07    1.78
  -5  -4   1   25.14    1.70
   4   4  -1   23.93    1.71
  -4  -4   1   24.03    1.64
   3   4  -1   16.33    1.45
  -3  -4   1   16.85    1.40
   2   4  -1  249.78   10.75
  -2  -4   1  247.30   10.74
   1   4  -1   45.35    2.47
  -1  -4   1   47.70    2.50
   0   4  -1    2.98    0.60
   0  -4   1    2.70    0.59
  -1   4  -1   33.66    1.97
   1  -4   1   32.08    2.00
   1  -4   1   32.65    1.83
  -2   4  -1  132.17    5.88
   2  -4   1  130.48    5.82
  -3   4  -1   36.08    2.16
  -3   4  -1   35.01    2.06
   3  -4   1   34.82    2.06
  -4   4  -1   57.63    3.06
  -4   4  -1   64.68    3.14
   4  -4   1   54.25    3.07
  -5   4  -1    8.24    1.58
  -5   4  -1    8.91    1.62
   5  -4   1    7.48    1.01
  -6   4  -1    1.71    0.87
  -6   4  -1    1.19    0.77
  -7   4  -1    2.04    0.95
  -7   4  -1    2.46    0.83
   7  -4   1    3.39    1.06
  -8  -3   1   12.02    1.32
  -7  -3   1    0.73    1.05
  -6  -3   1   15.39    2.07
  -6  -3   1   20.05    1.64
  -5  -3   1   88.33    4.38
  -5  -3   1   90.30    4.39
   4   3  -1   16.64    1.31
  -4  -3   1   18.44    1.46
   3   3  -1  167.97    7.02
  -3  -3   1  153.63    7.09
   2   3  -1  290.74   12.27
  -2  -3   1  281.62   12.32
   1   3  -1  168.56    7.68
  -1  -3   1  184.98    7.72
   0   3  -1    9.82    1.20
   0  -3   1   11.67    1.24
  -1   3  -1  122.51    5.49
   1  -3   1  124.26    5.43
  -2   3  -1  145.79    6.28
  -2   3  -1  144.45    6.33
   2  -3   1  140.01    6.27
  -3   3  -1   58.51    2.77
  -3   3  -1   56.63    2.83
   3  -3   1   57.55    2.77
  -4   3  -1   16.67    1.54
  -4   3  -1   16.39    1.43
   4  -3   1   14.85    1.44
  -5   3  -1    2.46    0.73
  -5   3  -1    3.12    0.80
   5  -3   1    3.14    0.83
  -6   3  -1   20.21    1.90
  -6   3  -1   15.99    1.69
   6  -3   1   16.92    1.68
  -7   3  -1    0.46    0.69
  -7   3  -1    0.24    0.84
   7  -3   1    1.10    0.83
  -8  -2   1    0.40    1.05
  -7  -2   1    4.07    1.03
  -6  -2   1   84.86    4.29
  -5  -2   1   27.33    2.07
  -4  -2   1   21.76    1.23
  -4  -2   1   22.82    1.67
   3   2  -1   28.63    2.13
  -3  -2   1   32.74    1.64
  -2  -2   1   15.32    1.08
   1   2  -1  172.42    7.40
  -1  -2   1  169.08    7.33
  -1   2  -1   26.05    1.43
   1  -2   1   27.05    1.36
  -2   2  -1   23.90    1.53
  -2   2  -1   26.00    1.41
   2  -2   1   25.79    1.41
  -3   2  -1  287.98   12.34
  -3   2  -1  283.87   12.32
   3  -2   1  293.53   12.34
  -4   2  -1   81.76    3.74
  -4   2  -1   79.28    3.75
   4  -2   1   83.82    3.77
  -5   2  -1   78.22    3.71
  -5   2  -1   75.64    3.72
   5  -2   1   80.12    3.74
  -6   2  -1   30.98    2.00
  -6   2  -1   26.30    1.90
   6  -2   1   27.67    2.51
  -7   2  -1   24.84    1.97
  -7   2  -1   25.56    1.75
  -8   2  -1    0.18    0.88
   8  -2   1    2.01    0.93
  -8  -1   1    4.72    1.16
  -7  -1   1    8.63    1.77
  -6  -1   1    9.50    1.74
  -5  -1   1   -0.46    0.72
  -4  -1   1    2.80    0.64
  -3  -1   1  107.04    4.83
   2   1  -1   13.26    0.78
  -2  -1   1   13.33    1.22
  -2  -1   1   13.69    0.77
   1   1  -1   61.45    2.70
   1  -1   1  231.81    9.82
  -2   1  -1   55.66    2.48
   2  -1   1   56.48    2.49
  -3   1  -1   35.18    1.81
  -4   1  -1  150.88    6.59
   4  -1   1  151.53    6.60
  -5   1  -1  136.61    6.12
   5  -1   1  139.27    6.13
  -6   1  -1   22.37    1.76
   6  -1   1   19.57    1.79
  -7   1  -1   54.37    2.93
  -7   1  -1   52.10    2.70
  -8   1  -1   10.28    1.65
  -8   0   1    4.08    1.15
  -7   0   1    1.36    0.96
  -6   0   1   57.24    3.89
  -5   0   1   13.16    1.61
   4   0  -1   -0.65    0.56
  -4   0   1    1.01    0.59
  -3   0   1    1.93    0.59
   2   0  -1  135.36    5.92
  -2   0   1  137.32    5.99
   1   0  -1  239.95    9.98
  -1   0   1  228.99    9.97
  -2   0  -1  186.35    7.98
   2   0   1  189.72    7.98
  -3   0  -1   93.86    4.14
   3   0   1   95.68    4.16
  -4   0  -1   76.65    3.58
   4   0   1   80.77    3.59
  -5   0  -1    6.64    1.07
  -6   0  -1  240.39   10.46
  -7   0  -1    0.22    0.78
  -7   0  -1    0.77    0.76
  -8   0  -1   10.63    1.68
  -7   1   1    3.23    1.02
   5  -1  -1   12.94    2.45
  -5   1   1   19.76    1.80
   4  -1  -1   30.42    1.92
  -4   1   1   32.59    1.94
   3  -1  -1   38.92    2.13
  -3   1   1   41.51    2.18
   2  -1  -1   58.60    2.75
  -2   1   1   58.32    2.77
   1  -1  -1   68.71    2.98
   1  -1  -1   71.45    3.07
  -1   1   1   63.24    2.97
  -1   1   1   72.30    3.08
  -3  -1  -1  210.28    8.71
  -3  -1  -1  197.36    8.71
  -4  -1  -1   59.62    2.72
  -4  -1  -1   53.73    2.67
  -5  -1  -1   13.63    1.06
  -5  -1  -1   13.55    1.19
  -7  -1  -1   33.44    2.20
  -7  -1  -1   34.81    2.05
  -8  -1  -1    5.66    0.99
  -9  -1  -1    8.66    1.78
   7  -2  -1    1.35    1.40
  -7   2   1    2.16    1.01
  -6   2   1    0.41    0.89
   5  -2  -1    6.22    0.95
  -5   2   1    8.31    1.64
   4  -2  -1   58.12    3.05
  -4   2   1   61.54    3.08
   3  -2  -1   23.43    1.54
  -3   2   1   21.46    1.31
  -3   2   1   25.47    1.58
   2  -2  -1   16.36    1.10
   2  -2  -1   16.68    1.26
  -2   2   1   14.29    1.32
  -2   2   1   13.26    1.08
   1  -2  -1   75.54    3.36
   1  -2  -1   78.15    3.34
  -1   2   1   71.35    3.33
  -3  -2  -1  371.26   15.44
  -3  -2  -1  365.30   15.51
   3   2   1  357.55   15.51
  -4  -2  -1   26.85    1.44
  -4  -2  -1   22.94    1.54
  -5  -2  -1   21.50    1.49
  -5  -2  -1   19.31    1.40
  -5  -2  -1   23.70    1.63
  -6  -2  -1  130.10    5.64
  -6  -2  -1  117.38    5.47
  -7  -2  -1    9.02    1.19
  -7  -2  -1   11.23    1.53
  -8  -2  -1   -0.63    0.79
  -8  -2  -1    0.26    0.50
  -8  -2  -1   -0.02    0.66
  -9  -2  -1    4.14    1.00
  -9  -2  -1    6.70    1.36
   7  -3  -1    3.38    0.95
  -7   3   1    1.29    1.01
   6  -3  -1    5.72    1.01
  -6   3   1    4.81    1.01
   4  -3  -1    8.64    1.55
  -4   3   1    8.91    1.55
  -4   3   1    5.82    1.14
   3  -3  -1   42.48    2.36
  -3   3   1   45.91    2.38
  -3   3   1   41.60    2.18
   2  -3  -1    2.08    0.54
   2  -3  -1    0.18    0.78
  -2   3   1    1.10    0.44
  -2   3   1    1.54    0.54
   1  -3  -1    9.84    1.45
   1  -3  -1   10.75    1.11
  -1   3   1   11.23    1.18
  -1   3   1    9.81    1.17
   0  -3  -1  172.54    7.35
   0  -3  -1  164.32    7.20
   0   3   1  165.82    7.21
   0   3   1  163.59    7.23
  -2  -3  -1  275.55   11.45
   2   3   1  258.06   11.35
   2   3   1  260.76   11.25
  -4  -3  -1  111.23    4.92
  -4  -3  -1  118.27    5.07
   4   3   1  111.67    5.10
  -5  -3  -1   80.24    3.70
  -5  -3  -1   80.13    3.57
  -6  -3  -1  101.06    4.66
  -6  -3  -1  101.11    4.66
  -6  -3  -1  105.29    4.83
  -7  -3  -1   10.76    1.67
  -7  -3  -1   13.64    1.30
  -7  -3  -1   13.06    1.34
  -8  -3  -1    4.50    0.71
  -8  -3  -1    4.24    0.93
  -8  -3  -1    4.03    0.62
  -9  -3  -1   -1.56    0.88
  -9  -3  -1   -0.22    0.69
  -9  -3  -1   -0.58    0.56
   6  -4  -1    0.13    0.99
  -6   4   1   -1.13    0.93
   5  -4  -1   24.53    2.08
  -5   4   1   21.66    1.60
  -5   4   1   20.87    2.09
   4  -4  -1    0.33    0.54
  -4   4   1    0.33    0.63
  -3   4   1  148.95    6.76
  -3   4   1  151.15    6.65
   2  -4  -1   36.25    2.05
   2  -4  -1   36.25    2.07
  -2   4   1   36.54    2.04
  -2   4   1   34.80    2.08
   1  -4  -1  107.98    4.79
   1  -4  -1  108.03    4.82
  -1   4   1  102.68    4.80
  -1   4   1  106.36    4.80
   0  -4  -1   39.94    2.08
   0  -4  -1   40.43    2.20
   0   4   1   37.80    2.18
  -1  -4  -1  170.81    7.44
  -1  -4  -1  172.63    7.50
   1   4   1  178.56    7.43
   1   4   1  161.58    7.49
  -2  -4  -1  329.11   14.39
   2   4   1  331.44   14.40
   2   4   1  346.71   14.28
  -3  -4  -1   18.95    1.46
   3   4   1   16.63    1.53
   3   4   1   18.57    1.17
  -4  -4  -1   51.99    2.61
   4   4   1   51.12    2.67
  -5  -4  -1   29.61    1.83
   5   4   1   27.62    1.92
  -6  -4  -1   -0.13    0.56
  -7  -4  -1   15.56    1.90
  -7  -4  -1   18.15    1.53
  -8  -4  -1   16.67    1.46
  -8  -4  -1   21.36    1.61
  -8  -4  -1   20.96    2.05
  -9  -4  -1    7.56    1.34
  -9  -4  -1   13.04    1.42
  -9  -4  -1   10.29    1.86
  -5   5   1    5.09    1.04
  -5   5   1    4.30    0.80
   4  -5  -1   70.89    3.87
  -4   5   1   62.88    3.52
  -4   5   1   61.76    3.28
   3  -5  -1   19.22    1.60
   2  -5  -1  202.74    8.78
   2  -5  -1  202.05    8.68
  -2   5   1  185.18    8.70
  -2   5   1  197.36    8.67
   1  -5  -1   16.76    1.58
   1  -5  -1   15.35    1.44
  -1   5   1   17.36    1.57
   0  -5  -1   10.06    1.14
   0  -5  -1    8.35    0.92
   0   5   1    7.05    1.35
  -1  -5  -1   14.59    1.24
  -1  -5  -1   14.80    1.44
   1   5   1   14.44    1.27
   1   5   1   13.35    1.41
  -2  -5  -1   16.27    1.43
   2   5   1   13.58    1.44
   2   5   1   14.36    1.18
  -3  -5  -1   24.33    1.66
   3   5   1   20.48    1.69
   3   5   1   22.80    1.35
   4   5   1  120.14    5.53
  -5  -5  -1   78.44    3.72
   5   5   1   72.81    3.82
  -6  -5  -1    1.95    0.65
   6   5   1    1.08    0.91
  -7  -5  -1   12.32    1.55
  -8  -5  -1    4.90    1.12
  -9  -5  -1   25.52    1.96
   5  -6  -1    1.39    1.16
  -5   6   1   -0.35    0.88
  -5   6   1    0.06    1.23
   4  -6  -1    5.60    1.27
  -4   6   1    3.01    1.03
  -4   6   1    3.30    0.91
   3  -6  -1   43.30    2.81
  -3   6   1   39.47    2.77
  -3   6   1   49.90    3.39
   2  -6  -1   36.54    2.49
  -2   6   1   40.98    2.87
   1  -6  -1  171.12    8.29
   1  -6  -1  193.43    8.40
  -1   6   1  198.02    8.40
   0  -6  -1   22.36    1.99
   0   6   1   23.71    1.97
  -1  -6  -1    7.52    1.57
   1   6   1    8.63    1.37
   1   6   1    6.04    0.84
  -2  -6  -1  101.61    4.85
  -2  -6  -1  101.33    4.72
   2   6   1  108.12    4.66
   2   6   1   98.59    4.85
   3   6   1  139.98    6.16
   3   6   1  141.21    6.45
  -4  -6  -1   68.05    3.43
   4   6   1   64.04    3.66
  -5  -6  -1   59.60    2.99
   5   6   1   45.20    3.87
  -6  -6  -1    4.39    0.81
   6   6   1    4.11    0.96
  -7  -6  -1    3.46    0.83
  -8  -6  -1   14.32    2.54
   4  -7  -1   22.46    3.24
  -4   7   1   18.82    2.04
   3  -7  -1    0.93    1.62
  -3   7   1    2.34    0.95
   2  -7  -1   21.03    2.11
  -2   7   1   24.93    2.13
   1  -7  -1   27.48    3.62
  -1   7   1   34.94    2.46
   0  -7  -1   63.44    4.12
   0   7   1   67.84    3.59
  -1  -7  -1   76.11    3.99
   1   7   1   79.47    3.75
   1   7   1   69.03    3.92
  -2  -7  -1  132.14    6.09
   2   7   1  124.17    5.79
   3   7   1   48.92    2.55
  -4  -7  -1    7.11    1.86
   4   7   1    4.41    0.87
  -6  -7  -1    0.54    0.71
   6   7   1    0.22    0.72
  -7  -7  -1    2.56    0.85
  -8  -7  -1    0.47    0.81
   2  -8  -1   -0.20    0.95
  -2   8   1   -0.33    0.84
   1  -8  -1    2.70    0.84
   1  -8  -1    4.35    1.03
  -1   8   1    4.60    1.13
   0  -8  -1    2.62    0.99
   0   8   1    2.90    0.81
  -1  -8  -1    9.86    1.90
   1   8   1    9.83    2.01
   1   8   1   10.18    1.70
  -2  -8  -1   14.41    2.03
   2   8   1   14.17    1.66
  -3  -8  -1    8.63    1.65
  -3  -8  -1   10.28    1.91
   3   8   1    9.57    1.45
  -4  -8  -1   20.56    2.10
   4   8   1   19.73    2.20
   4   8   1   15.21    1.50
  -5  -8  -1   37.33    2.65
   5   8   1   36.44    2.85
  -6  -8  -1   17.39    2.08
   6   8   1   17.06    2.40
  -7  -8  -1    9.46    1.94
   7   8   1    7.85    1.48
   1  -9  -1    5.54    1.19
  -1   9   1    5.55    1.15
   0  -9  -1    1.68    0.89
   0  -9  -1    2.36    0.95
   0   9   1    0.98    1.03
   0   9   1    2.14    0.97
  -1  -9  -1    5.05    0.93
  -1  -9  -1    6.57    1.16
   1   9   1    8.88    1.92
  -2  -9  -1    5.06    1.09
  -2  -9  -1    8.44    1.91
   2   9   1    6.01    1.00
  -3  -9  -1    1.11    0.87
  -3  -9  -1    1.36    1.52
   3   9   1    2.88    0.85
  -4  -9  -1   12.09    2.21
  -4  -9  -1    7.91    1.68
   4   9   1    8.33    1.44
   4   9   1   15.62    3.29
  -5  -9  -1   17.25    2.36
   5   9   1   19.17    2.60
  -6  -9  -1   55.02    3.52
   6   9   1   54.94    3.65
   3   9  -2   -1.40    1.19
   2   9  -2    7.21    1.31
   2   9  -2    5.35    1.42
   1   9  -2   61.09    3.76
  -1  -9   2   55.23    3.38
   0   9  -2    4.99    1.39
   0  -9   2    3.91    1.01
   5   8  -2    2.09    1.14
  -5  -8   2    0.79    0.94
   4   8  -2    1.28    1.02
  -4  -8   2    0.32    1.01
   3   8  -2    3.33    1.08
  -3  -8   2    2.31    0.98
   2   8  -2    0.09    0.95
   1   8  -2    6.19    1.20
  -1  -8   2    8.36    1.70
   0   8  -2   34.35    2.57
   0  -8   2   27.94    2.28
  -1   8  -2   23.72    2.43
   1  -8   2   18.51    1.94
  -2   8  -2   48.61    3.83
   2  -8   2   38.26    2.84
  -3   8  -2    2.38    1.03
   3  -8   2    3.65    1.06
  -5  -7   2   15.26    2.01
   3   7  -2   -0.16    0.64
  -3  -7   2    0.90    0.78
   0  -7   2    0.15    0.32
  -1   7  -2   83.81    4.33
  -2   7  -2   23.04    2.34
  -3   7  -2   19.51    2.28
   3  -7   2   17.46    1.86
  -4   7  -2    0.60    0.91
   4  -7   2    0.70    0.95
   6   6  -2    9.92    2.18
   5   6  -2    5.04    1.06
   4   6  -2   61.30    3.69
  -4  -6   2   67.38    3.46
   3   6  -2   -0.59    0.82
  -3  -6   2   -0.11    0.75
   2   6  -2   35.76    2.58
  -2  -6   2   37.30    2.47
   1   6  -2    0.22    0.74
  -1  -6   2   -0.39    0.71
   0   6  -2    8.15    1.24
   1  -6   2  114.74    5.33
  -2   6  -2   36.29    2.58
   2  -6   2   38.15    2.32
   3  -6   2   12.89    1.41
  -4   6  -2    8.78    1.90
  -5   6  -2    2.93    0.97
   5  -6   2    4.31    0.95
  -7  -5   2   -0.34    1.09
  -6  -5   2    0.44    1.11
   5   5  -2   64.00    3.38
   4   5  -2   10.84    1.73
  -4  -5   2   16.19    1.70
   3   5  -2   93.54    4.59
  -3  -5   2   97.15    4.54
   2   5  -2  108.56    5.04
  -2  -5   2  107.09    5.02
   1   5  -2   10.56    1.49
  -1  -5   2   11.17    1.54
   0   5  -2   36.99    2.27
   1  -5   2    5.46    0.74
  -2   5  -2  119.07    5.52
   2  -5   2  117.78    5.39
  -3   5  -2   25.98    2.87
   3  -5   2   25.70    1.90
  -4   5  -2   56.52    3.24
   4  -5   2   57.54    3.04
  -6   5  -2    6.18    1.11
   6  -5   2    4.88    0.94
  -7  -4   2    0.97    1.14
  -6  -4   2    3.57    1.18
   5   4  -2    8.44    1.41
   4   4  -2   32.06    2.03
   3   4  -2   22.76    1.75
  -3  -4   2   24.50    1.70
   2   4  -2   68.35    3.32
  -2  -4   2   68.07    3.30
   1   4  -2  159.53    7.06
   0   4  -2   10.72    1.32
  -1   4  -2   53.73    2.83
   1  -4   2   57.42    2.71
   2  -4   2    8.21    1.09
  -3   4  -2  114.13    5.33
   3  -4   2  117.21    5.22
  -4   4  -2  179.55    8.01
   4  -4   2  178.58    7.91
  -5   4  -2   40.03    2.28
  -5   4  -2   35.11    2.53
   5  -4   2   32.81    3.35
  -6   4  -2   25.81    2.90
  -6   4  -2   30.86    2.35
  -7   4  -2    4.44    0.91
  -7   4  -2    4.51    0.98
   7  -4   2    5.73    1.05
  -7  -3   2    0.86    1.10
  -6  -3   2    0.44    1.07
   5   3  -2   13.05    1.22
  -5  -3   2   13.26    2.13
   4   3  -2   16.22    1.33
   3   3  -2  117.03    5.21
   2   3  -2  284.85   12.22
   1   3  -2  110.58    4.99
   0   3  -2   37.90    2.15
  -1   3  -2   51.31    2.66
  -2   3  -2  105.56    4.80
   2  -3   2  105.23    4.68
  -3   3  -2  116.44    5.24
   3  -3   2  115.36    5.14
  -4   3  -2   74.62    3.65
  -4   3  -2   76.43    3.51
   4  -3   2   73.81    3.53
  -5   3  -2    8.03    1.64
  -5   3  -2    6.72    1.33
   5  -3   2    8.67    0.92
  -6   3  -2    0.54    0.68
   6  -3   2   -1.45    1.07
  -7   3  -2    3.90    0.91
  -7   3  -2    4.54    0.90
  -8   3  -2   11.72    2.37
  -7  -2   2   10.96    1.53
  -7  -2   2   13.03    2.05
  -6  -2   2    5.86    1.17
  -6  -2   2    8.28    1.33
  -5  -2   2   44.45    2.77
  -5  -2   2   42.03    2.24
  -4  -2   2   16.76    1.72
   3   2  -2  251.22   11.26
  -3  -2   2  268.67   11.28
   2   2  -2   77.97    3.53
   1   2  -2   46.22    2.30
   1   2  -2   46.56    2.12
   0   2  -2   12.50    1.08
   0   2  -2   12.58    0.89
   2  -2   2  230.20    9.83
  -3   2  -2  193.26    8.15
   3  -2   2  182.00    8.07
  -4   2  -2  109.86    4.85
   4  -2   2  109.58    4.87
  -5   2  -2    7.68    1.20
   5  -2   2   11.98    1.26
  -6   2  -2   31.71    2.01
   6  -2   2   32.57    2.02
  -7   2  -2    7.29    1.41
  -7   2  -2    6.11    0.91
   7  -2   2    8.08    1.45
  -8   2  -2    4.06    0.91
  -8   2  -2    5.08    0.88
  -7  -1   2    1.08    1.05
  -7  -1   2   -0.32    1.50
  -6  -1   2   52.34    3.10
  -6  -1   2   50.32    2.78
  -5  -1   2   17.99    1.88
  -5  -1   2   15.52    1.55
  -4  -1   2   14.15    1.29
  -4  -1   2   15.65    1.57
  -3  -1   2   61.56    2.82
  -3  -1   2   60.06    3.03
  -2  -1   2    4.23    0.74
  -2  -1   2    3.64    0.58
   1   1  -2  101.33    4.44
  -1  -1   2  104.08    4.44
   0   1  -2  283.80   11.85
   0  -1   2  275.04   11.85
   2  -1   2   61.54    2.69
  -4   1  -2  321.88   13.98
   4  -1   2  332.66   13.94
  -5   1  -2   48.42    2.39
   5  -1   2   48.81    2.41
  -6   1  -2   55.86    2.93
   6  -1   2   61.49    2.97
  -7   1  -2   18.67    1.62
  -8   1  -2   16.28    2.57
  -7   0   2    4.06    1.09
  -7   0   2    4.50    1.14
  -6   0   2    2.26    0.95
  -5   0   2   47.53    2.84
  -4   0   2   14.79    1.55
   3   0  -2   39.88    2.15
  -3   0   2   37.94    2.15
   2   0  -2   67.31    3.25
  -2   0   2   71.52    3.19
  -2   0   2   66.95    3.25
   1   0  -2  122.91    5.35
  -1   0   2  120.92    5.35
  -1   0   2  125.11    5.40
  -2   0  -2  101.72    4.44
  -3   0  -2  180.59    7.72
   3   0   2  182.74    7.72
  -4   0  -2    7.30    0.86
   4   0   2    4.94    0.85
  -5   0  -2  149.20    6.50
  -6   0  -2  213.96    9.29
  -7   0  -2    8.90    1.41
  -8   0  -2   -0.85    0.74
  -9   0  -2    1.64    0.55
  -9   0  -2    1.69    0.84
  -7   1   2   -0.22    1.08
  -7   1   2    1.07    1.08
  -6   1   2   60.23    3.44
  -5   1   2   16.63    3.19
   4  -1  -2    2.62    0.80
  -4   1   2    3.72    0.79
   3  -1  -2   35.91    2.07
  -3   1   2   38.33    2.11
   2  -1  -2  140.34    6.12
  -2   1   2  139.28    6.11
  -2   1   2  136.29    6.12
   1  -1  -2   37.40    1.92
   1  -1  -2   34.73    1.75
  -1   1   2   43.55    2.47
  -1   1   2   38.14    1.94
  -1  -1  -2  217.13    9.30
  -1  -1  -2  224.82    9.35
   1   1   2  216.50    9.30
  -2  -1  -2  169.48    7.58
   2   1   2  184.78    7.64
  -4  -1  -2  114.71    5.07
  -4  -1  -2  113.83    4.97
  -5  -1  -2   99.14    4.42
  -5  -1  -2   97.34    4.36
  -6  -1  -2   99.85    4.55
  -7  -1  -2  165.05    7.13
  -7  -1  -2  155.80    7.04
  -8  -1  -2   18.37    1.69
  -8  -1  -2   18.30    1.44
  -9  -1  -2    2.32    0.78
  -9  -1  -2    1.59    0.53
  -9  -1  -2    1.69    0.82
   6  -2  -2   12.28    1.82
  -6   2   2   11.01    1.89
  -5   2   2    3.07    0.93
   4  -2  -2    1.98    0.73
  -4   2   2    3.20    0.84
   3  -2  -2   68.79    3.40
  -3   2   2   71.77    3.44
   2  -2  -2    9.47    1.12
   2  -2  -2    9.87    0.84
  -2   2   2    7.95    1.19
  -2   2   2    8.27    0.83
   1  -2  -2   39.06    2.04
   1  -2  -2   41.70    1.94
  -1   2   2   35.74    2.07
  -1   2   2   38.19    2.09
  -1   2   2   40.52    2.15
   0  -2  -2  130.35    5.56
   0  -2  -2  124.98    5.55
   0   2   2  123.77    5.56
   0   2   2  137.02    5.61
   0   2   2  124.20    5.63
  -1  -2  -2   43.19    2.00
  -1  -2  -2   43.98    2.03
   1   2   2   42.76    2.01
   1   2   2   41.35    2.04
   1   2   2   38.92    1.95
  -2  -2  -2  218.10    9.73
  -2  -2  -2  230.68    9.80
   2   2   2  236.52    9.75
  -3  -2  -2  108.84    5.78
  -3  -2  -2  135.15    5.37
   3   2   2  124.12    5.35
  -4  -2  -2  313.66   13.27
  -4  -2  -2  305.21   13.26
  -5  -2  -2   66.98    3.03
  -5  -2  -2   63.67    3.09
  -5  -2  -2   63.63    3.02
  -6  -2  -2  113.92    5.14
  -6  -2  -2  111.02    5.12
  -6  -2  -2  116.50    5.11
  -7  -2  -2   15.63    1.49
  -7  -2  -2   14.73    1.49
  -7  -2  -2   13.76    1.43
  -8  -2  -2   19.16    1.50
  -8  -2  -2   18.83    1.66
  -8  -2  -2   17.48    1.70
  -9  -2  -2    3.29    0.96
  -9  -2  -2    5.79    1.21
  -9  -2  -2    2.80    0.93
   6  -3  -2    3.11    0.87
  -6   3   2    2.13    1.05
   5  -3  -2    1.40    0.88
  -5   3   2    0.23    0.91
   4  -3  -2    2.95    0.70
  -4   3   2    4.27    1.41
   3  -3  -2   27.90    1.96
  -3   3   2   27.75    1.92
  -3   3   2   22.00    1.50
   2  -3  -2  161.14    6.78
   2  -3  -2  157.30    6.87
  -2   3   2  149.28    6.74
  -2   3   2  154.87    6.89
   1  -3  -2   85.03    4.21
   1  -3  -2   94.00    4.15
  -1   3   2   95.23    4.21
  -1   3   2   88.48    4.08
  -1   3   2   92.72    4.17
   0  -3  -2  242.88   10.43
   0  -3  -2  228.41   10.73
   0   3   2  240.53   10.44
   0   3   2  259.93   10.49
   0   3   2  242.59   10.43
  -1  -3  -2  438.36   19.46
  -1  -3  -2  490.39   19.54
   1   3   2  466.67   19.49
   1   3   2  440.24   19.50
  -2  -3  -2   82.04    3.64
  -2  -3  -2   78.74    3.61
  -2  -3  -2   82.25    3.75
   2   3   2   81.56    3.65
   2   3   2   79.76    3.76
  -3  -3  -2  314.03   13.84
  -3  -3  -2  329.98   13.95
   3   3   2  330.34   13.85
   3   3   2  327.44   13.96
  -4  -3  -2   79.91    3.63
  -4  -3  -2   76.81    3.46
   4   3   2   73.71    3.46
  -5  -3  -2   47.99    2.46
  -5  -3  -2   47.01    2.44
  -6  -3  -2   19.62    1.75
  -6  -3  -2   24.03    1.74
  -6  -3  -2   26.46    1.59
  -7  -3  -2   41.97    2.23
  -7  -3  -2   40.61    2.40
  -7  -3  -2   39.94    2.32
  -8  -3  -2    6.10    0.93
  -8  -3  -2    8.26    1.33
  -8  -3  -2    5.22    0.76
  -9  -3  -2    5.98    0.98
  -9  -3  -2    7.43    1.32
  -9  -3  -2    5.08    0.80
   6  -4  -2    0.79    1.50
   5  -4  -2   11.78    1.87
  -5   4   2    7.93    1.19
  -4   4   2   29.08    1.75
  -4   4   2   27.49    2.29
   3  -4  -2  112.14    5.28
  -3   4   2  110.03    5.09
  -3   4   2  116.81    5.35
   2  -4  -2   32.95    2.00
   2  -4  -2   33.03    1.91
  -2   4   2   27.60    1.87
  -2   4   2   31.75    2.05
   1  -4  -2   36.51    1.95
   1  -4  -2   32.27    1.97
  -1   4   2   35.04    2.03
  -1   4   2   34.20    1.94
   0  -4  -2   47.38    2.40
   0  -4  -2   48.64    2.34
   0   4   2   39.87    2.37
   0   4   2   46.95    2.44
   0   4   2   46.00    2.37
  -1  -4  -2   84.02    3.90
  -1  -4  -2   85.47    3.99
   1   4   2   89.96    3.97
   1   4   2   83.24    3.99
  -2  -4  -2  418.89   17.73
  -2  -4  -2  401.11   17.63
   2   4   2  413.85   17.72
   2   4   2  424.40   17.64
  -3  -4  -2  260.16   11.56
  -3  -4  -2  287.00   11.55
   3   4   2  261.53   11.58
   3   4   2  262.33   11.44
  -4  -4  -2   36.34    1.87
  -4  -4  -2   37.45    2.12
   4   4   2   38.29    1.89
   4   4   2   38.13    2.19
  -5  -4  -2    3.37    0.63
  -6  -4  -2   33.80    1.97
  -6  -4  -2   39.67    2.26
  -7  -4  -2   30.47    2.00
  -7  -4  -2   25.72    2.12
  -7  -4  -2   30.38    1.78
  -8  -4  -2    1.48    0.64
  -8  -4  -2    2.85    0.90
  -8  -4  -2    2.61    0.67
  -9  -4  -2    2.42    0.73
  -9  -4  -2    2.92    0.72
  -9  -4  -2    3.48    0.90
   5  -5  -2    0.85    0.91
  -5   5   2   -1.05    0.95
  -5   5   2    0.44    0.61
   4  -5  -2   21.61    2.10
  -4   5   2   21.65    1.69
  -4   5   2   17.34    2.02
  -3   5   2   29.87    2.01
  -3   5   2   28.49    2.32
   2  -5  -2   39.13    2.33
  -2   5   2   39.37    2.29
  -2   5   2   33.71    2.44
   1  -5  -2   28.15    2.17
   1  -5  -2   23.49    1.84
  -1   5   2   21.84    1.78
  -1   5   2   23.74    1.84
   0  -5  -2   16.73    1.54
   0  -5  -2   19.59    1.42
   0   5   2   16.54    1.54
   0   5   2   17.50    1.57
  -1  -5  -2  102.11    4.65
  -1  -5  -2  101.30    4.75
   1   5   2  107.30    4.71
   1   5   2   99.76    4.74
  -2  -5  -2   35.05    2.05
  -2  -5  -2   31.36    1.89
   2   5   2   35.77    1.92
   2   5   2   33.56    2.09
  -3  -5  -2  139.50    6.26
   3   5   2  137.03    6.26
   3   5   2  140.64    6.10
  -4  -5  -2  244.33   10.65
   4   5   2  250.03   10.47
   4   5   2  237.75   10.67
  -5  -5  -2   26.82    1.95
  -5  -5  -2   24.30    1.72
   5   5   2   23.08    2.03
  -6  -5  -2   17.45    1.70
  -7  -5  -2    0.91    0.65
  -8  -5  -2   14.97    1.64
  -8  -5  -2   11.90    1.81
  -9  -5  -2   14.09    1.75
  -9  -5  -2   14.51    1.89
   4  -6  -2    4.28    1.13
  -4   6   2    1.99    1.04
  -4   6   2    1.68    1.12
  -4   6   2    3.60    0.97
   3  -6  -2    6.23    1.15
  -3   6   2    5.30    1.26
  -3   6   2    8.93    1.70
  -3   6   2    5.00    1.10
   2  -6  -2   52.96    2.92
  -2   6   2   54.07    2.92
  -2   6   2   47.51    3.06
   1  -6  -2    8.14    1.68
  -1   6   2   11.74    1.69
  -1   6   2    9.01    1.73
  -1   6   2    4.83    1.82
   0  -6  -2   40.36    2.58
   0   6   2   46.71    2.89
   0   6   2   41.00    2.59
  -1  -6  -2   59.89    3.28
  -1  -6  -2   72.70    3.31
   1   6   2   59.05    3.32
   1   6   2   58.91    3.23
  -2  -6  -2   25.52    2.03
  -2  -6  -2   29.23    1.83
   2   6   2   28.12    1.89
   2   6   2   27.01    2.11
  -3  -6  -2  110.93    5.14
  -3  -6  -2  112.92    5.28
   3   6   2  112.87    5.37
   3   6   2  113.59    5.07
  -4  -6  -2   37.35    2.32
   4   6   2   32.95    2.02
  -5  -6  -2  160.27    7.42
   5   6   2  162.12    7.12
   5   6   2  170.44    7.56
  -6  -6  -2    0.67    0.72
   6   6   2   -0.99    0.80
  -7  -6  -2    1.21    0.81
  -8  -6  -2   18.19    1.84
  -9  -6  -2    3.23    0.88
   3  -7  -2    9.91    1.98
  -3   7   2    7.26    1.24
  -3   7   2    9.90    1.77
   2  -7  -2   18.15    2.83
   2  -7  -2   14.21    2.04
  -2   7   2   18.73    1.94
  -2   7   2   13.47    2.16
   1  -7  -2   36.94    3.28
  -1   7   2   46.87    2.74
   0  -7  -2   39.60    2.87
   0   7   2   31.76    2.36
   0   7   2   43.79    2.60
  -1  -7  -2    3.82    0.95
   1   7   2    1.96    1.62
   1   7   2    3.67    1.01
  -2  -7  -2   45.52    2.64
  -2  -7  -2   47.05    2.92
   2   7   2   47.29    2.70
  -3  -7  -2    5.91    1.11
  -3  -7  -2    9.34    1.49
   3   7   2    5.66    0.84
  -4  -7  -2   10.23    2.25
   4   7   2    9.32    1.37
  -5  -7  -2    3.78    0.97
  -6  -7  -2    5.83    0.95
  -7  -7  -2    3.42    0.92
  -8  -7  -2    3.63    0.94
   2  -8  -2    3.42    1.25
  -2   8   2    2.84    1.01
  -2   8   2    1.46    1.19
   1  -8  -2   64.94    3.81
   1  -8  -2   69.76    4.09
  -1   8   2   75.05    3.91
   0  -8  -2   27.39    2.22
   0  -8  -2   18.03    2.20
   0   8   2   24.79    2.34
   0   8   2   15.60    2.69
  -1  -8  -2    5.58    1.02
   1   8   2    4.92    0.81
  -2  -8  -2    8.11    1.58
  -2  -8  -2    5.61    1.05
   2   8   2    7.29    1.15
   2   8   2    6.76    1.05
  -3  -8  -2    6.47    1.01
  -3  -8  -2    4.15    0.83
   3   8   2    6.64    0.92
  -4  -8  -2   22.23    1.93
  -4  -8  -2   20.75    2.12
   4   8   2   19.40    1.74
   4   8   2   21.54    3.03
  -5  -8  -2   22.10    2.16
   5   8   2   21.71    1.66
   5   8   2   21.46    2.44
  -6  -8  -2    3.54    0.83
   6   8   2    4.24    1.08
  -7  -8  -2   -0.27    0.75
   7   8   2    0.72    0.99
   0  -9  -2   27.77    2.65
   0  -9  -2   31.10    2.51
   0   9   2   31.79    3.93
   0   9   2   38.15    3.04
  -1  -9  -2    5.93    1.09
   1   9   2    5.26    1.22
   1   9   2    7.56    2.24
  -2  -9  -2    7.52    1.72
   2   9   2    6.37    1.82
  -3  -9  -2    2.56    1.12
  -3  -9  -2    4.28    1.08
   3   9   2    2.56    0.93
  -4  -9  -2    5.19    1.13
  -4  -9  -2    5.29    1.21
   4   9   2    6.84    1.77
   4   9   2    5.11    0.94
  -5  -9  -2   35.28    2.85
  -5  -9  -2   38.62    4.15
   5   9   2   43.09    3.22
   5   9   2   34.00    2.22
  -6  -9  -2   22.90    2.44
   6   9   2   24.54    2.84
   4   8  -3   -0.38    1.37
   3   8  -3    0.89    1.21
   2   8  -3   -1.85    1.13
   1   8  -3    6.18    1.41
   0  -8   3   16.09    1.91
  -1   8  -3   24.94    2.53
   1  -8   3   23.70    2.03
  -2   8  -3    7.29    1.18
   2  -8   3    6.68    1.34
  -3   8  -3    1.38    1.16
   1   7  -3   63.26    3.12
  -2   7  -3   41.27    2.94
  -3   7  -3   -0.43    0.95
   3  -7   3    0.66    0.89
  -4   7  -3   13.89    3.09
   4  -7   3   14.11    1.81
   6   6  -3   -0.26    1.03
  -6  -6   3   -0.97    1.41
   5   6  -3   12.72    1.93
   4   6  -3    0.77    0.90
   3   6  -3   -0.66    0.87
   2   6  -3   49.65    2.99
   1   6  -3   61.23    3.38
   1   6  -3   59.98    2.91
   0   6  -3    4.55    0.83
   1  -6   3    2.65    0.79
  -2   6  -3   77.63    4.12
   2  -6   3   82.12    3.95
  -3   6  -3   20.13    2.19
   3  -6   3   18.59    1.74
  -5   6  -3    1.65    0.97
   5  -6   3    1.91    0.99
   6   5  -3    7.39    1.55
  -6  -5   3    4.30    1.24
   5   5  -3    3.40    0.85
   4   5  -3   79.99    4.04
   3   5  -3   20.59    1.99
   2   5  -3   12.46    1.78
   1   5  -3   10.00    1.71
   0   5  -3    3.98    0.81
  -2   5  -3    7.32    1.60
   2  -5   3    6.63    1.36
  -3   5  -3   88.16    4.46
   3  -5   3   89.95    4.23
  -4   5  -3   92.08    4.65
  -5   5  -3   13.72    2.02
   5  -5   3   12.18    1.59
  -6   5  -3    6.48    1.08
  -6  -4   3   -1.82    1.11
  -5  -4   3    4.16    1.17
   4   4  -3   10.18    1.53
   3   4  -3   58.80    3.05
   2   4  -3  115.33    5.30
   1   4  -3   33.86    1.78
   1   4  -3   35.50    2.14
   0   4  -3    9.34    1.04
   0   4  -3    8.50    1.38
  -1   4  -3    4.05    0.65
  -2   4  -3   63.89    3.31
   2  -4   3   66.25    3.12
  -3   4  -3    3.09    0.80
   3  -4   3    3.93    0.71
   4  -4   3  115.34    5.24
  -5   4  -3   13.19    1.95
   5  -4   3   13.64    1.55
  -6   4  -3   -0.26    0.88
   6  -4   3    0.44    0.73
  -7   4  -3   10.59    2.04
  -7  -3   3   -0.22    2.00
  -6  -3   3   -1.07    1.11
  -5  -3   3   24.22    2.44
   4   3  -3   14.99    1.39
  -4  -3   3   17.94    2.04
   3   3  -3   54.04    2.72
   2   3  -3  322.51   13.83
   1   3  -3   31.66    1.66
   1   3  -3   32.48    1.94
   0   3  -3   19.32    1.39
   0   3  -3   19.00    1.56
  -1   3  -3   83.34    3.88
  -1   3  -3   88.04    4.02
  -2   3  -3   78.49    3.84
   2  -3   3   83.80    3.69
   3  -3   3   13.42    1.12
   4  -3   3    7.83    1.06
  -5   3  -3    9.84    1.78
   5  -3   3   14.29    1.38
  -6   3  -3    9.96    1.59
  -6   3  -3   12.36    1.38
   6  -3   3   10.08    1.43
  -7   3  -3    4.38    0.96
  -7   3  -3    5.30    0.81
   7  -3   3    4.08    0.85
  -8   3  -3   17.29    2.16
  -8   3  -3   18.17    1.73
  -7  -2   3    1.02    1.73
  -7  -2   3    0.15    0.87
  -6  -2   3    7.14    1.42
  -6  -2   3    4.02    1.19
  -5  -2   3   38.44    2.16
  -5  -2   3   35.85    2.72
  -4  -2   3    3.76    0.66
  -4  -2   3    6.09    1.04
  -3  -2   3    3.79    0.87
   2   2  -3    3.45    0.53
  -2  -2   3    2.47    0.47
   1   2  -3  275.26   11.38
   1   2  -3  268.98   11.29
  -1  -2   3  250.93   11.29
   0   2  -3  291.93   12.44
  -1   2  -3   93.79    4.34
  -2   2  -3   17.77    1.43
   3  -2   3   86.89    3.85
   4  -2   3    9.01    0.95
  -5   2  -3    5.53    0.65
   5  -2   3    5.51    1.05
  -6   2  -3   12.61    1.32
   6  -2   3   15.59    1.37
  -7   2  -3    5.51    0.78
   7  -2   3    6.57    1.29
  -8   2  -3   26.94    2.33
  -8   2  -3   24.63    1.84
   8  -2   3   25.13    1.83
  -7  -1   3    6.50    1.73
  -7  -1   3    5.79    1.10
  -6  -1   3   11.84    2.12
  -6  -1   3   14.48    1.73
  -5  -1   3    3.61    1.07
  -4  -1   3   -0.05    0.82
  -3  -1   3   23.72    1.55
  -3  -1   3   25.47    1.85
   2   1  -3    1.31    0.38
  -2  -1   3    2.18    0.66
  -2  -1   3    1.79    0.48
   1   1  -3   59.13    2.84
  -1  -1   3   58.25    2.83
  -1  -1   3   64.68    2.99
   0   1  -3  372.32   15.76
   0  -1   3  369.88   15.76
  -1   1  -3  437.77   18.45
   1  -1   3  430.87   18.43
  -2   1  -3   29.51    1.73
  -3   1  -3   66.54    3.15
   3  -1   3   65.25    2.90
  -4   1  -3   84.14    3.61
   4  -1   3   80.12    3.73
  -5   1  -3    3.21    0.73
   5  -1   3    2.74    0.49
  -6   1  -3   15.20    1.27
   6  -1   3   16.41    1.35
  -7   1  -3   40.50    2.21
  -8   1  -3    0.93    0.67
  -9   1  -3   40.10    2.72
  -9   1  -3   41.53    2.42
  -6   0   3   18.01    2.15
  -6   0   3   18.47    1.95
  -5   0   3   36.62    2.27
  -5   0   3   29.88    2.45
  -4   0   3    4.11    0.79
  -4   0   3    5.35    0.96
  -3   0   3    7.24    1.34
  -3   0   3    7.48    1.21
  -2   0   3   22.82    1.57
  -2   0   3   22.18    1.49
   1   0  -3   25.90    2.21
  -1   0   3   28.51    1.69
  -1   0   3   28.57    1.71
   0   0  -3  127.38    5.68
   0   0   3  131.07    5.65
   0   0   3  131.53    5.68
  -1   0  -3  304.65   12.90
   1   0   3  301.06   12.82
   1   0   3  302.17   12.89
  -2   0  -3  108.25    4.97
   2   0   3  110.69    4.84
  -3   0  -3  172.03    7.48
  -4   0  -3  177.84    7.76
  -5   0  -3  182.65    7.90
  -5   0  -3  186.49    8.07
  -6   0  -3   20.49    1.45
  -6   0  -3   25.18    1.77
  -7   0  -3   62.41    2.98
  -7   0  -3   59.10    3.20
  -8   0  -3    0.65    0.67
  -8   0  -3    1.48    0.80
  -9   0  -3    0.09    0.65
  -9   0  -3   -0.83    0.79
  -9   0  -3    0.20    0.76
  -6   1   3   27.80    2.42
  -6   1   3   30.77    2.54
  -5   1   3    4.10    1.05
  -4   1   3   19.28    1.82
  -4   1   3   16.74    1.84
   3  -1  -3    7.42    1.32
  -3   1   3    4.88    0.75
   2  -1  -3   62.66    2.93
  -2   1   3   56.39    2.94
  -2   1   3   59.93    2.95
   1  -1  -3   16.17    1.16
   1  -1  -3   18.87    1.36
  -1   1   3   18.19    1.42
  -1   1   3   17.84    1.48
   0  -1  -3   46.58    2.31
   0  -1  -3   48.30    2.38
   0   1   3   46.83    2.37
   0   1   3   48.63    2.39
  -1  -1  -3  112.84    4.75
   1   1   3  111.45    4.83
   1   1   3  104.71    4.75
   2   1   3   97.90    4.34
  -3  -1  -3   29.59    1.79
   3   1   3   31.56    1.78
  -4  -1  -3  250.44   10.78
  -5  -1  -3   97.82    4.30
  -5  -1  -3   98.95    4.47
  -6  -1  -3  128.47    5.75
  -6  -1  -3  133.56    5.89
  -8  -1  -3    1.69    0.67
  -8  -1  -3    2.32    0.78
  -8  -1  -3    0.65    0.71
  -9  -1  -3   13.22    1.67
  -9  -1  -3   12.12    1.41
  -9  -1  -3   10.29    1.50
   6  -2  -3    0.98    0.97
  -6   2   3    0.53    1.03
  -6   2   3    0.35    1.21
   5  -2  -3    3.94    0.97
  -5   2   3    5.29    1.04
  -5   2   3    6.34    1.12
  -4   2   3   63.81    3.49
  -4   2   3   66.90    3.53
   3  -2  -3    9.02    1.82
  -3   2   3   12.21    1.65
   2  -2  -3   13.99    0.93
   2  -2  -3   13.50    1.29
  -2   2   3   13.34    1.39
  -2   2   3   10.92    1.43
   1  -2  -3   35.68    1.82
   1  -2  -3   36.23    1.98
  -1   2   3   36.64    2.03
  -1   2   3   36.01    2.10
   0  -2  -3    3.10    0.60
   0  -2  -3    2.19    0.54
   0  -2  -3    1.61    0.50
   0   2   3    3.12    0.60
   0   2   3    2.49    0.59
  -1  -2  -3   34.92    1.76
  -1  -2  -3   35.53    1.91
   1   2   3   36.30    1.94
   1   2   3   32.58    1.78
  -2  -2  -3   15.84    1.44
  -2  -2  -3   18.82    1.27
  -2  -2  -3   18.40    1.01
   2   2   3   17.30    1.31
  -3  -2  -3  143.74    6.25
  -3  -2  -3  139.45    6.32
   3   2   3  144.31    6.24
  -4  -2  -3   55.44    2.71
  -4  -2  -3   52.28    2.81
   4   2   3   57.24    2.70
  -5  -2  -3   47.10    2.42
  -5  -2  -3   41.73    2.14
  -5  -2  -3   45.93    2.30
  -6  -2  -3  356.00   14.99
  -6  -2  -3  337.89   14.85
  -6  -2  -3  351.42   14.94
  -7  -2  -3  151.04    6.79
  -7  -2  -3  149.87    6.70
  -7  -2  -3  155.50    6.81
  -8  -2  -3   12.07    1.47
  -8  -2  -3   11.72    1.54
  -9  -2  -3   23.87    1.72
  -9  -2  -3   23.53    2.07
  -9  -2  -3   21.69    1.81
   5  -3  -3    5.14    1.24
  -5   3   3    4.14    1.28
  -5   3   3    3.23    1.07
  -4   3   3    0.79    0.91
  -4   3   3    0.95    0.93
  -3   3   3   55.16    3.04
  -3   3   3   52.63    3.03
   2  -3  -3   14.35    1.21
   2  -3  -3   16.60    1.48
  -2   3   3   15.47    1.54
  -2   3   3   13.03    1.62
   1  -3  -3    4.43    0.65
   1  -3  -3    4.84    0.63
  -1   3   3    2.74    0.52
  -1   3   3    3.51    0.68
  -1   3   3    4.13    0.68
   0  -3  -3  217.77    9.24
   0  -3  -3  210.50    9.24
   0   3   3  213.18    9.26
   0   3   3  210.29    9.23
   0   3   3  217.77    9.31
  -1  -3  -3   41.16    2.16
  -1  -3  -3   39.38    2.13
  -1  -3  -3   37.44    1.96
   1   3   3   35.77    2.02
   1   3   3   38.76    2.14
   1   3   3   35.85    2.14
  -2  -3  -3   31.45    1.81
  -2  -3  -3   31.65    1.64
  -2  -3  -3   29.77    1.95
   2   3   3   30.45    1.84
  -3  -3  -3   84.50    3.89
  -3  -3  -3   88.55    4.13
  -3  -3  -3   86.86    3.99
   3   3   3   92.39    4.02
  -4  -3  -3   67.60    3.16
  -4  -3  -3   68.88    3.32
   4   3   3   67.04    3.16
  -5  -3  -3   32.01    1.94
  -5  -3  -3   29.69    1.76
  -6  -3  -3  126.54    5.70
  -6  -3  -3  128.22    5.80
  -7  -3  -3   40.93    2.43
  -7  -3  -3   43.97    2.35
  -7  -3  -3   38.98    2.28
  -8  -3  -3   20.23    1.70
  -8  -3  -3   21.07    1.73
  -8  -3  -3   17.73    1.62
  -9  -3  -3    6.66    1.36
  -9  -3  -3    4.09    0.80
  -9  -3  -3    3.61    0.84
   5  -4  -3   14.11    1.91
  -5   4   3   10.23    1.64
  -5   4   3   14.58    1.99
   4  -4  -3   -0.86    0.91
  -4   4   3   -1.52    0.92
  -3   4   3   42.05    2.72
  -3   4   3   42.90    2.75
  -2   4   3    1.30    0.64
  -2   4   3    1.16    0.59
   1  -4  -3   33.84    1.91
   1  -4  -3   33.96    1.99
  -1   4   3   33.10    2.06
  -1   4   3   28.79    1.93
  -1   4   3   30.86    2.10
   0  -4  -3  123.94    5.45
   0  -4  -3  121.16    5.43
   0   4   3  120.68    5.53
   0   4   3  121.01    5.45
   0   4   3  120.78    5.46
  -1  -4  -3  330.37   14.63
  -1  -4  -3  349.07   14.70
   1   4   3  346.52   14.66
   1   4   3  345.16   14.69
   1   4   3  340.61   14.69
  -2  -4  -3   13.61    1.42
  -2  -4  -3   13.04    1.31
  -2  -4  -3   11.43    1.15
   2   4   3   15.34    1.45
   2   4   3   13.20    1.31
  -3  -4  -3   78.28    3.65
  -3  -4  -3   75.26    3.51
  -3  -4  -3   73.07    3.45
   3   4   3   76.55    3.53
   3   4   3   75.98    3.65
  -4  -4  -3    3.03    0.53
  -4  -4  -3    2.53    0.57
   4   4   3    2.69    0.54
  -5  -4  -3   10.30    1.14
  -5  -4  -3   12.39    1.45
   5   4   3   10.75    1.20
  -6  -4  -3    6.30    1.18
  -6  -4  -3    5.85    0.79
  -7  -4  -3   21.00    1.77
  -7  -4  -3   18.52    1.58
  -8  -4  -3   93.38    4.50
  -8  -4  -3   96.08    4.39
  -8  -4  -3   91.59    4.44
  -9  -4  -3   27.08    2.61
  -9  -4  -3   26.72    1.98
  -9  -4  -3   23.72    1.91
   4  -5  -3    3.29    0.98
  -4   5   3    3.12    1.44
  -4   5   3    2.43    1.07
  -3   5   3   14.65    2.11
  -3   5   3   13.76    1.59
  -3   5   3   14.51    1.98
   2  -5  -3   19.76    1.65
  -2   5   3   15.41    1.68
  -2   5   3   14.62    1.94
   1  -5  -3    2.19    0.71
  -1   5   3    2.55    0.72
  -1   5   3    0.52    0.73
  -1   5   3    2.10    0.85
   0  -5  -3   14.48    1.43
   0  -5  -3   13.43    1.50
   0   5   3   13.04    1.66
   0   5   3   14.00    1.56
   0   5   3   11.04    1.51
  -1  -5  -3    9.10    1.36
   1   5   3    7.68    1.43
   1   5   3    7.98    1.41
  -2  -5  -3  155.42    6.99
  -2  -5  -3  154.39    6.87
   2   5   3  158.84    7.00
   2   5   3  156.33    6.92
  -3  -5  -3   72.13    3.52
  -3  -5  -3   64.22    3.31
   3   5   3   73.61    3.53
   3   5   3   72.01    3.37
  -4  -5  -3   49.19    2.57
  -4  -5  -3   53.04    2.80
   4   5   3   50.28    2.61
   4   5   3   52.07    2.86
  -5  -5  -3   58.61    2.91
  -5  -5  -3   62.42    3.20
   5   5   3   63.35    2.93
   5   5   3   54.52    3.23
  -6  -5  -3   10.99    1.65
  -6  -5  -3   10.67    1.23
  -7  -5  -3    3.18    0.84
  -7  -5  -3    2.76    0.63
  -8  -5  -3    2.90    0.66
  -8  -5  -3    3.27    1.00
  -9  -5  -3   27.12    2.04
  -9  -5  -3   22.14    1.73
  -9  -5  -3   23.01    2.02
   3  -6  -3    0.35    1.16
  -3   6   3   -1.05    1.66
  -3   6   3    1.41    0.78
  -3   6   3   -1.14    0.96
  -2   6   3    4.90    1.09
  -2   6   3    7.87    1.60
   1  -6  -3   59.75    3.18
  -1   6   3   55.88    3.30
  -1   6   3   59.88    3.19
   0  -6  -3    4.97    0.89
   0  -6  -3    6.64    0.91
   0   6   3    3.74    0.87
   0   6   3    5.51    0.97
  -1  -6  -3   16.45    1.77
   1   6   3   16.77    1.85
   1   6   3   19.31    1.87
  -2  -6  -3  103.69    4.86
  -2  -6  -3  104.20    5.01
   2   6   3  108.39    5.16
   2   6   3  106.80    4.96
  -3  -6  -3  287.73   12.49
  -3  -6  -3  287.76   12.64
   3   6   3  292.51   12.50
  -4  -6  -3  113.79    5.32
  -4  -6  -3  108.02    5.13
   4   6   3  116.62    5.14
   4   6   3  111.12    5.37
   5   6   3  136.46    6.50
   5   6   3  141.72    6.19
  -6  -6  -3   -0.95    0.77
  -6  -6  -3   -0.50    0.57
   6   6   3    1.09    0.63
  -7  -6  -3    1.51    0.68
  -7  -6  -3    1.18    0.59
  -8  -6  -3    1.81    0.73
  -9  -6  -3    7.76    1.31
  -9  -6  -3    8.60    1.76
  -9  -6  -3   11.72    1.77
  -3   7   3   22.12    2.04
   2  -7  -3   -0.56    1.26
  -2   7   3    0.31    0.88
   1  -7  -3    1.10    1.41
   1  -7  -3    3.98    1.03
  -1   7   3    0.28    0.97
  -1   7   3    2.33    0.96
   0  -7  -3   17.66    1.89
   0   7   3   18.63    1.99
  -1  -7  -3   -0.48    1.32
   1   7   3    1.93    0.99
   1   7   3    2.11    0.96
  -2  -7  -3   41.07    2.34
   2   7   3   36.99    2.67
   2   7   3   33.25    3.21
  -3  -7  -3   42.54    2.40
  -3  -7  -3   37.15    3.51
   3   7   3   39.06    2.43
  -4  -7  -3   20.61    1.78
  -4  -7  -3   21.08    2.03
   4   7   3   19.84    1.77
  -5  -7  -3   46.43    2.92
   5   7   3   48.18    2.60
  -6  -7  -3   15.23    1.88
   6   7   3   18.30    1.49
  -7  -7  -3   18.52    1.95
  -8  -7  -3    1.69    0.83
   1  -8  -3    7.28    1.31
  -1   8   3    4.84    1.31
   0  -8  -3    4.57    1.44
   0  -8  -3    2.44    0.97
   0   8   3    3.97    1.02
   0   8   3    1.66    1.01
  -1  -8  -3    3.91    0.93
  -1  -8  -3    1.52    0.88
   1   8   3    2.94    1.07
  -2  -8  -3   -1.03    0.90
  -2  -8  -3   -0.80    0.77
   2   8   3   -0.50    0.68
   2   8   3   -0.41    0.77
  -3  -8  -3    5.40    0.92
  -3  -8  -3    2.49    0.95
   3   8   3    3.73    0.94
   3   8   3    3.84    0.93
  -4  -8  -3   23.38    2.27
  -4  -8  -3   25.71    2.02
   4   8   3   26.07    2.01
  -5  -8  -3   59.14    3.25
  -5  -8  -3   59.27    3.50
   5   8   3   59.40    3.62
   5   8   3   62.01    3.15
   6   8   3   32.13    2.73
   6   8   3   31.75    1.98
  -7  -8  -3   10.27    1.87
   7   8   3    8.83    1.82
   0  -9  -3   19.10    2.31
   0   9   3   27.70    2.50
  -1  -9  -3    8.19    1.25
  -1  -9  -3    5.15    1.17
   1   9   3    8.42    1.41
   1   9   3   13.10    2.56
  -2  -9  -3    9.70    2.01
   2   9   3   10.64    1.98
   2   9   3    6.74    1.34
  -3  -9  -3   -1.06    0.92
  -3  -9  -3   -1.15    1.25
   3   9   3   -1.67    1.45
   3   9   3   -0.14    0.46
  -4  -9  -3    2.66    1.05
  -4  -9  -3    1.22    0.79
   4   9   3    2.03    0.92
   4   9   3    2.48    1.04
  -5  -9  -3    2.87    0.88
  -5  -9  -3    4.12    1.17
   5   9   3    5.55    1.32
   5   9   3    3.02    0.96
  -6  -9  -3   33.15    3.40
  -6  -9  -3   27.69    2.65
   6   9   3   30.28    2.01
   6   9   3   30.35    3.04
   2   8  -4    3.68    1.25
   1   8  -4    1.22    1.13
   1   8  -4    1.17    0.73
   0   8  -4    1.66    0.83
   0   8  -4    0.55    1.12
  -1   8  -4   -0.68    0.87
  -1   8  -4   -1.50    1.08
   1  -8   4   -0.85    1.44
  -2   8  -4   12.85    1.84
   2  -8   4    7.07    2.13
   4   7  -4    6.30    1.26
   3   7  -4    3.56    1.14
   2   7  -4    0.67    0.99
   1   7  -4   12.65    2.18
   1   7  -4   10.46    1.44
   0   7  -4    9.53    1.49
   0   7  -4    9.01    2.04
  -1   7  -4    3.23    0.88
  -1   7  -4    2.38    1.05
  -2   7  -4   13.15    2.40
  -3   7  -4    6.49    1.48
   3  -7   4    7.41    1.45
  -4   7  -4    3.26    1.29
   4  -7   4    4.25    1.06
   5   6  -4   -0.32    0.95
  -5  -6   4    1.10    1.49
   4   6  -4    9.86    1.68
   3   6  -4    1.35    0.72
   0   6  -4   17.90    1.60
  -1   6  -4  111.86    5.17
   2  -6   4   14.61    1.66
  -3   6  -4   16.42    2.26
   3  -6   4   18.77    1.68
   5   5  -4   14.90    1.79
  -5  -5   4   13.78    2.26
   4   5  -4    0.66    0.86
   3   5  -4    3.38    1.00
   1   5  -4    1.43    0.59
   1   5  -4    0.68    0.77
   0   5  -4   37.82    2.13
   0   5  -4   37.63    2.58
  -1   5  -4   81.86    3.91
  -1   5  -4   82.27    4.18
  -2   5  -4   84.22    4.01
   2  -5   4   81.95    4.00
  -3   5  -4    8.45    1.93
   3  -5   4   12.78    1.48
  -4   5  -4    8.76    1.98
   4  -5   4    8.61    1.45
  -5   5  -4   57.54    3.46
   5  -5   4   56.43    3.01
  -6   5  -4    0.61    1.12
   6  -5   4    0.34    0.48
  -6  -4   4    2.04    1.36
   5   4  -4   18.22    1.57
  -5  -4   4   12.96    2.29
   4   4  -4    0.56    0.72
  -4  -4   4    0.97    1.06
   3   4  -4    1.57    0.78
   2   4  -4    0.93    0.74
   1   4  -4   42.10    2.64
   1   4  -4   37.34    2.49
   0   4  -4   13.08    1.76
   0   4  -4   18.39    1.35
  -1   4  -4    0.19    0.55
  -1   4  -4   -0.29    0.70
  -2   4  -4   44.48    2.53
  -2   4  -4   48.81    3.07
  -3   4  -4   67.31    3.65
   3  -4   4   72.10    3.37
  -4   4  -4  139.81    6.53
   4  -4   4  140.20    6.24
  -5   4  -4   88.02    4.50
   5  -4   4   87.72    4.14
  -6   4  -4    7.42    1.11
   6  -4   4   10.51    1.44
  -7   4  -4    9.43    2.12
   7  -4   4   10.11    1.38
  -6  -3   4    0.50    1.29
  -5  -3   4    2.03    1.15
   4   3  -4    8.60    1.29
  -4  -3   4    8.53    1.27
   3   3  -4    3.04    0.67
  -3  -3   4    2.86    1.04
   2   3  -4   21.75    1.73
   1   3  -4   88.19    4.18
   0   3  -4   21.33    1.40
   0   3  -4   19.60    1.70
  -1   3  -4   35.24    2.14
  -1   3  -4   34.43    1.92
  -2   3  -4   71.18    3.39
  -3   3  -4   48.58    2.70
   3  -3   4   54.89    2.53
   4  -3   4  109.93    4.91
   5  -3   4    2.72    0.66
   6  -3   4    1.55    0.65
  -7   3  -4    2.21    0.97
   7  -3   4    3.19    0.74
   8  -3   4    4.53    0.85
  -6  -2   4    0.31    1.14
  -5  -2   4   20.27    2.31
  -5  -2   4   20.73    1.76
  -4  -2   4    9.75    1.45
  -4  -2   4   11.83    2.04
   3   2  -4   80.73    3.74
  -3  -2   4   78.21    3.78
  -3  -2   4   86.00    4.17
   2   2  -4  115.25    5.13
  -2  -2   4  109.34    5.07
  -2  -2   4  118.99    5.35
   1   2  -4   35.53    1.82
   1   2  -4   29.81    1.98
  -1  -2   4   33.87    1.79
   0   2  -4   43.15    2.13
   0  -2   4   40.22    2.14
  -1   2  -4   28.27    1.69
  -2   2  -4   16.95    1.35
  -3   2  -4  106.23    4.83
   3  -2   4  106.76    4.66
  -4   2  -4   47.33    2.54
   4  -2   4   48.28    2.26
  -5   2  -4   29.21    2.06
   5  -2   4   30.88    1.68
   6  -2   4   17.18    1.34
  -7   2  -4    9.36    1.74
   7  -2   4   14.56    1.32
  -8   2  -4    3.23    0.70
  -8   2  -4    2.67    0.93
  -6  -1   4    0.87    1.19
  -6  -1   4    1.44    1.14
  -5  -1   4    7.01    1.24
  -4  -1   4    6.28    1.13
  -3  -1   4   25.01    2.08
  -3  -1   4   23.88    1.79
   2   1  -4   22.65    1.42
  -2  -1   4   20.35    1.80
  -2  -1   4   23.51    1.56
   1   1  -4   38.44    2.03
  -1  -1   4   37.12    2.16
  -1  -1   4   39.34    2.04
   0  -1   4    2.28    0.54
   0  -1   4    0.98    0.61
  -1   1  -4  281.50   11.82
   1  -1   4  269.51   11.81
  -2   1  -4   84.11    3.88
   2  -1   4   83.34    3.91
  -3   1  -4  153.51    6.76
  -4   1  -4  327.22   14.05
  -5   1  -4   19.14    1.59
   5  -1   4   17.91    1.56
  -6   1  -4   34.50    2.23
  -6   1  -4   35.16    2.17
  -7   1  -4    3.44    0.84
  -8   1  -4   15.09    1.88
  -8   1  -4   17.33    1.34
  -9   1  -4   30.14    1.86
  -9   1  -4   27.48    2.36
  -6   0   4    4.02    1.14
  -6   0   4    5.38    1.88
  -5   0   4    4.38    1.14
  -4   0   4    6.68    1.11
  -3   0   4   -0.59    0.69
  -2   0   4    1.46    0.62
  -2   0   4    1.06    0.70
   1   0  -4   89.20    3.97
  -1   0   4   82.25    3.98
  -1   0   4   86.61    3.96
   0   0  -4  333.80   14.63
   0   0   4  346.65   14.62
   0   0   4  347.51   14.64
  -1   0  -4  988.27   42.02
   1   0   4  994.28   41.95
   1   0   4 1000.00   42.02
  -2   0  -4   42.13    2.20
   2   0   4   38.35    2.20
  -3   0  -4   45.16    2.41
   3   0   4   46.64    2.44
  -4   0  -4   14.22    1.36
  -5   0  -4    9.14    1.27
  -6   0  -4  155.27    6.95
  -7   0  -4    9.97    1.03
  -8   0  -4    0.77    0.54
  -8   0  -4    0.74    0.75
  -9   0  -4    6.25    1.18
  -9   0  -4    5.74    1.06
  -6   1   4    0.81    1.12
  -6   1   4    1.24    1.37
  -5   1   4   37.30    2.63
  -5   1   4   37.66    2.80
  -4   1   4   14.24    1.81
  -4   1   4   12.38    1.96
   3  -1  -4    0.67    0.63
  -3   1   4    2.34    0.80
  -3   1   4    2.16    0.89
   2  -1  -4   45.67    2.47
  -2   1   4   43.09    2.50
  -2   1   4   43.54    2.49
   1  -1  -4   42.35    2.00
   1  -1  -4   41.42    2.20
  -1   1   4   39.13    2.20
  -1   1   4   37.42    2.23
   0  -1  -4  363.14   15.88
   0  -1  -4  377.54   15.86
   0   1   4  374.37   15.90
   0   1   4  372.16   15.86
  -1  -1  -4   67.15    2.87
  -1  -1  -4   65.70    3.01
   1   1   4   52.65    2.90
   1   1   4   61.89    3.03
  -2  -1  -4   76.59    3.42
  -2  -1  -4   78.50    3.64
   2   1   4   81.17    3.64
   2   1   4   75.86    3.43
  -3  -1  -4   57.49    2.85
   3   1   4   57.35    2.83
  -4  -1  -4   49.17    2.61
   4   1   4   52.19    2.60
  -5  -1  -4   55.55    2.80
  -6  -1  -4   20.50    1.70
  -7  -1  -4  135.04    6.09
  -7  -1  -4  132.20    5.86
  -8  -1  -4    4.73    0.98
  -8  -1  -4    3.24    0.63
  -9  -1  -4    4.15    0.83
  -9  -1  -4    5.86    0.90
  -9  -1  -4    5.41    0.76
   5  -2  -4    3.25    1.04
  -5   2   4    3.33    1.10
  -5   2   4    4.32    1.15
  -4   2   4    5.59    1.03
  -4   2   4    6.08    1.10
  -3   2   4   15.73    1.95
  -3   2   4   15.03    2.75
   2  -2  -4    3.78    0.87
  -2   2   4    2.53    0.81
   1  -2  -4   11.10    1.01
   1  -2  -4    9.39    1.22
  -1   2   4    9.29    1.33
  -1   2   4    7.26    1.38
   0  -2  -4   50.34    2.47
   0  -2  -4   51.53    2.60
   0  -2  -4   46.34    2.47
   0   2   4   51.58    2.59
   0   2   4   46.77    2.51
  -1  -2  -4   47.96    2.41
  -1  -2  -4   50.08    2.55
  -1  -2  -4   49.01    2.55
   1   2   4   53.67    2.59
   1   2   4   48.54    2.45
  -2  -2  -4   97.32    4.46
  -2  -2  -4   94.67    4.24
  -2  -2  -4   94.85    4.40
   2   2   4   95.29    4.25
   2   2   4  101.38    4.42
  -3  -2  -4    7.92    1.21
  -3  -2  -4    8.51    0.68
   3   2   4    7.95    1.19
  -4  -2  -4   66.35    3.18
   4   2   4   65.62    3.16
  -5  -2  -4   39.87    2.24
  -6  -2  -4   63.26    2.90
  -6  -2  -4   64.51    3.23
  -7  -2  -4  136.09    6.28
  -7  -2  -4  145.37    6.36
  -7  -2  -4  135.43    6.08
  -8  -2  -4    0.80    0.77
  -8  -2  -4    2.53    0.76
  -8  -2  -4    1.45    0.63
  -9  -2  -4    3.27    0.77
  -9  -2  -4    1.52    0.69
  -9  -2  -4    2.25    0.72
   5  -3  -4    1.03    1.25
  -5   3   4   -1.10    1.75
  -5   3   4    0.47    1.60
   4  -3  -4    4.54    0.98
  -4   3   4    4.86    1.11
  -4   3   4    4.11    1.10
  -3   3   4   10.37    1.73
  -3   3   4   13.75    1.89
   2  -3  -4   62.38    3.23
   2  -3  -4   61.46    3.26
  -2   3   4   60.88    3.34
  -2   3   4   63.33    3.32
   1  -3  -4   26.53    1.66
   1  -3  -4   27.35    1.82
  -1   3   4   25.74    1.91
  -1   3   4   27.54    2.00
   0  -3  -4   42.18    2.29
   0  -3  -4   43.02    2.30
   0   3   4   44.70    2.45
   0   3   4   45.31    2.35
  -1  -3  -4  132.48    5.83
  -1  -3  -4  126.64    5.75
  -1  -3  -4  132.96    5.85
   1   3   4  131.31    5.85
   1   3   4  128.69    5.77
  -2  -3  -4    4.89    0.72
  -2  -3  -4    3.54    0.69
  -2  -3  -4    5.10    0.84
   2   3   4    4.40    0.59
   2   3   4    3.90    0.65
  -3  -3  -4   44.25    2.46
  -3  -3  -4   41.73    2.08
  -3  -3  -4   44.25    2.31
   3   3   4   46.08    2.34
  -4  -3  -4   81.92    3.87
  -4  -3  -4   81.46    3.75
  -4  -3  -4   78.57    3.55
   4   3   4   80.19    3.75
  -5  -3  -4    8.42    1.41
  -5  -3  -4    9.03    1.22
   5   3   4    7.83    1.25
  -6  -3  -4   97.59    4.65
  -6  -3  -4  102.42    4.76
  -7  -3  -4    7.82    0.81
  -7  -3  -4    8.53    1.53
  -8  -3  -4   48.50    2.55
  -8  -3  -4   51.81    2.85
  -8  -3  -4   50.34    2.78
  -9  -3  -4    8.30    1.31
   4  -4  -4   -0.64    0.82
  -4   4   4   -2.77    2.50
  -4   4   4    0.27    0.99
  -3   4   4   48.57    2.98
  -3   4   4   49.08    3.08
   2  -4  -4   59.39    2.87
  -2   4   4   57.50    3.22
  -2   4   4   54.96    3.25
   1  -4  -4    4.20    0.81
   1  -4  -4    2.93    0.62
  -1   4   4    3.63    0.87
   0  -4  -4    7.56    1.26
   0  -4  -4    6.77    1.26
   0   4   4    6.34    0.90
   0   4   4    7.98    1.50
  -1  -4  -4   39.94    2.29
  -1  -4  -4   39.18    2.17
   1   4   4   41.05    2.24
   1   4   4   41.59    2.35
  -2  -4  -4  117.72    5.33
  -2  -4  -4  114.80    5.17
  -2  -4  -4  114.87    5.28
   2   4   4  118.05    5.30
  -3  -4  -4   67.83    3.22
  -3  -4  -4   72.63    3.49
  -3  -4  -4   69.44    3.36
   3   4   4   70.56    3.39
  -4  -4  -4   17.42    1.62
  -4  -4  -4   17.75    1.40
  -4  -4  -4   16.53    1.19
   4   4   4   17.30    1.48
  -5  -4  -4    5.06    0.83
  -5  -4  -4    3.76    0.66
   5   4   4    4.76    0.73
  -6  -4  -4   11.91    1.70
  -6  -4  -4   11.00    1.43
   6   4   4   12.53    1.52
  -7  -4  -4  100.04    4.78
  -7  -4  -4  106.25    4.94
  -8  -4  -4   23.87    1.89
  -8  -4  -4   27.76    2.25
  -8  -4  -4   21.89    1.72
  -9  -4  -4   29.75    1.96
  -9  -4  -4   32.47    2.21
  -9  -4  -4   28.32    2.11
  -4   5   4    4.78    1.43
  -4   5   4    5.25    1.31
  -3   5   4    9.74    1.85
  -3   5   4   10.93    1.94
   2  -5  -4   13.95    1.52
   2  -5  -4   11.25    1.88
  -2   5   4   10.95    1.81
   1  -5  -4   13.92    1.77
   1  -5  -4   15.15    1.57
  -1   5   4   11.46    1.69
  -1   5   4   17.31    2.09
   0  -5  -4    0.89    0.65
   0  -5  -4    2.38    0.76
   0   5   4    1.41    0.83
   0   5   4    0.09    0.85
   0   5   4    0.66    0.75
  -1  -5  -4   28.71    1.92
  -1  -5  -4   28.97    2.01
   1   5   4   28.27    2.09
   1   5   4   28.71    2.06
   1   5   4   32.78    2.37
  -2  -5  -4   45.85    2.47
  -2  -5  -4   47.75    2.70
   2   5   4   49.54    2.72
   2   5   4   46.90    2.64
  -3  -5  -4   66.42    3.27
  -3  -5  -4   65.66    3.39
  -3  -5  -4   64.26    3.13
   3   5   4   65.70    3.28
   3   5   4   63.87    3.40
  -4  -5  -4   78.21    3.85
  -4  -5  -4   82.50    4.02
  -4  -5  -4   80.30    3.74
   4   5   4   82.77    3.89
  -5  -5  -4    4.31    0.80
  -5  -5  -4    4.88    0.77
   5   5   4    2.97    0.75
  -6  -5  -4   22.00    1.69
  -6  -5  -4   22.53    2.01
   6   5   4   23.61    1.78
  -7  -5  -4   -0.67    1.17
  -7  -5  -4   -0.18    0.63
  -8  -5  -4   38.97    2.46
  -8  -5  -4   33.65    2.18
  -9  -5  -4   22.63    1.91
  -9  -5  -4   27.64    2.14
  -9  -5  -4   24.46    1.87
   3  -6  -4    2.57    1.33
  -3   6   4    1.75    1.33
  -3   6   4    2.15    1.62
   2  -6  -4    4.37    0.79
  -2   6   4    7.98    1.81
  -2   6   4    5.72    1.14
   1  -6  -4    7.73    1.56
   1  -6  -4    7.49    1.13
  -1   6   4    5.50    1.18
  -1   6   4    5.79    1.10
   0  -6  -4    2.26    0.85
   0  -6  -4    1.49    0.78
   0   6   4    0.92    1.48
   0   6   4    1.11    0.91
  -1  -6  -4   33.32    2.12
  -1  -6  -4   29.07    2.21
   1   6   4   30.37    2.35
   1   6   4   30.56    3.04
  -2  -6  -4   13.40    2.52
  -2  -6  -4   16.54    1.75
   2   6   4    9.16    1.83
   2   6   4   13.26    1.95
  -3  -6  -4  108.65    5.21
  -3  -6  -4  105.85    4.97
   3   6   4  113.08    5.23
   3   6   4  105.39    5.08
  -4  -6  -4  121.38    5.64
  -4  -6  -4  114.01    5.37
   4   6   4  119.83    5.47
  -5  -6  -4   62.31    3.63
  -5  -6  -4   56.88    3.01
  -5  -6  -4   56.75    3.07
   5   6   4   62.38    3.12
  -6  -6  -4   12.57    1.50
  -6  -6  -4   15.38    1.90
   6   6   4   11.94    1.56
  -7  -6  -4   -0.05    0.66
  -7  -6  -4    0.24    0.74
  -8  -6  -4   10.89    1.83
  -8  -6  -4    8.57    1.34
  -9  -6  -4   13.48    1.56
  -9  -6  -4   16.71    1.96
   2  -7  -4    3.89    1.51
  -2   7   4    2.08    1.62
   1  -7  -4   -0.34    1.64
   1  -7  -4    0.63    1.16
  -1   7   4   -0.34    1.00
  -1   7   4    2.29    0.98
   0  -7  -4   10.11    1.83
   0  -7  -4   10.96    2.25
   0   7   4   11.19    1.91
  -1  -7  -4   16.97    2.02
  -1  -7  -4   20.58    1.86
   1   7   4   16.74    2.15
  -2  -7  -4   26.09    1.90
  -2  -7  -4   20.65    2.17
   2   7   4   23.27    2.20
  -3  -7  -4   52.96    3.22
  -3  -7  -4   58.77    2.99
   3   7   4   57.55    3.34
   3   7   4   55.43    3.11
  -4  -7  -4    3.81    0.80
  -4  -7  -4    5.65    0.87
   4   7   4    5.43    1.03
  -5  -7  -4   79.47    3.87
  -5  -7  -4   76.05    4.12
   5   7   4   81.71    3.93
  -6  -7  -4    2.76    0.89
   6   7   4    3.39    0.83
  -7  -7  -4    1.73    0.81
  -7  -7  -4    2.30    0.72
  -8  -7  -4    5.39    0.84
  -8  -7  -4    4.54    1.03
   0  -8  -4   16.81    2.19
   0  -8  -4   20.18    2.19
   0   8   4   22.47    2.35
   0   8   4   17.91    2.35
  -1  -8  -4    2.38    0.97
  -1  -8  -4    0.46    0.81
   1   8   4    0.55    0.98
   1   8   4    0.60    0.96
  -2  -8  -4    5.69    1.02
   2   8   4    5.97    1.23
  -3  -8  -4    5.41    1.06
  -4  -8  -4   18.99    2.16
  -4  -8  -4   23.74    1.97
   4   8   4   22.11    2.03
   4   8   4   26.27    2.49
  -5  -8  -4   60.28    3.26
   5   8   4   65.74    3.84
   5   8   4   57.96    3.55
  -6  -8  -4   22.34    1.95
  -6  -8  -4   21.63    2.29
   6   8   4   19.95    1.93
  -7  -8  -4   13.34    2.08
   7   8   4   16.72    1.65
  -8  -8  -4    1.08    0.99
  -1  -9  -4    0.38    1.60
   1   9   4    0.70    1.10
  -2  -9  -4    0.49    1.02
  -2  -9  -4    0.73    1.04
   2   9   4    1.32    1.20
   2   9   4    1.03    1.06
  -3  -9  -4    0.77    0.99
  -3  -9  -4    3.39    1.46
   3   9   4    1.15    1.00
   3   9   4    1.37    0.98
  -4  -9  -4    1.68    0.80
  -4  -9  -4    3.60    1.14
   4   9   4    2.71    1.10
  -5  -9  -4   28.42    2.30
   5   9   4   26.11    2.75
  -6  -9  -4   64.27    3.93
  -6  -9  -4   49.33    4.40
   6   9   4   64.71    4.04
   6   9   4   53.72    3.25
   2   7  -5   -0.57    1.11
   1   7  -5   13.70    2.72
   0   7  -5    7.54    1.54
   0   7  -5    4.13    1.35
  -1   7  -5   19.74    1.96
  -1   7  -5   21.83    2.55
  -2   7  -5    9.73    1.75
   2  -7   5    9.30    1.64
  -3   7  -5   -0.01    0.89
   3  -7   5   -0.85    0.83
   1   6  -5   51.28    2.64
   1   6  -5   48.38    3.94
   0   6  -5   16.75    1.71
   0   6  -5   17.52    2.31
  -1   6  -5   16.88    2.24
  -1   6  -5   16.00    1.74
  -2   6  -5    3.87    1.47
  -2   6  -5    3.35    1.74
   2  -6   5    3.32    0.87
  -3   6  -5    1.10    0.91
  -3   6  -5    0.51    1.02
   3  -6   5    0.86    0.72
  -4   6  -5    2.01    0.88
  -4   6  -5    0.91    1.06
   4  -6   5    0.65    0.50
  -5   6  -5    1.60    1.18
  -5   6  -5    1.74    1.05
   4   5  -5   17.31    2.76
  -4  -5   5   17.42    2.33
   3   5  -5    8.32    1.83
   2   5  -5   20.37    2.14
   1   5  -5    9.82    1.35
  -1   5  -5   -0.18    0.36
  -1   5  -5    0.12    0.70
  -2   5  -5   60.94    3.20
  -3   5  -5    1.49    1.49
   3  -5   5    0.83    0.74
  -4   5  -5    2.50    0.99
  -4   5  -5    4.59    0.98
  -5   5  -5   12.07    2.15
  -5   5  -5   13.27    1.87
   5  -5   5   13.98    2.26
  -6   5  -5    6.06    1.35
  -6   5  -5    5.65    1.20
   6  -5   5    7.36    1.37
  -5  -4   5    2.66    1.58
   4   4  -5    0.72    0.81
  -4  -4   5    0.78    1.14
   3   4  -5   11.06    1.79
  -3  -4   5   14.35    2.09
   2   4  -5   20.57    2.07
   1   4  -5   27.34    2.32
   1   4  -5   26.96    1.76
   0   4  -5    3.48    1.32
   0   4  -5    4.65    0.73
  -1   4  -5   42.01    2.37
  -1   4  -5   41.22    2.73
  -2   4  -5   21.24    2.09
  -2   4  -5   19.88    1.77
  -3   4  -5   92.52    4.50
   3  -4   5   96.58    4.38
  -4   4  -5   56.58    3.07
  -4   4  -5   52.01    3.26
   4  -4   5   55.83    2.77
  -5   4  -5    6.40    1.04
  -5   4  -5    9.35    2.02
   5  -4   5    9.92    1.22
  -6   4  -5   -0.32    0.91
  -6   4  -5    1.98    0.88
   6  -4   5    0.49    0.63
  -7   4  -5    2.91    1.39
  -7   4  -5    4.57    1.38
   7  -4   5    3.73    1.09
  -5  -3   5    1.09    1.25
   4   3  -5    1.69    0.65
  -4  -3   5    1.56    1.11
   3   3  -5    0.20    0.70
  -3  -3   5   -0.97    1.00
   2   3  -5   52.22    2.95
  -2  -3   5   53.91    2.70
  -2  -3   5   54.68    3.18
   1   3  -5    0.02    0.79
   1   3  -5    2.97    0.64
   0   3  -5    1.21    0.61
  -1   3  -5   38.04    2.18
  -2   3  -5  136.36    6.12
  -3   3  -5   93.37    4.50
   3  -3   5   97.66    4.34
  -4   3  -5  113.23    5.45
   4  -3   5  120.87    5.20
  -5   3  -5   17.14    1.81
   5  -3   5   18.79    1.36
  -6   3  -5    3.21    0.91
   6  -3   5    3.42    0.64
  -7   3  -5    4.46    1.03
   7  -3   5    4.78    0.71
  -8   3  -5    5.56    1.40
  -8   3  -5    3.19    1.06
   8  -3   5    3.73    0.74
  -5  -2   5   19.16    1.94
  -5  -2   5   21.53    2.50
  -4  -2   5   15.52    2.16
  -4  -2   5   11.45    1.69
   3   2  -5   14.75    1.42
  -3  -2   5   15.17    2.03
  -3  -2   5   11.73    1.61
   2   2  -5   29.96    1.95
  -2  -2   5   27.50    2.27
  -2  -2   5   25.67    1.91
   1   2  -5   10.09    1.52
  -1  -2   5   10.66    1.37
  -1  -2   5    8.19    1.09
   0   2  -5    6.28    1.13
   0  -2   5    4.02    0.70
  -1   2  -5   38.34    2.13
   1  -2   5   37.94    2.18
  -2   2  -5   37.64    2.16
  -3   2  -5   73.64    3.58
  -4   2  -5  101.99    4.82
   4  -2   5  103.34    4.51
  -5   2  -5   68.63    3.54
   5  -2   5   68.85    3.12
  -6   2  -5   12.84    1.77
   6  -2   5   17.40    1.17
  -7   2  -5    0.34    0.87
  -8   2  -5    4.99    1.07
  -5  -1   5    5.19    1.31
  -4  -1   5    3.58    1.10
  -4  -1   5    1.74    0.92
  -3  -1   5    1.21    0.82
  -3  -1   5    1.34    0.95
   2   1  -5   48.22    2.63
  -2  -1   5   55.69    2.78
  -2  -1   5   50.32    2.95
   1   1  -5   62.16    3.03
  -1  -1   5   61.40    3.04
  -1  -1   5   57.26    3.13
   0   1  -5    2.13    0.59
   0  -1   5    1.37    0.67
   0  -1   5    1.58    0.62
  -1   1  -5   22.64    1.52
   1  -1   5   20.50    1.55
   1  -1   5   17.07    1.40
  -2   1  -5   50.93    2.59
   2  -1   5   48.79    2.62
  -3   1  -5   45.69    2.46
  -4   1  -5   58.55    3.00
  -5   1  -5   19.15    1.73
  -6   1  -5   43.54    3.52
  -7   1  -5   27.79    2.14
  -8   1  -5   11.47    1.81
  -9   1  -5    5.62    1.19
  -5   0   5    4.96    1.15
  -5   0   5    3.56    1.31
  -4   0   5    2.21    1.05
  -4   0   5    1.85    0.95
  -3   0   5   13.68    1.78
  -3   0   5    9.83    1.78
  -2   0   5    4.61    0.96
   1   0  -5   59.72    2.97
  -1   0   5   56.13    2.94
  -1   0   5   52.90    2.92
   0   0  -5  108.84    4.92
   0   0   5  106.23    4.86
   0   0   5  108.90    4.92
  -1   0  -5   67.59    3.18
   1   0   5   65.69    3.20
   1   0   5   63.92    3.06
  -2   0  -5    3.50    0.67
   2   0   5    2.27    0.58
  -3   0  -5   27.45    1.81
   3   0   5   27.89    1.82
  -4   0  -5   39.68    2.26
  -5   0  -5   59.94    3.07
  -6   0  -5    1.02    0.70
  -7   0  -5   80.23    4.02
  -8   0  -5   -0.08    0.76
  -9   0  -5    2.39    0.86
  -9   0  -5    2.70    0.55
  -5   1   5    1.17    1.11
  -4   1   5    0.47    0.96
  -4   1   5    1.04    1.06
  -3   1   5    4.96    1.07
  -3   1   5    3.08    0.92
   2  -1  -5   35.02    2.28
  -2   1   5   32.61    2.32
  -2   1   5   34.33    2.33
   1  -1  -5   91.90    4.26
   1  -1  -5   87.50    4.15
  -1   1   5   89.23    4.28
  -1   1   5   90.81    4.32
   0  -1  -5   37.64    2.15
   0  -1  -5   39.90    2.26
   0   1   5   38.13    2.16
   0   1   5   40.34    2.27
  -1  -1  -5  208.07    8.85
  -1  -1  -5  199.01    8.94
   1   1   5  205.14    8.95
   1   1   5  208.17    8.86
  -2  -1  -5    0.65    0.59
   2   1   5    1.32    0.61
   2   1   5    2.19    0.43
  -3  -1  -5    4.54    0.65
   3   1   5    4.18    0.62
  -4  -1  -5   27.41    1.80
   4   1   5   23.80    1.77
  -5  -1  -5    6.47    1.34
  -6  -1  -5   71.10    3.58
  -7  -1  -5    3.32    0.88
  -8  -1  -5   11.69    1.69
  -9  -1  -5    6.24    1.04
  -9  -1  -5    5.61    0.94
   4  -2  -5    1.20    1.31
  -4   2   5    1.30    1.07
  -4   2   5    1.72    1.08
   3  -2  -5    5.72    1.05
  -3   2   5    4.88    1.03
  -3   2   5    5.62    1.10
   2  -2  -5   19.47    1.84
  -2   2   5   13.35    2.02
  -2   2   5   18.54    1.93
   1  -2  -5    5.46    0.84
   1  -2  -5    5.79    1.18
  -1   2   5    5.24    0.91
  -1   2   5    4.14    0.85
   0  -2  -5   10.71    1.34
   0  -2  -5   11.12    1.62
   0  -2  -5   15.52    1.38
   0   2   5   13.82    1.62
   0   2   5   13.29    1.44
  -1  -2  -5   53.88    2.77
  -1  -2  -5   57.89    2.89
  -1  -2  -5   58.21    2.92
   1   2   5   56.97    2.82
   1   2   5   59.25    2.94
  -2  -2  -5   87.28    4.08
  -2  -2  -5   86.59    3.91
   2   2   5   88.62    4.10
  -3  -2  -5   15.38    1.33
  -3  -2  -5   16.35    1.44
   3   2   5   16.70    1.45
  -4  -2  -5    1.42    0.63
   4   2   5    1.21    0.60
  -5  -2  -5   22.51    1.77
   5   2   5   23.05    1.78
  -6  -2  -5   64.33    3.35
  -7  -2  -5  107.02    5.06
  -8  -2  -5    1.08    1.43
  -9  -2  -5   21.03    1.99
  -9  -2  -5   22.29    1.41
  -9  -2  -5   23.32    1.96
   4  -3  -5   15.24    2.09
  -4   3   5   16.82    3.35
  -4   3   5   14.72    2.11
   3  -3  -5    5.47    1.11
  -3   3   5    3.63    1.15
  -3   3   5    4.51    1.09
   2  -3  -5   16.92    2.07
   2  -3  -5   16.50    1.79
  -2   3   5   18.80    1.86
  -2   3   5   17.54    2.05
   1  -3  -5    1.46    0.75
   1  -3  -5    0.07    0.58
  -1   3   5   -0.30    0.83
   0  -3  -5   47.75    2.66
   0  -3  -5   51.29    2.64
   0   3   5   52.77    3.05
   0   3   5   48.23    2.75
  -1  -3  -5   35.06    2.19
  -1  -3  -5   32.02    1.94
  -1  -3  -5   34.68    2.09
   1   3   5   32.32    2.02
   1   3   5   35.84    2.17
  -2  -3  -5   22.92    1.85
  -2  -3  -5   25.81    1.75
  -2  -3  -5   22.63    1.49
   2   3   5   26.05    1.80
   2   3   5   24.13    1.58
  -3  -3  -5   74.05    3.68
  -3  -3  -5   74.76    3.37
  -3  -3  -5   75.17    3.59
   3   3   5   74.52    3.61
  -4  -3  -5   41.88    2.34
  -4  -3  -5   41.42    1.98
  -4  -3  -5   44.04    2.48
   4   3   5   41.91    2.33
  -5  -3  -5    6.30    0.87
  -5  -3  -5    5.52    0.76
   5   3   5    5.69    0.80
  -6  -3  -5   40.22    2.65
  -6  -3  -5   44.54    2.54
   6   3   5   45.24    2.57
  -7  -3  -5   17.40    1.94
  -7  -3  -5   18.32    1.80
  -8  -3  -5   -0.77    0.78
  -8  -3  -5   -0.16    0.73
  -8  -3  -5    0.09    0.55
  -9  -3  -5    0.81    0.77
  -9  -3  -5    0.47    0.57
  -9  -3  -5   -0.10    0.74
   3  -4  -5   18.21    2.70
  -3   4   5   20.99    2.62
  -3   4   5   18.98    2.14
   2  -4  -5   20.18    1.99
   2  -4  -5   17.10    1.49
  -2   4   5   18.99    2.18
  -2   4   5   19.23    2.01
   1  -4  -5   -0.07    0.78
   1  -4  -5   -0.38    0.57
  -1   4   5   -0.59    1.23
  -1   4   5   -0.50    0.94
   0  -4  -5   19.97    1.81
   0  -4  -5   21.48    2.66
   0   4   5   24.85    1.93
  -1  -4  -5   45.74    2.58
  -1  -4  -5   43.78    2.47
   1   4   5   45.61    2.58
  -2  -4  -5   19.11    1.74
  -2  -4  -5   18.59    1.76
  -2  -4  -5   17.85    1.46
   2   4   5   20.57    1.75
   2   4   5   15.86    1.59
  -3  -4  -5   29.06    1.74
  -3  -4  -5   29.12    2.15
  -3  -4  -5   31.54    2.02
   3   4   5   33.95    2.10
  -4  -4  -5   15.73    1.12
  -4  -4  -5   10.50    1.71
  -4  -4  -5   15.05    1.51
   4   4   5   14.13    1.60
  -5  -4  -5    1.83    0.81
  -5  -4  -5    2.81    0.49
  -5  -4  -5    0.85    0.66
   5   4   5    0.66    0.71
  -6  -4  -5   19.08    1.72
  -6  -4  -5   20.11    2.01
   6   4   5   16.92    1.81
  -7  -4  -5   19.21    1.76
  -7  -4  -5   17.13    3.26
  -8  -4  -5   41.60    2.66
  -8  -4  -5   39.73    2.50
  -8  -4  -5   41.00    2.16
  -9  -4  -5    9.94    1.66
  -9  -4  -5   10.68    1.75
  -9  -4  -5    9.91    1.21
   3  -5  -5   19.34    2.31
  -3   5   5   22.20    2.57
  -3   5   5   16.82    3.08
   2  -5  -5    2.52    0.70
  -2   5   5    3.20    1.20
  -2   5   5    3.10    1.01
   1  -5  -5    2.19    0.92
   1  -5  -5    2.16    0.69
  -1   5   5    1.76    0.93
   0  -5  -5    0.28    0.62
   0  -5  -5    0.81    0.80
   0   5   5   -0.75    1.39
  -1  -5  -5   -1.32    1.13
   1   5   5   -1.29    0.80
  -2  -5  -5   40.44    2.44
  -2  -5  -5   43.65    2.65
   2   5   5   47.08    2.70
  -3  -5  -5    8.22    1.73
  -3  -5  -5    7.42    1.31
  -3  -5  -5   10.46    1.63
   3   5   5   11.89    1.98
  -4  -5  -5   44.85    2.33
  -4  -5  -5   43.77    2.76
  -4  -5  -5   43.69    2.56
   4   5   5   45.06    2.62
  -5  -5  -5    5.78    0.86
  -5  -5  -5    8.87    1.13
  -5  -5  -5    7.95    0.99
   5   5   5    6.85    0.96
  -6  -5  -5   21.34    1.43
  -6  -5  -5   18.08    2.94
  -6  -5  -5   17.15    1.75
   6   5   5   18.10    1.83
  -7  -5  -5   22.35    2.09
  -7  -5  -5   20.43    1.75
  -8  -5  -5   33.39    2.21
  -8  -5  -5   35.40    2.51
  -9  -5  -5   15.62    1.54
  -9  -5  -5   18.71    1.99
  -9  -5  -5   19.33    2.69
   2  -6  -5   12.91    2.12
   2  -6  -5   10.17    1.60
  -2   6   5   13.69    2.22
  -2   6   5   12.54    2.31
   1  -6  -5    7.26    1.55
   1  -6  -5    6.98    1.19
  -1   6   5    5.17    1.56
  -1   6   5    5.30    1.13
   0  -6  -5    3.35    0.97
   0  -6  -5    1.55    0.70
   0   6   5    2.93    1.00
  -1  -6  -5    2.54    0.89
  -1  -6  -5    1.33    0.69
   1   6   5    2.66    1.07
  -2  -6  -5    4.02    0.77
   2   6   5    2.62    0.72
  -3  -6  -5   93.81    4.43
  -3  -6  -5   91.23    4.69
   3   6   5   90.86    4.54
  -4  -6  -5   20.16    2.57
  -4  -6  -5   17.18    1.86
  -4  -6  -5   15.77    1.58
   4   6   5   18.84    1.92
  -5  -6  -5   85.62    4.39
  -5  -6  -5   85.46    4.02
  -5  -6  -5   85.27    4.17
  -6  -6  -5    7.11    1.46
  -6  -6  -5    6.31    0.82
  -6  -6  -5    6.81    1.13
   6   6   5    6.01    1.47
  -7  -6  -5    0.69    0.94
  -7  -6  -5   -0.37    0.73
   7   6   5   -1.82    1.21
  -8  -6  -5   18.02    1.73
  -8  -6  -5   20.68    2.09
  -9  -6  -5   21.50    1.95
  -9  -6  -5   28.00    2.33
   1  -7  -5    7.26    1.30
   1  -7  -5    8.12    1.75
  -1   7   5    5.21    1.32
  -1   7   5    6.20    1.64
   0  -7  -5    2.36    0.86
   0  -7  -5    3.39    1.22
   0   7   5    3.35    1.08
   0   7   5    1.72    1.89
  -1  -7  -5    1.31    0.90
  -1  -7  -5    0.21    0.75
   1   7   5    0.91    0.81
  -2  -7  -5    3.80    0.92
  -2  -7  -5    1.49    0.74
   2   7   5    2.42    0.83
  -3  -7  -5   26.74    1.99
  -3  -7  -5   20.59    2.23
   3   7   5   29.65    2.44
  -4  -7  -5    0.97    0.78
  -4  -7  -5    1.92    0.78
   4   7   5    1.03    0.84
  -5  -7  -5    0.65    0.84
  -5  -7  -5    2.39    0.76
   5   7   5    1.67    0.91
  -6  -7  -5   18.98    1.64
  -6  -7  -5   19.82    1.84
  -6  -7  -5   15.46    2.19
   6   7   5   18.01    1.87
  -7  -7  -5   16.32    2.16
  -7  -7  -5   14.24    1.76
  -7  -7  -5   18.22    1.64
   7   7   5   19.98    1.83
  -8  -7  -5    5.15    1.01
  -8  -7  -5    5.22    0.91
   0  -8  -5   -0.03    0.87
   0   8   5    2.08    0.92
  -1  -8  -5   -0.43    0.75
  -1  -8  -5   -0.55    1.02
   1   8   5   -0.59    1.10
   1   8   5   -0.16    0.96
  -2  -8  -5    0.43    0.79
  -2  -8  -5    1.85    0.95
   2   8   5    0.94    0.88
   2   8   5    1.72    1.11
  -3  -8  -5    2.57    0.73
   3   8   5    2.62    1.02
   3   8   5    4.78    1.33
  -4  -8  -5    4.30    0.92
  -4  -8  -5    2.90    0.98
   4   8   5    4.45    1.09
  -5  -8  -5   15.25    1.70
  -5  -8  -5   11.86    1.98
  -6  -8  -5   20.68    1.85
  -6  -8  -5   18.44    2.30
  -7  -8  -5   20.55    2.34
  -7  -8  -5   25.42    1.96
   7   8   5   23.41    1.99
  -3  -9  -5   10.78    2.05
  -3  -9  -5   12.59    1.89
  -4  -9  -5    2.46    1.72
  -4  -9  -5    2.70    1.14
   4   9   5    3.38    1.32
   4   9   5    3.29    1.17
  -5  -9  -5   21.74    2.29
   5   9   5   18.80    2.28
  -6  -9  -5    5.30    1.35
   0   7  -6    6.99    1.42
  -1   7  -6   -1.16    0.93
  -1   7  -6   -2.05    1.86
   2   6  -6    3.01    1.22
   1   6  -6    7.94    1.35
   1   6  -6    5.11    1.23
   0   6  -6    2.86    0.83
   0   6  -6    2.44    1.11
  -1   6  -6   20.20    2.00
  -1   6  -6   23.01    2.87
  -2   6  -6   11.17    1.80
  -2   6  -6   12.98    2.57
  -3   6  -6    7.73    1.74
  -3   6  -6    6.42    1.00
  -4   6  -6   -1.37    1.22
  -4   6  -6    0.58    0.87
   4  -6   6   -0.49    0.38
  -3  -5   6    2.56    1.17
   2   5  -6    0.62    0.95
   1   5  -6    1.08    0.74
   0   5  -6   -1.21    0.73
  -1   5  -6   28.44    2.21
  -1   5  -6   33.80    2.77
  -2   5  -6    0.78    0.79
  -2   5  -6   -0.54    0.97
  -3   5  -6    3.16    1.40
  -3   5  -6    4.20    0.89
   3  -5   6    4.43    0.98
  -4   5  -6    1.09    0.84
  -4   5  -6   -1.48    1.65
   4  -5   6    0.88    0.71
  -5   5  -6   29.37    2.69
  -5   5  -6   30.27    2.37
   5  -5   6   30.31    2.16
  -3  -4   6    0.09    1.11
   2   4  -6    0.30    0.93
  -2  -4   6    1.17    1.04
   1   4  -6    4.66    1.05
   1   4  -6    3.71    0.79
   0   4  -6   13.25    1.86
   0   4  -6   11.81    1.56
  -2   4  -6    6.23    0.93
  -3   4  -6    1.26    0.94
   3  -4   6    1.05    0.70
  -4   4  -6   20.29    1.96
   4  -4   6   18.85    1.49
  -5   4  -6   62.17    3.48
  -5   4  -6   65.92    3.74
   5  -4   6   63.88    3.10
  -6   4  -6    0.77    0.82
  -6   4  -6   -0.25    1.56
   6  -4   6    0.25    0.59
  -4  -3   6   11.47    2.30
  -4  -3   6   14.14    1.57
  -3  -3   6    2.55    0.83
  -3  -3   6    2.13    1.10
   2   3  -6    1.87    0.85
  -2  -3   6    3.42    1.09
   1   3  -6   30.09    2.35
   1   3  -6   28.76    2.02
  -1  -3   6   30.52    2.32
   0   3  -6   11.75    1.48
   0   3  -6    8.51    1.66
  -1   3  -6    0.85    0.71
  -2   3  -6   47.10    2.71
  -3   3  -6   26.79    2.07
   4  -3   6   29.71    1.72
  -5   3  -6   50.12    2.90
   5  -3   6   49.49    2.42
  -6   3  -6    0.46    0.79
  -7   3  -6   -0.32    0.86
  -4  -2   6    3.37    1.29
  -4  -2   6    2.67    1.11
   3   2  -6    1.94    0.69
  -3  -2   6    2.50    1.16
  -3  -2   6    1.13    0.93
   2   2  -6   24.30    1.94
  -2  -2   6   23.76    2.22
  -2  -2   6   22.66    1.91
   1   2  -6   25.08    1.85
   1   2  -6   17.63    2.01
  -1  -2   6   19.17    2.02
  -1  -2   6   25.50    1.83
   0   2  -6    0.87    0.70
   0  -2   6    0.54    0.75
   0  -2   6   -0.44    0.85
  -1   2  -6    7.98    1.43
   1  -2   6    6.52    0.89
   1  -2   6    6.58    0.92
  -2   2  -6    1.73    0.76
  -3   2  -6  103.86    4.90
  -4   2  -6   41.01    2.56
  -5   2  -6   19.33    1.91
  -6   2  -6    8.99    1.68
  -7   2  -6    9.40    1.74
  -8   2  -6    5.68    1.26
  -4  -1   6    0.02    1.16
  -3  -1   6   13.78    1.98
  -3  -1   6   13.14    2.29
   2   1  -6    1.05    0.69
  -2  -1   6    1.69    0.89
  -2  -1   6    0.58    0.96
   1   1  -6    3.13    0.87
  -1  -1   6    1.72    0.93
  -1  -1   6    2.67    0.82
   0   1  -6   -0.02    0.66
   0  -1   6    0.23    0.73
   0  -1   6   -0.64    0.75
  -1   1  -6   45.29    2.59
   1  -1   6   47.45    2.47
   1  -1   6   47.62    2.63
  -2   1  -6   43.71    2.50
   2  -1   6   46.91    2.19
   2  -1   6   38.63    2.52
  -3   1  -6    1.85    0.79
  -4   1  -6  336.92   14.58
  -5   1  -6  112.63    5.31
  -6   1  -6   11.50    1.78
  -7   1  -6   21.07    2.02
  -8   1  -6    5.63    0.95
  -4   0   6    2.53    1.21
  -4   0   6    1.78    1.14
  -3   0   6   -0.45    0.98
  -3   0   6   -0.75    0.95
  -2   0   6    4.25    1.72
  -2   0   6    2.56    0.95
   1   0  -6   14.72    1.83
  -1   0   6   15.19    1.87
   0   0  -6   18.79    1.83
   0   0   6   17.99    1.85
   0   0   6   19.50    1.65
  -1   0  -6  132.36    6.10
   1   0   6  137.48    5.99
   1   0   6  134.64    6.12
  -2   0  -6   72.13    3.48
   2   0   6   66.40    3.47
   2   0   6   71.66    3.33
  -3   0  -6    3.04    0.73
   3   0   6    2.83    0.74
  -4   0  -6   16.14    1.75
   4   0   6   19.20    2.04
  -5   0  -6   32.47    2.25
  -6   0  -6  171.63    8.09
  -7   0  -6   18.92    1.97
  -8   0  -6    2.00    0.86
  -9   0  -6    0.62    0.90
  -4   1   6    4.45    1.19
  -4   1   6    3.16    1.41
  -3   1   6   -0.27    1.01
  -3   1   6   -1.14    0.97
  -2   1   6    9.63    1.81
  -2   1   6   10.02    1.91
   1  -1  -6   89.07    3.98
  -1   1   6   85.69    4.48
  -1   1   6   79.46    4.17
   0  -1  -6   22.09    2.06
   0   1   6   24.63    2.08
   0   1   6   25.05    1.89
  -1  -1  -6  193.43    8.71
   1   1   6  202.94    8.61
   1   1   6  195.34    8.72
  -2  -1  -6   16.41    1.59
   2   1   6   15.04    1.23
   2   1   6   13.67    1.63
  -3  -1  -6    9.62    1.45
   3   1   6   11.02    1.45
  -4  -1  -6    3.11    0.73
   4   1   6    3.47    0.76
  -5  -1  -6   62.30    3.39
   5   1   6   67.21    3.49
  -6  -1  -6   59.06    3.24
  -7  -1  -6   97.94    4.78
  -8  -1  -6   22.95    2.02
  -9  -1  -6    4.43    0.90
  -3   2   6    1.48    1.05
  -3   2   6    0.66    1.14
   2  -2  -6    0.88    0.90
  -2   2   6   -0.46    1.01
  -2   2   6   -0.16    0.90
  -1   2   6    4.87    1.00
  -1   2   6    5.90    1.01
   0  -2  -6   93.18    4.67
   0  -2  -6   89.11    4.53
   0  -2  -6  100.13    4.51
   0   2   6   94.18    4.55
   0   2   6  101.77    4.70
  -1  -2  -6   55.71    2.79
  -1  -2  -6   48.95    2.68
  -1  -2  -6   50.15    2.87
   1   2   6   47.15    2.71
   1   2   6   52.77    3.36
  -2  -2  -6   19.48    1.43
  -2  -2  -6   18.57    1.73
   2   2   6   20.59    1.79
  -3  -2  -6   24.98    1.84
  -3  -2  -6   25.49    1.43
   3   2   6   23.72    1.86
   3   2   6   25.77    1.44
  -4  -2  -6   10.01    1.50
   4   2   6    9.43    1.47
  -5  -2  -6    6.21    0.91
   5   2   6    3.52    1.71
  -6  -2  -6    2.65    0.80
  -7  -2  -6   78.58    4.23
  -8  -2  -6    0.73    0.88
  -9  -2  -6    2.67    1.04
  -9  -2  -6    1.84    0.89
   3  -3  -6    0.68    1.11
  -3   3   6    0.67    1.09
  -3   3   6    1.62    1.85
   2  -3  -6    3.30    0.73
   2  -3  -6    4.72    1.03
  -2   3   6    4.34    1.12
  -2   3   6    3.54    1.05
   1  -3  -6   11.40    1.40
   1  -3  -6   12.70    1.71
  -1   3   6   10.24    1.78
   0  -3  -6   35.05    2.33
   0  -3  -6   35.30    2.23
   0   3   6   35.56    2.53
   0   3   6   33.63    2.32
  -1  -3  -6  121.29    5.86
  -1  -3  -6  132.11    5.76
  -1  -3  -6  117.79    5.67
   1   3   6  129.25    5.71
  -2  -3  -6   56.24    3.05
  -2  -3  -6   61.64    3.07
  -2  -3  -6   53.26    2.80
   2   3   6   53.49    2.86
  -3  -3  -6    4.76    0.89
  -3  -3  -6    5.73    0.92
  -3  -3  -6    6.85    1.01
   3   3   6    5.81    1.10
   3   3   6    4.26    1.34
  -4  -3  -6   53.89    2.44
  -4  -3  -6   53.85    2.85
  -4  -3  -6   48.06    2.99
  -5  -3  -6   17.44    1.99
  -5  -3  -6   20.82    1.83
   5   3   6   17.97    2.63
  -6  -3  -6    5.58    0.96
  -6  -3  -6    4.47    0.85
   6   3   6    5.66    0.93
  -7  -3  -6   35.59    2.57
  -7  -3  -6   34.31    2.90
  -8  -3  -6   22.17    1.99
  -8  -3  -6   20.29    2.15
  -9  -3  -6   19.16    1.98
  -9  -3  -6   17.50    2.05
   2  -4  -6   25.10    1.75
  -2   4   6   27.21    2.33
  -2   4   6   32.08    3.38
   1  -4  -6    1.78    0.64
   1  -4  -6    2.26    0.86
  -1   4   6    1.94    0.92
  -1   4   6    1.19    1.06
   0  -4  -6    2.18    0.84
   0  -4  -6    2.66    0.71
   0   4   6    1.87    1.26
   0   4   6    0.79    0.88
  -1  -4  -6    1.76    0.74
  -1  -4  -6    0.98    0.88
   1   4   6    0.12    0.87
  -2  -4  -6   80.47    4.10
  -2  -4  -6   83.52    4.31
  -2  -4  -6   89.83    4.30
   2   4   6   92.46    4.18
  -3  -4  -6   89.60    4.28
  -3  -4  -6   86.33    3.97
  -3  -4  -6   82.33    4.20
   3   4   6   83.83    4.26
  -4  -4  -6   61.43    3.45
  -4  -4  -6   60.65    3.29
  -4  -4  -6   64.32    2.98
   4   4   6   65.05    3.36
  -5  -4  -6    4.17    0.95
  -5  -4  -6    4.11    0.94
  -5  -4  -6    4.90    0.56
   5   4   6    2.63    0.81
  -6  -4  -6    2.27    0.83
  -6  -4  -6    2.52    0.89
   6   4   6    1.00    0.80
  -7  -4  -6   14.67    2.24
  -7  -4  -6   11.81    1.99
   7   4   6    9.64    1.59
  -8  -4  -6   28.21    2.37
  -8  -4  -6   29.85    2.18
  -9  -4  -6    3.22    0.89
  -9  -4  -6    4.65    0.90
   2  -5  -6   21.38    1.77
  -2   5   6   24.23    2.58
  -2   5   6   21.38    2.37
   1  -5  -6    0.81    0.69
   1  -5  -6    1.78    0.97
  -1   5   6    1.70    1.52
  -1   5   6    1.74    1.04
   0  -5  -6   -0.84    0.62
   0  -5  -6   -0.17    0.84
   0   5   6   -1.44    0.89
  -1  -5  -6   11.58    1.79
  -1  -5  -6   14.60    1.73
   1   5   6   17.90    1.95
  -2  -5  -6   15.14    2.22
  -2  -5  -6   16.18    1.93
   2   5   6   16.71    1.82
  -3  -5  -6   24.10    1.86
  -3  -5  -6   26.23    3.42
  -3  -5  -6   26.96    2.23
   3   5   6   22.49    1.98
  -4  -5  -6   33.81    2.04
  -4  -5  -6   36.06    2.42
  -4  -5  -6   35.46    3.17
   4   5   6   34.92    2.48
  -5  -5  -6   29.84    1.74
  -5  -5  -6   27.04    2.17
  -5  -5  -6   30.57    2.38
   5   5   6   27.73    2.20
  -6  -5  -6   16.49    1.22
  -6  -5  -6   15.55    1.78
  -6  -5  -6   13.99    2.00
   6   5   6   14.82    1.79
  -7  -5  -6   24.46    2.21
  -7  -5  -6   25.40    3.11
  -7  -5  -6   23.55    1.44
   7   5   6   19.61    1.87
  -8  -5  -6    1.85    0.77
  -8  -5  -6    1.51    0.95
  -8  -5  -6    1.65    0.54
  -9  -5  -6    8.99    1.61
  -9  -5  -6    9.97    1.15
  -9  -5  -6    6.92    1.20
   1  -6  -6    8.01    1.64
   1  -6  -6   11.14    2.08
  -1   6   6   10.47    1.99
  -1   6   6   11.63    2.31
   0  -6  -6   -0.62    0.93
   0  -6  -6   -0.78    0.68
   0   6   6   -1.08    0.95
   0   6   6   -0.79    2.26
  -1  -6  -6    1.55    0.92
  -1  -6  -6   -1.11    1.25
   1   6   6   -0.04    0.97
   1   6   6   -0.11    0.97
  -2  -6  -6    2.42    0.95
  -2  -6  -6    3.15    0.89
   2   6   6    1.34    1.21
  -3  -6  -6    5.29    1.06
  -4  -6  -6   68.47    3.40
  -4  -6  -6   69.85    3.68
  -4  -6  -6   66.68    3.77
  -5  -6  -6   15.82    2.20
  -5  -6  -6   14.73    1.49
  -5  -6  -6   18.95    2.11
  -6  -6  -6   23.92    2.99
  -6  -6  -6   26.42    2.33
  -6  -6  -6   26.78    1.71
  -7  -6  -6    2.64    0.66
  -7  -6  -6    1.72    0.92
  -7  -6  -6    4.44    0.97
  -8  -6  -6    3.86    0.89
  -8  -6  -6    2.66    0.81
  -9  -6  -6   19.55    1.50
  -9  -6  -6   18.80    2.24
  -9  -6  -6   20.44    1.85
   0  -7  -6    5.29    1.26
   0  -7  -6    2.84    0.90
   0   7   6    2.47    1.14
  -1  -7  -6   12.83    1.85
   1   7   6   14.29    2.21
  -2  -7  -6   -0.66    0.76
  -2  -7  -6   -0.38    0.90
   2   7   6   -1.76    1.01
  -3  -7  -6   21.74    2.23
  -3  -7  -6   26.37    2.04
   3   7   6   23.36    2.31
  -4  -7  -6    8.33    1.54
  -4  -7  -6    5.28    1.12
   4   7   6    4.35    1.80
  -5  -7  -6   36.96    2.28
  -5  -7  -6   39.76    2.59
  -5  -7  -6   36.32    2.80
  -6  -7  -6    0.32    0.88
  -6  -7  -6    0.45    0.74
  -6  -7  -6   -0.24    1.28
  -7  -7  -6    4.10    0.91
  -7  -7  -6    2.79    0.97
  -7  -7  -6    4.89    0.86
  -8  -7  -6   12.88    2.19
  -8  -7  -6   14.76    1.49
  -8  -7  -6   14.96    1.82
  -2  -8  -6   -1.20    1.11
  -2  -8  -6   -0.79    0.77
   2   8   6   -1.98    1.13
  -3  -8  -6   -1.21    0.73
  -3  -8  -6   -0.63    0.93
  -4  -8  -6   -0.33    0.90
  -4  -8  -6   -0.11    0.66
   4   8   6   -0.41    0.96
  -5  -8  -6    9.90    1.62
   5   8   6    9.45    1.95
  -6  -8  -6    0.64    0.95
  -6  -8  -6    2.88    0.86
   6   8   6    1.39    1.04
  -7  -8  -6    3.12    0.90
  -7  -8  -6   -0.52    1.75
   7   8   6    2.73    1.26
  -1   6  -7   16.23    2.03
  -1   6  -7   20.61    2.69
  -2   6  -7    0.97    0.98
   1   5  -7    2.70    0.85
   1   5  -7    3.72    1.19
  -1  -5   7    3.34    1.17
   0   5  -7    6.30    1.34
   0   5  -7    8.59    1.63
  -1   5  -7   -0.56    1.16
  -1   5  -7   -1.52    0.84
  -2   5  -7   26.02    2.25
  -3   5  -7   -0.09    1.14
  -3   5  -7    1.31    0.93
   3  -5   7    2.10    0.88
  -4   5  -7   -0.21    0.86
   4  -5   7   -0.60    1.09
  -2  -4   7    0.10    1.09
   1   4  -7   11.43    1.68
  -1  -4   7    9.84    1.98
   0   4  -7    0.40    0.77
   0  -4   7   -0.48    1.00
  -1   4  -7   12.04    1.75
  -1   4  -7   17.32    2.52
  -2   4  -7   -1.25    0.98
  -3   4  -7   32.27    2.65
  -3   4  -7   29.53    2.32
  -4   4  -7   15.76    1.92
  -4   4  -7   15.97    2.59
   4  -4   7   12.93    1.35
  -5   4  -7   16.99    2.29
  -5   4  -7   15.65    2.02
   5  -4   7   15.80    1.34
  -6   4  -7   19.97    2.41
  -6   4  -7   21.46    2.98
   6  -4   7   16.06    1.30
  -3  -3   7   13.98    1.80
  -2  -3   7   16.41    1.85
  -2  -3   7   14.08    2.17
   1   3  -7   14.00    1.74
   1   3  -7   11.74    2.10
  -1  -3   7   13.60    1.97
   0   3  -7   -1.19    0.87
   0   3  -7   -1.11    0.76
   0  -3   7   -0.79    0.88
  -1   3  -7    4.03    0.87
   1  -3   7    4.89    0.93
  -2   3  -7   13.80    1.76
  -3   3  -7   17.06    2.39
  -4   3  -7   46.13    2.80
   4  -3   7   46.22    2.32
  -5   3  -7    1.49    0.88
  -6   3  -7    1.48    0.86
  -7   3  -7    6.13    1.79
   3   2  -7    3.80    0.80
  -3  -2   7    2.85    1.23
  -3  -2   7    3.67    1.24
   2   2  -7   12.30    1.80
  -2  -2   7   13.79    2.03
   1   2  -7    0.91    0.89
   1   2  -7    1.15    0.91
  -1  -2   7    3.68    1.14
  -1  -2   7    2.43    1.02
   0   2  -7    1.84    0.82
   0  -2   7    3.38    0.92
   0  -2   7    3.95    1.34
  -1   2  -7    3.17    0.83
   1  -2   7    4.74    0.88
   1  -2   7    4.01    1.57
  -2   2  -7    6.24    0.91
  -3   2  -7    0.41    0.79
   3  -2   7    1.23    0.58
  -4   2  -7    6.41    1.06
  -5   2  -7   33.04    2.45
  -6   2  -7    0.27    0.80
  -7   2  -7   -0.26    0.78
  -3  -1   7    0.53    1.18
   2   1  -7    4.46    0.84
  -2  -1   7    5.46    1.17
  -2  -1   7    5.52    1.14
   1   1  -7   14.35    1.96
  -1  -1   7   17.24    1.93
  -1  -1   7   16.71    1.86
   0   1  -7    1.09    0.85
   0  -1   7    1.73    1.16
   0  -1   7    2.25    0.83
  -1   1  -7    0.62    0.79
   1  -1   7   -0.10    1.08
   1  -1   7    0.62    0.73
  -2   1  -7    3.56    0.85
   2  -1   7    2.12    1.00
   2  -1   7    4.46    0.69
  -3   1  -7   19.40    1.91
   3  -1   7   16.56    2.01
   3  -1   7   20.73    1.87
  -5   1  -7   11.87    1.91
  -6   1  -7   17.20    1.98
  -7   1  -7    0.45    0.81
  -8   1  -7   27.45    2.33
  -3   0   7   -0.79    1.13
   2   0  -7    0.95    0.62
  -2   0   7   -0.46    1.03
  -2   0   7   -0.72    0.99
  -1   0   7    3.60    0.96
  -1   0   7    4.34    1.09
   0   0  -7   23.03    2.11
   0   0   7   27.12    2.22
   0   0   7   22.71    1.89
  -1   0  -7   19.79    1.91
   1   0   7   16.58    1.98
   1   0   7   19.53    1.61
  -2   0  -7   34.02    2.34
   2   0   7   37.25    1.97
   2   0   7   32.85    2.38
   3   0   7   -0.48    0.50
  -4   0  -7   42.53    2.70
   4   0   7   42.23    2.69
  -5   0  -7   19.15    2.05
  -6   0  -7   53.79    3.15
  -7   0  -7   31.52    2.45
  -8   0  -7    3.02    0.89
  -3   1   7   -1.17    1.08
  -2   1   7   -1.63    1.06
  -2   1   7   -0.63    0.97
  -1   1   7    4.74    1.08
  -1   1   7    5.53    1.02
   0  -1  -7   20.37    2.43
   0   1   7   23.02    1.96
   0   1   7   27.63    2.28
  -1  -1  -7   24.72    2.22
   1   1   7   27.36    2.31
   1   1   7   28.79    1.91
  -2  -1  -7   -1.15    0.73
   2   1   7    0.04    0.65
   2   1   7   -1.40    0.78
  -3  -1  -7    3.54    0.88
   3   1   7    4.81    0.98
   3   1   7    6.18    1.20
  -4  -1  -7    1.88    0.83
  -5  -1  -7   50.32    3.93
  -6  -1  -7   11.89    1.89
  -7  -1  -7   60.46    3.45
  -8  -1  -7   21.27    2.20
  -9  -1  -7    0.52    0.95
  -2   2   7    3.11    1.09
  -2   2   7    1.76    1.17
  -1   2   7    5.10    1.13
  -1   2   7    6.02    1.07
   0  -2  -7    2.37    1.02
   0   2   7    2.93    0.98
   0   2   7    2.37    0.92
   1   2   7    5.14    1.08
   1   2   7    5.03    0.87
  -2  -2  -7    9.06    1.89
   2   2   7   10.35    1.87
   2   2   7   14.30    1.42
   3   2   7   -0.12    0.33
   3   2   7    0.53    0.59
  -4  -2  -7    3.05    0.97
  -6  -2  -7   41.43    2.71
  -7  -2  -7  102.53    5.03
  -8  -2  -7   35.79    2.59
  -9  -2  -7   16.14    2.21
  -9  -2  -7   12.65    2.02
   2  -3  -7    3.35    1.23
  -2   3   7    1.50    1.29
  -2   3   7    1.86    1.07
   1  -3  -7    6.75    1.38
  -1   3   7    5.81    1.11
  -1   3   7    5.03    1.15
   0  -3  -7    0.33    0.88
   0  -3  -7   -0.52    0.72
   0   3   7   -0.38    0.99
   0   3   7   -0.86    0.89
  -1  -3  -7   32.40    2.59
  -1  -3  -7   37.00    2.37
   1   3   7   36.96    2.63
   1   3   7   31.82    2.24
  -2  -3  -7   12.51    1.59
  -2  -3  -7   17.77    1.94
  -2  -3  -7   19.10    1.96
   2   3   7   14.73    1.60
  -3  -3  -7   18.40    3.53
  -3  -3  -7   20.44    2.12
  -3  -3  -7   21.80    1.58
   3   3   7   25.05    1.64
  -4  -3  -7   22.42    1.37
  -4  -3  -7   19.80    2.13
  -5  -3  -7   31.31    2.55
  -5  -3  -7   33.71    2.60
  -6  -3  -7   12.58    1.87
  -6  -3  -7   13.27    2.02
  -7  -3  -7   18.87    2.18
  -7  -3  -7   17.36    2.03
  -8  -3  -7    1.29    0.87
  -8  -3  -7    0.74    0.98
  -9  -3  -7    5.27    1.14
  -9  -3  -7    3.01    0.93
   1  -4  -7    1.85    1.09
   1  -4  -7    0.41    0.65
  -1   4   7    1.47    0.97
  -1   4   7   -0.05    1.34
   0  -4  -7   11.93    1.64
   0  -4  -7   13.31    1.81
   0   4   7   13.13    1.81
   0   4   7   11.91    2.18
  -1  -4  -7   11.15    1.65
  -1  -4  -7   13.13    1.79
   1   4   7   10.97    1.75
   1   4   7   11.67    2.16
  -2  -4  -7   46.58    2.74
  -2  -4  -7   48.54    3.09
  -2  -4  -7   52.86    2.97
   2   4   7   51.50    2.80
  -3  -4  -7   28.50    2.28
  -3  -4  -7   21.23    1.75
  -3  -4  -7   22.69    2.18
   3   4   7   25.49    1.86
  -4  -4  -7   16.55    2.63
  -4  -4  -7   18.43    1.41
  -4  -4  -7   17.07    1.99
  -5  -4  -7    1.94    0.53
  -5  -4  -7   -0.17    0.80
  -5  -4  -7    1.12    0.94
   5   4   7    0.19    0.41
  -6  -4  -7    3.76    0.98
  -6  -4  -7    3.77    0.88
  -7  -4  -7   13.16    1.80
  -7  -4  -7   10.62    2.06
  -8  -4  -7   14.65    2.13
  -8  -4  -7   15.74    1.93
  -9  -4  -7   13.89    2.12
  -9  -4  -7   13.31    1.89
   1  -5  -7   -0.74    0.68
   1  -5  -7    1.42    0.95
  -1   5   7   -0.31    1.01
   0  -5  -7   -1.12    0.69
   0  -5  -7    0.51    0.98
   0   5   7   -0.51    1.00
   0   5   7    0.09    1.18
  -1  -5  -7    4.82    1.02
  -1  -5  -7    2.98    0.87
   1   5   7    4.59    1.22
   1   5   7    4.45    1.05
  -2  -5  -7    8.44    1.60
  -2  -5  -7   13.76    2.86
   2   5   7   11.12    1.72
  -3  -5  -7   31.21    2.41
  -3  -5  -7   29.07    2.48
  -3  -5  -7   25.55    2.03
   3   5   7   31.15    2.73
  -4  -5  -7   63.67    3.62
  -4  -5  -7   65.12    3.16
  -4  -5  -7   61.30    3.51
  -5  -5  -7    4.30    0.97
  -5  -5  -7    5.83    1.05
  -5  -5  -7    6.06    1.19
  -6  -5  -7   17.90    1.93
  -6  -5  -7   14.14    2.07
  -6  -5  -7   16.59    1.28
  -7  -5  -7    5.89    0.99
   7   5   7    9.41    1.67
  -8  -5  -7   17.13    2.22
  -8  -5  -7   20.26    1.97
  -9  -5  -7    0.31    0.84
  -9  -5  -7    0.08    0.81
   0  -6  -7    0.10    0.77
   0  -6  -7    1.51    1.09
   0   6   7    0.39    1.09
  -1  -6  -7    2.01    1.01
  -1  -6  -7    0.45    0.84
   1   6   7    1.14    1.22
   1   6   7    1.15    1.07
  -2  -6  -7    4.51    0.92
  -2  -6  -7    4.77    1.03
   2   6   7    4.60    1.64
   2   6   7    4.68    1.07
  -3  -6  -7   43.87    2.88
  -3  -6  -7   44.05    2.62
   3   6   7   41.00    3.00
  -4  -6  -7   36.96    2.69
  -4  -6  -7   34.37    2.65
  -4  -6  -7   37.02    2.95
   4   6   7   33.30    2.71
  -5  -6  -7   28.13    1.91
  -5  -6  -7   29.80    2.36
  -5  -6  -7   28.47    2.51
   5   6   7   29.33    2.42
  -6  -6  -7    9.79    1.99
  -6  -6  -7    8.77    1.24
  -6  -6  -7    6.47    1.02
   6   6   7    7.02    1.17
  -7  -6  -7    2.80    0.65
  -7  -6  -7    1.73    1.08
  -7  -6  -7    1.86    0.85
   7   6   7    2.43    0.92
  -8  -6  -7    3.96    1.19
  -8  -6  -7    6.17    1.00
  -8  -6  -7    4.46    0.92
  -2  -7  -7    0.01    0.75
  -2  -7  -7    1.74    1.04
  -3  -7  -7    2.60    1.03
  -3  -7  -7    1.05    0.95
   3   7   7    0.17    1.21
  -4  -7  -7   -0.72    0.89
   4   7   7   -1.03    1.12
  -5  -7  -7    0.16    0.89
  -5  -7  -7   -0.23    1.04
  -5  -7  -7   -0.48    0.80
   5   7   7   -1.19    0.99
  -6  -7  -7   10.86    1.47
  -6  -7  -7    9.92    2.19
  -6  -7  -7   10.55    1.98
   6   7   7   15.19    2.06
  -7  -7  -7    4.23    1.08
  -7  -7  -7    6.62    1.44
  -4  -8  -7   -1.76    0.95
  -4  -8  -7   -0.87    0.83
   4   8   7   -1.40    1.06
  -5  -8  -7   -0.03    0.92
   5   8   7   -0.41    1.09
   0   4  -8    2.97    1.30
   0   4  -8    0.45    1.50
   0  -4   8    2.80    1.15
  -1   4  -8    4.75    1.45
  -1   4  -8    3.80    0.96
   1  -4   8    5.59    1.07
  -2   4  -8    6.79    1.83
  -2   4  -8    9.13    1.89
  -3   4  -8   15.38    2.05
  -3   4  -8   15.75    2.44
  -4   4  -8    6.13    1.30
  -4   4  -8    4.44    1.03
   1   3  -8    0.59    1.08
  -1  -3   8    2.35    1.12
   0   3  -8   -0.93    1.69
   0  -3   8    0.93    1.05
  -1   3  -8    2.49    1.10
  -1   3  -8    2.00    0.92
   1  -3   8    3.43    0.96
  -2   3  -8   16.68    1.97
   2  -3   8   18.07    1.68
  -3   3  -8   14.34    1.94
   3  -3   8   13.97    1.39
  -4   3  -8   10.80    1.90
   4  -3   8   11.53    1.17
  -5   3  -8   30.70    2.53
  -6   3  -8    1.28    1.01
   1   2  -8   22.73    2.39
   1   2  -8   26.20    3.17
  -1  -2   8   29.92    2.36
  -1  -2   8   21.84    2.28
   0   2  -8    2.39    1.36
   0  -2   8    3.25    0.96
  -1   2  -8    0.17    0.91
   1  -2   8   -0.28    0.80
   1  -2   8    2.13    1.02
  -2   2  -8   -0.30    0.86
   2  -2   8   -0.49    0.70
  -3   2  -8   10.22    1.83
   3  -2   8   11.91    1.19
  -4   2  -8   10.64    1.94
  -5   2  -8    0.01    0.95
  -6   2  -8    9.84    1.92
  -7   2  -8    4.74    1.22
  -1  -1   8    3.17    1.14
  -1  -1   8    0.54    1.09
   0  -1   8   10.98    1.95
   0  -1   8    8.23    1.66
  -1   1  -8    1.46    0.92
   1  -1   8    0.62    0.81
   1  -1   8    1.06    0.97
  -2   1  -8   14.33    1.83
   2  -1   8   13.48    1.41
   2  -1   8   15.13    2.01
  -3   1  -8    3.74    0.90
   3  -1   8    3.41    0.62
   3  -1   8    4.20    1.10
  -4   1  -8   22.74    2.16
  -5   1  -8   26.41    2.32
  -6   1  -8    1.38    1.00
  -7   1  -8   15.16    2.10
  -1   0   8    6.40    1.25
  -1   0   8    3.56    1.10
   0   0   8   11.19    2.08
   0   0   8   11.28    1.70
  -1   0  -8   25.53    2.33
   1   0   8   26.23    1.94
   1   0   8   30.24    2.44
  -2   0  -8   43.28    2.70
   2   0   8   39.72    2.33
   2   0   8   43.71    2.77
  -3   0  -8   11.16    1.81
   3   0   8   13.61    1.20
   3   0   8   13.12    1.90
  -4   0  -8   22.90    2.19
   4   0   8   25.68    2.25
  -5   0  -8    0.26    0.83
  -6   0  -8   25.26    2.30
  -7   0  -8   13.11    2.06
  -8   0  -8    6.36    1.35
  -1   1   8   15.74    2.02
  -1   1   8   17.84    2.40
   0  -1  -8    2.74    0.81
   0  -1  -8    0.49    0.98
   0   1   8    1.68    1.15
   0   1   8    1.86    0.94
  -1  -1  -8   43.36    2.88
   1   1   8   47.16    2.97
   1   1   8   43.96    2.60
  -2  -1  -8   18.52    2.10
   2   1   8   20.45    2.20
   2   1   8   17.89    1.61
  -3  -1  -8   -0.95    0.83
   3   1   8   -0.13    0.59
   3   1   8   -1.16    0.83
  -4  -1  -8   15.36    1.92
   4   1   8   13.32    1.98
  -5  -1  -8    0.34    0.83
  -6  -1  -8   32.70    2.51
  -7  -1  -8    0.26    0.91
  -8  -1  -8   10.56    2.06
   1  -2  -8    0.72    0.78
  -1   2   8    0.85    1.04
   0   2   8   14.59    1.76
   0   2   8   13.77    2.25
  -1  -2  -8    2.94    0.99
   1   2   8    1.75    0.92
   1   2   8    3.41    1.18
  -2  -2  -8    6.18    1.05
   2   2   8    9.30    1.42
  -3  -2  -8   20.16    2.07
   3   2   8   21.34    1.55
   3   2   8   21.34    2.17
  -4  -2  -8    2.69    0.87
  -5  -2  -8   40.53    2.73
  -6  -2  -8   27.59    2.41
   6   2   8   30.15    2.74
  -7  -2  -8   27.26    2.40
  -8  -2  -8   11.12    1.97
   1  -3  -8   -0.91    0.69
  -1   3   8   -0.91    1.02
   0  -3  -8   -0.42    0.79
   0  -3  -8    0.64    0.98
   0   3   8   -1.11    0.89
   0   3   8   -2.62    2.00
  -1  -3  -8    4.79    1.12
  -1  -3  -8    8.21    1.64
   1   3   8    6.78    1.45
   1   3   8    6.04    1.17
  -2  -3  -8    2.73    0.95
  -2  -3  -8    0.65    0.88
  -2  -3  -8    1.59    1.55
   2   3   8    1.37    1.05
   2   3   8    1.16    0.84
  -3  -3  -8    9.19    1.87
  -3  -3  -8    5.11    1.09
   3   3   8    4.85    0.84
  -4  -3  -8   12.56    1.93
  -4  -3  -8    9.96    2.01
  -5  -3  -8   24.93    2.33
  -5  -3  -8   29.17    2.46
  -6  -3  -8   19.92    2.12
  -6  -3  -8   23.87    2.27
   6   3   8   17.06    2.24
  -7  -3  -8   72.41    4.08
  -7  -3  -8   80.12    4.23
   7   3   8   76.22    4.12
  -8  -3  -8    0.55    0.88
  -8  -3  -8    1.45    1.00
   0  -4  -8    1.12    0.80
   0  -4  -8    2.35    1.12
   0   4   8    0.22    1.04
   0   4   8    0.99    1.32
  -1  -4  -8    6.16    1.62
  -1  -4  -8    6.79    1.10
   1   4   8    3.76    1.42
   1   4   8    4.98    1.05
  -2  -4  -8    9.70    1.82
  -2  -4  -8    6.74    1.01
  -2  -4  -8    4.61    1.07
   2   4   8    5.67    1.21
   2   4   8    8.76    1.62
  -3  -4  -8   10.75    1.93
  -3  -4  -8   10.11    1.50
  -3  -4  -8   10.91    2.04
   3   4   8   11.02    1.56
  -4  -4  -8   37.28    2.11
  -4  -4  -8   39.93    2.81
  -4  -4  -8   34.12    2.69
  -5  -4  -8    3.10    1.05
  -5  -4  -8    2.67    1.02
   5   4   8    1.37    0.96
  -6  -4  -8    7.00    1.12
  -6  -4  -8    6.16    1.05
   6   4   8    5.80    1.16
  -7  -4  -8    2.49    0.99
  -7  -4  -8    3.68    1.06
   7   4   8    5.20    1.24
  -8  -4  -8   57.24    3.52
  -8  -4  -8   54.50    3.31
  -1  -5  -8    1.06    0.99
  -1  -5  -8   -0.17    0.81
   1   5   8   -0.56    0.99
   1   5   8   -0.05    1.19
  -2  -5  -8   10.67    1.95
  -2  -5  -8   11.37    1.73
   2   5   8    7.06    1.17
   2   5   8    7.17    1.40
  -3  -5  -8    0.79    1.07
  -3  -5  -8    1.50    0.95
  -3  -5  -8    1.21    0.88
   3   5   8    1.34    1.70
  -4  -5  -8   -1.74    0.98
  -4  -5  -8   -0.55    0.73
  -4  -5  -8   -0.72    0.92
   4   5   8   -1.66    0.99
  -5  -5  -8   14.75    2.16
  -5  -5  -8   19.59    1.44
  -5  -5  -8   17.56    2.21
   5   5   8   13.01    2.19
  -6  -5  -8    1.65    1.02
  -6  -5  -8    1.40    0.95
   6   5   8    0.39    1.06
  -7  -5  -8   26.30    2.38
  -7  -5  -8   27.66    2.53
   7   5   8   29.47    2.68
  -8  -5  -8   -0.04    0.84
  -8  -5  -8   -0.33    1.08
   8   5   8    2.38    1.35
  -2  -6  -8   11.65    1.75
  -2  -6  -8   10.05    1.97
  -3  -6  -8    8.75    1.67
  -3  -6  -8   10.98    2.00
  -4  -6  -8   28.83    2.52
  -4  -6  -8   23.99    2.57
  -4  -6  -8   30.31    2.02
   4   6   8   23.87    2.64
  -5  -6  -8    5.34    1.14
   5   6   8    6.57    1.72
  -6  -6  -8   14.91    2.11
  -6  -6  -8   12.82    2.14
  -6  -6  -8   16.90    1.42
  -7  -6  -8    0.64    0.61
  -7  -6  -8   -0.61    1.30
  -7  -6  -8   -0.58    0.93
   7   6   8    1.56    1.31
  -4  -7  -8   38.00    2.55
  -4  -7  -8   41.19    2.98
   4   7   8   39.23    4.25
  -5  -7  -8    2.81    1.16
  -5  -7  -8    4.57    1.00
  -5  -7  -8    5.22    1.35
   5   7   8    3.18    1.21
  -6  -7  -8    4.04    1.31
  -6  -7  -8    5.11    0.95
  -2   3  -9   -0.54    1.18
  -2   3  -9    0.92    0.92
   2  -3   9    1.69    0.86
  -3   3  -9   15.68    2.07
   3  -3   9   15.47    1.45
  -1   2  -9    0.52    0.96
   1  -2   9    1.98    0.93
  -2   2  -9    3.70    0.98
   2  -2   9    3.42    0.84
  -3   2  -9    2.88    0.94
   3  -2   9    3.16    0.71
  -4   2  -9    2.36    1.01
  -5   2  -9   18.52    2.26
  -1   1  -9    0.15    0.96
   1  -1   9    0.80    1.02
   1  -1   9    1.75    1.14
  -2   1  -9    0.47    0.89
   2  -1   9   -0.39    0.76
   2  -1   9    1.22    1.16
  -3   1  -9    4.35    0.96
   3  -1   9    7.35    1.31
   3  -1   9    4.23    0.74
  -4   1  -9    1.73    0.98
  -5   1  -9    6.34    1.08
  -6   1  -9    5.73    1.19
   0   0  -9    2.28    1.16
   0   0   9    5.67    1.43
   0   0   9    3.38    1.10
  -1   0  -9    1.72    1.04
   1   0   9    2.57    1.30
   1   0   9    1.52    1.03
  -2   0  -9   30.50    2.51
   2   0   9   27.81    2.03
   2   0   9   34.14    2.61
  -3   0  -9    3.07    0.96
   3   0   9    2.89    0.69
   3   0   9    3.35    1.09
  -4   0  -9    2.59    0.90
  -5   0  -9    2.03    0.90
  -6   0  -9   11.24    2.02
   0   1   9   21.44    2.12
   0   1   9   24.51    2.95
  -1  -1  -9   12.46    2.22
   1   1   9   15.68    2.84
   1   1   9   13.03    1.68
  -2  -1  -9    9.78    2.02
   2   1   9   10.70    2.17
  -3  -1  -9   -0.53    0.90
   3   1   9   -0.45    0.65
   3   1   9    0.87    0.97
  -4  -1  -9   -0.12    0.91
   4   1   9    0.50    1.09
  -5  -1  -9    3.29    1.04
   5   1   9    4.36    1.83
  -6  -1  -9    1.82    0.92
  -7  -1  -9   11.65    2.13
  -1  -2  -9    2.86    1.17
   1   2   9    3.88    1.48
   1   2   9    3.54    1.02
   2   2   9    7.19    2.41
   2   2   9    7.55    1.50
  -3  -2  -9    0.73    0.96
  -3  -2  -9    1.33    0.94
   3   2   9    0.65    0.74
   3   2   9    0.31    1.15
  -4  -2  -9    1.86    0.87
   4   2   9    2.83    1.22
  -5  -2  -9    0.65    0.84
   5   2   9    1.67    1.74
  -6  -2  -9    6.06    1.16
   6   2   9    8.01    1.45
  -7  -2  -9   11.74    2.06
  -1  -3  -9    4.32    1.02
   1   3   9    4.20    1.04
   1   3   9    3.33    1.33
  -2  -3  -9    2.64    1.17
  -2  -3  -9    2.65    1.01
   2   3   9    2.37    1.19
   2   3   9    2.03    1.13
  -3  -3  -9    0.02    0.92
  -3  -3  -9    1.62    0.96
   3   3   9   -0.18    0.78
   3   3   9    3.96    1.66
  -4  -3  -9   12.07    1.95
  -4  -3  -9   11.05    2.09
   4   3   9    6.81    2.55
  -5  -3  -9   45.37    2.93
  -5  -3  -9   39.67    2.89
   5   3   9   42.15    3.64
  -6  -3  -9   14.00    2.21
  -6  -3  -9   12.68    2.02
   6   3   9   12.02    2.20
  -7  -3  -9   20.12    2.41
  -7  -3  -9   17.52    2.21
   7   3   9   18.64    2.28
  -2  -4  -9    1.01    0.94
  -2  -4  -9    0.98    0.96
  -2  -4  -9   -0.06    2.00
   2   4   9    0.99    1.00
   2   4   9   -0.44    1.32
  -3  -4  -9    1.01    1.07
  -3  -4  -9    2.53    1.02
  -3  -4  -9    2.05    0.92
   3   4   9    0.65    0.89
   3   4   9    1.65    1.22
  -4  -4  -9   -0.85    0.97
  -4  -4  -9    0.67    0.96
   4   4   9   -0.76    1.05
  -5  -4  -9    2.40    0.98
  -5  -4  -9    4.17    1.10
   5   4   9    3.72    1.16
  -6  -4  -9   12.23    2.19
  -6  -4  -9   10.44    2.01
   6   4   9    7.13    1.23
  -7  -4  -9   27.37    2.55
  -7  -4  -9   22.93    3.28
   7   4   9   29.16    2.64
  -3  -5  -9    0.20    0.94
  -3  -5  -9    1.99    1.03
  -3  -5  -9    0.50    1.46
   3   5   9   -0.03    0.95
  -4  -5  -9   13.21    2.21
  -4  -5  -9   15.42    2.27
   4   5   9   13.48    2.73
  -5  -5  -9    4.51    0.78
  -5  -5  -9    1.78    1.06
  -5  -5  -9    3.34    1.05
   5   5   9    1.34    1.15
  -6  -5  -9   16.47    2.29
  -6  -5  -9   17.93    2.36
   6   5   9   14.06    2.28
  -4  -1 -10    1.96    1.78
  -5  -1 -10    0.54    1.91
  -4  -2 -10    1.15    1.02
  -5  -2 -10   14.81    2.81
   0   0   0    0.00    0.00
;
_shelx_hkl_checksum              21022
loop_
_space_group_symop_operation_xyz
'x, y, z'
loop_
_atom_site_label
_atom_site_type_symbol
_atom_site_fract_x
_atom_site_fract_y
_atom_site_fract_z
_atom_site_U_iso_or_equiv
_atom_site_adp_type
_atom_site_occupancy
_atom_site_site_symmetry_order
_atom_site_calc_flag
_atom_site_refinement_flags_posn
_atom_site_refinement_flags_adp
_atom_site_refinement_flags_occupancy
_atom_site_disorder_assembly
_atom_site_disorder_group
S S 0.95047(18) 0.71463(16) 1.05223(18) 0.0400(4) Uani 1 1 d . . . . .
O1 O 1.1277(6) 0.6042(5) 1.0565(6) 0.0428(11) Uani 1 1 d . . . . .
O2 O 0.8404(8) 0.8626(6) 1.1728(6) 0.0509(12) Uani 1 1 d . . . . .
O3 O 0.2356(6) 1.4649(5) 0.6410(6) 0.0397(10) Uani 1 1 d . . . . .
N1 N 1.0179(7) 0.7884(6) 0.8384(7) 0.0343(11) Uani 1 1 d . . . . .
H1A H 1.081(10) 0.707(9) 0.763(9) 0.041(19) Uiso 1 1 d . . . . .
N2 N 0.8584(7) 0.9007(6) 0.8067(7) 0.0338(11) Uani 1 1 d . . . . .
N3 N 0.5298(7) 1.3824(6) 0.6504(7) 0.0332(11) Uani 1 1 d . . . . .
C1 C 0.7946(8) 0.5820(7) 1.0894(8) 0.0282(12) Uani 1 1 d . . . . .
C2 C 0.8708(8) 0.4015(7) 1.0736(8) 0.0294(12) Uani 1 1 d . . . . .
H2C H 1.005050 0.349784 1.043524 0.035 Uiso 1 1 calc R U . . .
C3 C 0.7460(9) 0.2969(7) 1.1029(8) 0.0351(13) Uani 1 1 d . . . . .
H3A H 0.796068 0.172643 1.093702 0.042 Uiso 1 1 calc R U . . .
C4 C 0.5493(9) 0.3717(7) 1.1454(8) 0.0309(12) Uani 1 1 d . . . . .
C5 C 0.4804(9) 0.5528(8) 1.1586(8) 0.0375(14) Uani 1 1 d . . . . .
H5A H 0.346506 0.605338 1.187661 0.045 Uiso 1 1 calc R U . . .
C6 C 0.6000(9) 0.6599(7) 1.1308(9) 0.0365(14) Uani 1 1 d . . . . .
H6A H 0.549733 0.784097 1.139921 0.044 Uiso 1 1 calc R U . . .
C7 C 0.4154(9) 0.2572(8) 1.1765(9) 0.0383(14) Uani 1 1 d . . . . .
H7A H 0.489681 0.133271 1.161440 0.057 Uiso 1 1 calc R U . . .
H7B H 0.310288 0.274660 1.301932 0.057 Uiso 1 1 calc R U . . .
H7C H 0.359474 0.289442 1.086278 0.057 Uiso 1 1 calc R U . . .
C8 C 0.8944(9) 0.9431(7) 0.6373(8) 0.0328(13) Uani 1 1 d . . . . .
C9 C 0.7246(9) 1.0712(7) 0.6061(9) 0.0352(13) Uani 1 1 d . . . . .
H9A H 0.758110 1.074569 0.470901 0.042 Uiso 1 1 calc R U . . .
C10 C 0.5330(9) 1.0241(8) 0.7099(10) 0.0438(16) Uani 1 1 d . . . . .
H10A H 0.494334 1.024849 0.844589 0.053 Uiso 1 1 calc R U . . .
H10B H 0.547655 0.903938 0.676632 0.053 Uiso 1 1 calc R U . . .
C11 C 0.3733(9) 1.1557(7) 0.6635(9) 0.0376(14) Uani 1 1 d . . . . .
H11A H 0.386686 1.123080 0.543617 0.045 Uiso 1 1 calc R U . . .
H11B H 0.244653 1.144060 0.759028 0.045 Uiso 1 1 calc R U . . .
C12 C 0.3761(8) 1.3475(7) 0.6515(8) 0.0327(13) Uani 1 1 d . . . . .
C13 C 0.5515(9) 1.5615(7) 0.6238(9) 0.0384(14) Uani 1 1 d . . . . .
H13A H 0.454202 1.634766 0.732143 0.046 Uiso 1 1 calc R U . . .
H13B H 0.535955 1.617082 0.511789 0.046 Uiso 1 1 calc R U . . .
C14 C 0.7588(10) 1.5388(8) 0.6018(10) 0.0405(14) Uani 1 1 d . . . . .
H14A H 0.756894 1.568450 0.717677 0.049 Uiso 1 1 calc R U . . .
H14B H 0.825655 1.614915 0.500288 0.049 Uiso 1 1 calc R U . . .
C15 C 0.8608(9) 1.3436(8) 0.5565(9) 0.0398(15) Uani 1 1 d . . . . .
H15A H 0.915665 1.323843 0.422119 0.048 Uiso 1 1 calc R U . . .
H15B H 0.966879 1.300931 0.597471 0.048 Uiso 1 1 calc R U . . .
C16 C 0.7027(8) 1.2542(7) 0.6619(9) 0.0328(13) Uani 1 1 d . . . . .
H16A H 0.681377 1.246504 0.794208 0.039 Uiso 1 1 calc R U . . .
C17 C 1.0827(10) 0.8828(9) 0.4722(10) 0.0485(17) Uani 1 1 d . . . . .
H17A H 1.069003 0.935854 0.360011 0.073 Uiso 1 1 calc R U . . .
H17B H 1.185198 0.918777 0.483059 0.073 Uiso 1 1 calc R U . . .
H17C H 1.117670 0.754324 0.465011 0.073 Uiso 1 1 calc R U . . .
loop_
_atom_site_aniso_label
_atom_site_aniso_U_11
_atom_site_aniso_U_22
_atom_site_aniso_U_33
_atom_site_aniso_U_23
_atom_site_aniso_U_13
_atom_site_aniso_U_12
S 0.0463(10) 0.0311(8) 0.0569(10) 0.0028(7) -0.0358(8) -0.0096(7)
O1 0.047(3) 0.035(2) 0.068(3) 0.012(2) -0.044(3) -0.016(2)
O2 0.077(4) 0.035(2) 0.057(3) -0.002(2) -0.042(3) -0.015(2)
O3 0.033(2) 0.030(2) 0.060(3) 0.0023(18) -0.027(2) -0.0011(17)
N1 0.026(3) 0.027(2) 0.052(3) -0.001(2) -0.023(2) 0.000(2)
N2 0.035(3) 0.020(2) 0.053(3) 0.000(2) -0.027(2) -0.0031(19)
N3 0.033(3) 0.020(2) 0.052(3) 0.002(2) -0.025(2) -0.0048(19)
C1 0.031(3) 0.022(3) 0.037(3) 0.004(2) -0.020(3) -0.006(2)
C2 0.027(3) 0.028(3) 0.033(3) 0.004(2) -0.017(2) -0.004(2)
C3 0.040(4) 0.023(3) 0.042(3) -0.002(2) -0.020(3) -0.002(2)
C4 0.034(3) 0.032(3) 0.032(3) 0.001(2) -0.017(3) -0.012(2)
C5 0.027(3) 0.040(3) 0.045(4) -0.011(3) -0.017(3) 0.001(2)
C6 0.041(4) 0.024(3) 0.050(4) -0.005(3) -0.027(3) -0.001(2)
C7 0.037(4) 0.038(3) 0.040(3) 0.005(3) -0.016(3) -0.013(3)
C8 0.032(3) 0.025(3) 0.045(3) -0.003(2) -0.020(3) -0.007(2)
C9 0.042(4) 0.021(3) 0.050(3) 0.001(3) -0.029(3) -0.003(2)
C10 0.042(4) 0.026(3) 0.074(5) -0.001(3) -0.035(3) -0.006(3)
C11 0.033(3) 0.029(3) 0.058(4) -0.002(3) -0.026(3) -0.006(2)
C12 0.036(3) 0.026(3) 0.037(3) -0.001(2) -0.019(3) -0.004(2)
C13 0.036(3) 0.026(3) 0.056(4) 0.006(3) -0.025(3) -0.008(2)
C14 0.039(3) 0.032(3) 0.055(4) 0.003(3) -0.023(3) -0.012(3)
C15 0.034(3) 0.034(3) 0.053(4) 0.001(3) -0.020(3) -0.010(3)
C16 0.028(3) 0.027(3) 0.049(3) 0.003(2) -0.022(3) -0.007(2)
C17 0.041(4) 0.040(4) 0.056(4) -0.005(3) -0.023(3) 0.006(3)
loop_
_atom_type_symbol
_atom_type_description
_atom_type_scat_dispersion_real
_atom_type_scat_dispersion_imag
_atom_type_scat_source
C C 0.0033 0.0016 'International Tables Vol C Tables 4.2.6.8 and 6.1.1.4'
H H 0.0000 0.0000 'International Tables Vol C Tables 4.2.6.8 and 6.1.1.4'
N N 0.0061 0.0033 'International Tables Vol C Tables 4.2.6.8 and 6.1.1.4'
O O 0.0106 0.0060 'International Tables Vol C Tables 4.2.6.8 and 6.1.1.4'
S S 0.1246 0.1234 'International Tables Vol C Tables 4.2.6.8 and 6.1.1.4'
loop_
_geom_angle_atom_site_label_1
_geom_angle_atom_site_label_2
_geom_angle_atom_site_label_3
_geom_angle
_geom_angle_site_symmetry_1
_geom_angle_site_symmetry_3
_geom_angle_publ_flag
O1 S O2 120.1(3) . . ?
O1 S N1 104.0(3) . . ?
O2 S N1 108.1(3) . . ?
O1 S C1 108.4(3) . . ?
O2 S C1 108.0(3) . . ?
N1 S C1 107.6(3) . . ?
N2 N1 S 112.2(4) . . ?
N2 N1 H1A 112(5) . . ?
S N1 H1A 112(5) . . ?
C8 N2 N1 115.7(5) . . ?
C12 N3 C13 121.5(5) . . ?
C12 N3 C16 127.2(4) . . ?
C13 N3 C16 111.2(5) . . ?
C6 C1 C2 121.5(5) . . ?
C6 C1 S 119.6(4) . . ?
C2 C1 S 118.9(4) . . ?
C1 C2 C3 118.5(5) . . ?
C1 C2 H2C 120.7 . . ?
C3 C2 H2C 120.7 . . ?
C4 C3 C2 121.1(5) . . ?
C4 C3 H3A 119.4 . . ?
C2 C3 H3A 119.4 . . ?
C5 C4 C3 118.2(5) . . ?
C5 C4 C7 121.1(5) . . ?
C3 C4 C7 120.7(5) . . ?
C4 C5 C6 122.1(5) . . ?
C4 C5 H5A 118.9 . . ?
C6 C5 H5A 118.9 . . ?
C1 C6 C5 118.5(5) . . ?
C1 C6 H6A 120.7 . . ?
C5 C6 H6A 120.7 . . ?
C4 C7 H7A 109.5 . . ?
C4 C7 H7B 109.5 . . ?
H7A C7 H7B 109.5 . . ?
C4 C7 H7C 109.5 . . ?
H7A C7 H7C 109.5 . . ?
H7B C7 H7C 109.5 . . ?
N2 C8 C17 126.9(6) . . ?
N2 C8 C9 115.1(5) . . ?
C17 C8 C9 118.0(5) . . ?
C10 C9 C16 109.3(5) . . ?
C10 C9 C8 114.5(5) . . ?
C16 C9 C8 108.3(4) . . ?
C10 C9 H9A 108.2 . . ?
C16 C9 H9A 108.2 . . ?
C8 C9 H9A 108.2 . . ?
C9 C10 C11 110.7(5) . . ?
C9 C10 H10A 109.5 . . ?
C11 C10 H10A 109.5 . . ?
C9 C10 H10B 109.5 . . ?
C11 C10 H10B 109.5 . . ?
H10A C10 H10B 108.1 . . ?
C12 C11 C10 115.1(5) . . ?
C12 C11 H11A 108.5 . . ?
C10 C11 H11A 108.5 . . ?
C12 C11 H11B 108.5 . . ?
C10 C11 H11B 108.5 . . ?
H11A C11 H11B 107.5 . . ?
O3 C12 N3 122.9(5) . . ?
O3 C12 C11 119.1(5) . . ?
N3 C12 C11 118.0(5) . . ?
N3 C13 C14 104.2(5) . . ?
N3 C13 H13A 110.9 . . ?
C14 C13 H13A 110.9 . . ?
N3 C13 H13B 110.9 . . ?
C14 C13 H13B 110.9 . . ?
H13A C13 H13B 108.9 . . ?
C13 C14 C15 104.7(5) . . ?
C13 C14 H14A 110.8 . . ?
C15 C14 H14A 110.8 . . ?
C13 C14 H14B 110.8 . . ?
C15 C14 H14B 110.8 . . ?
H14A C14 H14B 108.9 . . ?
C16 C15 C14 103.7(5) . . ?
C16 C15 H15A 111.0 . . ?
C14 C15 H15A 111.0 . . ?
C16 C15 H15B 111.0 . . ?
C14 C15 H15B 111.0 . . ?
H15A C15 H15B 109.0 . . ?
N3 C16 C15 103.0(5) . . ?
N3 C16 C9 111.2(4) . . ?
C15 C16 C9 119.8(5) . . ?
N3 C16 H16A 107.4 . . ?
C15 C16 H16A 107.4 . . ?
C9 C16 H16A 107.4 . . ?
C8 C17 H17A 109.5 . . ?
C8 C17 H17B 109.5 . . ?
H17A C17 H17B 109.5 . . ?
C8 C17 H17C 109.5 . . ?
H17A C17 H17C 109.5 . . ?
H17B C17 H17C 109.5 . . ?
loop_
_geom_bond_atom_site_label_1
_geom_bond_atom_site_label_2
_geom_bond_distance
_geom_bond_site_symmetry_2
_geom_bond_publ_flag
S O1 1.434(4) . ?
S O2 1.436(4) . ?
S N1 1.637(5) . ?
S C1 1.756(6) . ?
O3 C12 1.253(7) . ?
N1 N2 1.422(6) . ?
N1 H1A 0.83(6) . ?
N2 C8 1.281(8) . ?
N3 C12 1.326(7) . ?
N3 C13 1.460(7) . ?
N3 C16 1.480(7) . ?
C1 C6 1.384(8) . ?
C1 C2 1.384(7) . ?
C2 C3 1.398(9) . ?
C2 H2C 0.9500 . ?
C3 C4 1.393(8) . ?
C3 H3A 0.9500 . ?
C4 C5 1.383(8) . ?
C4 C7 1.515(8) . ?
C5 C6 1.383(9) . ?
C5 H5A 0.9500 . ?
C6 H6A 0.9500 . ?
C7 H7A 0.9800 . ?
C7 H7B 0.9800 . ?
C7 H7C 0.9800 . ?
C8 C17 1.493(9) . ?
C8 C9 1.528(8) . ?
C9 C10 1.506(9) . ?
C9 C16 1.524(7) . ?
C9 H9A 1.0000 . ?
C10 C11 1.539(8) . ?
C10 H10A 0.9900 . ?
C10 H10B 0.9900 . ?
C11 C12 1.521(8) . ?
C11 H11A 0.9900 . ?
C11 H11B 0.9900 . ?
C13 C14 1.532(9) . ?
C13 H13A 0.9900 . ?
C13 H13B 0.9900 . ?
C14 C15 1.535(8) . ?
C14 H14A 0.9900 . ?
C14 H14B 0.9900 . ?
C15 C16 1.486(9) . ?
C15 H15A 0.9900 . ?
C15 H15B 0.9900 . ?
C16 H16A 1.0000 . ?
C17 H17A 0.9800 . ?
C17 H17B 0.9800 . ?
C17 H17C 0.9800 . ?
