#------------------------------------------------------------------------------
#$Date: 2020-09-04 03:28:54 +0300 (Fri, 04 Sep 2020) $
#$Revision: 255860 $
#$URL: file:///home/coder/svn-repositories/cod/cif/4/51/79/4517900.cif $
#------------------------------------------------------------------------------
#
# This file is available in the Crystallography Open Database (COD),
# http://www.crystallography.net/
#
# All data on this site have been placed in the public domain by the
# contributors.
#
data_4517900
loop_
_publ_author_name
'Thomas, Rudy'
'Devaux, Philippe'
'Rivenet, Murielle'
'Henry, Natacha'
'Abraham, Francis'
_publ_section_title
;
 Zirconium Oxalates: Zr(OH)<sub>2</sub>(C<sub>2</sub>O<sub>4</sub>),
 (H<sub>11</sub>O<sub>5</sub>)<sub>2</sub>[Zr<sub>2</sub>(C<sub>2</sub>O<sub>4</sub>)<sub>5</sub>(H<sub>2</sub>O)<sub>4</sub>],
 and
 MM'[Zr(C<sub>2</sub>O<sub>4</sub>)<sub>3</sub>]&#x00B7;<i>x</i>H<sub>2</sub>O
 with M and M' = Ammonium, Alkali Metal, and Hydroxonium Ion
 H<sub>2<i>n</i>+1</sub>O <sub> <i>n</i> </sub><sup>+</sup> (<i>n</i> = 2,
 3, 4).
;
_journal_issue                   33
_journal_name_full               'ACS omega'
_journal_page_first              21260
_journal_page_last               21270
_journal_paper_doi               10.1021/acsomega.0c03224
_journal_volume                  5
_journal_year                    2020
_chemical_formula_sum            'C10 H30 O34 Zr2'
_chemical_formula_weight         876.78
_space_group_crystal_system      triclinic
_space_group_IT_number           2
_space_group_name_Hall           '-P 1'
_space_group_name_H-M_alt        'P -1'
_atom_sites_solution_hydrogens   difmap
_audit_creation_method           SHELXL-2013
_cell_angle_alpha                78.421(2)
_cell_angle_beta                 86.155(2)
_cell_angle_gamma                89.945(2)
_cell_formula_units_Z            1
_cell_length_a                   6.9269(3)
_cell_length_b                   10.4427(6)
_cell_length_c                   10.6447(6)
_cell_measurement_reflns_used    3957
_cell_measurement_temperature    296(2)
_cell_measurement_theta_max      24.20
_cell_measurement_theta_min      2.50
_cell_volume                     752.56(7)
_computing_cell_refinement       'Bruker SMART'
_computing_data_collection       'Bruker SMART'
_computing_data_reduction        'Bruker SAINT'
_computing_molecular_graphics    'Bruker SHELXTL'
_computing_publication_material  'Bruker SHELXTL'
_computing_structure_refinement  'SHELXL-2013 (Sheldrick, 2013)'
_computing_structure_solution    'Bruker SHELXTL'
_diffrn_ambient_temperature      296(2)
_diffrn_measured_fraction_theta_full 0.997
_diffrn_measured_fraction_theta_max 0.990
_diffrn_measurement_device_type  'CCD area detector'
_diffrn_measurement_method       'phi and omega scans'
_diffrn_radiation_type           MoK\a
_diffrn_radiation_wavelength     0.71073
_diffrn_reflns_av_R_equivalents  0.0581
_diffrn_reflns_av_unetI/netI     0.0389
_diffrn_reflns_Laue_measured_fraction_full 0.997
_diffrn_reflns_Laue_measured_fraction_max 0.990
_diffrn_reflns_limit_h_max       8
_diffrn_reflns_limit_h_min       -8
_diffrn_reflns_limit_k_max       12
_diffrn_reflns_limit_k_min       -12
_diffrn_reflns_limit_l_max       13
_diffrn_reflns_limit_l_min       -13
_diffrn_reflns_number            19393
_diffrn_reflns_point_group_measured_fraction_full 0.997
_diffrn_reflns_point_group_measured_fraction_max 0.990
_diffrn_reflns_theta_full        25.242
_diffrn_reflns_theta_max         25.943
_diffrn_reflns_theta_min         1.957
_diffrn_source                   'sealed tube'
_exptl_absorpt_coefficient_mu    0.821
_exptl_absorpt_correction_T_max  1
_exptl_absorpt_correction_T_min  0.902
_exptl_absorpt_correction_type   empirical
_exptl_absorpt_process_details   sadabs
_exptl_crystal_colour            colorless
_exptl_crystal_density_diffrn    1.935
_exptl_crystal_density_method    'not measured'
_exptl_crystal_description       plate
_exptl_crystal_F_000             442
_exptl_crystal_size_max          0.258
_exptl_crystal_size_mid          0.152
_exptl_crystal_size_min          0.050
_refine_diff_density_max         0.545
_refine_diff_density_min         -0.397
_refine_diff_density_rms         0.081
_refine_ls_extinction_method     none
_refine_ls_goodness_of_fit_ref   1.045
_refine_ls_hydrogen_treatment    refxyz
_refine_ls_matrix_type           full
_refine_ls_number_parameters     253
_refine_ls_number_reflns         2914
_refine_ls_number_restraints     15
_refine_ls_restrained_S_all      1.045
_refine_ls_R_factor_all          0.0378
_refine_ls_R_factor_gt           0.0282
_refine_ls_shift/su_max          0.001
_refine_ls_shift/su_mean         0.000
_refine_ls_structure_factor_coef Fsqd
_refine_ls_weighting_details
'w=1/[\s^2^(Fo^2^)+(0.0161P)^2^+0.6032P] where P=(Fo^2^+2Fc^2^)/3'
_refine_ls_weighting_scheme      calc
_refine_ls_wR_factor_gt          0.0529
_refine_ls_wR_factor_ref         0.0566
_reflns_Friedel_coverage         0.000
_reflns_number_gt                2498
_reflns_number_total             2914
_reflns_threshold_expression     'I > 2\s(I)'
_cod_data_source_file            ao0c03224_si_002.cif
_cod_data_source_block           H2Zr2Ox5
_cod_depositor_comments
'Adding full bibliography for 4517899--4517905.cif.'
_cod_database_code               4517900
_shelx_space_group_comment
;
The symmetry employed for this shelxl refinement is uniquely defined
by the following loop, which should always be used as a source of
symmetry information in preference to the above space-group names.
They are only intended as comments.
;
_shelxl_version_number           2013-3
_shelx_res_file
;
TITL H2Zr2Ox5 in P-1
CELL 0.71073   6.9269  10.4427  10.6447  78.421  86.155  89.945
ZERR    2.00   0.0003   0.0006   0.0006   0.002   0.002   0.002
LATT 1
SFAC C  H  O  Zr
UNIT 10  30  34  2
L.S. 10
ACTA
BOND
FMAP 2
PLAN 20
DFIX 0.86 0.04 O1 H1 O1 H2 O2 H3 O2 H4 O13 H5 O13 H6 O14 H8 O14 H9
DFIX 0.86 0.04 O15 H10 O15 H11 O16 H12 O16 H13 O17 H14 O17 H15
DFIX 1.23 0.04 O13 H7
TEMP 293.000
WGHT    0.016100    0.603200
FVAR       0.61349
ZR1   4    0.311396    0.842604    0.839615    11.00000    0.01843    0.01807 =
         0.02156   -0.00800   -0.00792   -0.00169
C1    1    0.560049    1.036808    0.941783    11.00000    0.01971    0.01580 =
         0.02645   -0.00675   -0.00859    0.00203
C2    1   -0.027981    0.916231    0.674014    11.00000    0.01851    0.02543 =
         0.02325   -0.00787   -0.00358   -0.00217
C3    1    0.014380    1.038983    0.726614    11.00000    0.01935    0.02538 =
         0.02630   -0.01124   -0.00030   -0.00244
C4    1    0.485626    0.577893    0.812534    11.00000    0.02191    0.02477 =
         0.03215   -0.00891   -0.00704   -0.00292
C5    1    0.637041    0.646027    0.876976    11.00000    0.02229    0.02156 =
         0.03311   -0.00770   -0.00895   -0.00174
O1    3    0.446577    0.902004    0.649256    11.00000    0.02763    0.03872 =
         0.02573   -0.01401   -0.00355   -0.01033
H1    2    0.552554    0.936056    0.634892    11.00000   -1.20000
H2    2    0.424473    0.860753    0.589111    11.00000   -1.20000
O2    3    0.082452    0.733517    0.961963    11.00000    0.03281    0.04358 =
         0.02635   -0.00988   -0.00635   -0.01848
H3    2    0.005866    0.688332    0.937803    11.00000   -1.20000
H4    2    0.089499    0.709280    1.042110    11.00000   -1.20000
O3    3    0.319051    0.881999    1.036679    11.00000    0.02738    0.02841 =
         0.02468   -0.00878   -0.00503   -0.01225
O4    3    0.527656    1.009694    0.836241    11.00000    0.02802    0.02496 =
         0.01980   -0.00720   -0.00628   -0.00763
O5    3    0.146888    1.022826    0.807152    11.00000    0.02493    0.02599 =
         0.03555   -0.01412   -0.01272    0.00180
O6    3    0.082877    0.821085    0.711252    11.00000    0.02620    0.02136 =
         0.03144   -0.00973   -0.01444    0.00259
O7    3    0.336975    0.648208    0.785413    11.00000    0.02410    0.02428 =
         0.04195   -0.01367   -0.01566    0.00169
O8    3    0.578916    0.754795    0.903009    11.00000    0.03260    0.02622 =
         0.04666   -0.01862   -0.02163    0.00798
O9    3   -0.158427    0.916053    0.600538    11.00000    0.02570    0.03551 =
         0.03513   -0.01402   -0.01505    0.00436
O10   3   -0.071707    1.140599    0.690507    11.00000    0.03304    0.02511 =
         0.04232   -0.01388   -0.01445    0.00846
O11   3    0.795054    0.596419    0.896772    11.00000    0.02577    0.03418 =
         0.06444   -0.02190   -0.02095    0.00549
O12   3    0.514098    0.467932    0.792216    11.00000    0.03188    0.02586 =
         0.06436   -0.02254   -0.01870    0.00518
O13   3    1.087757    0.546714    0.635399    11.00000    0.03964    0.02999 =
         0.06115   -0.01255   -0.01227   -0.00552
H5    2    1.162191    0.589191    0.668661    11.00000   -1.20000
H6    2    1.035950    0.478424    0.688206    11.00000   -1.20000
H7    2    0.960079    0.608097    0.588483    11.00000   -1.20000
O14   3    0.818936    0.677205    0.547031    11.00000    0.05418    0.03393 =
         0.04809   -0.01352   -0.02541    0.00270
H8    2    0.826138    0.759133    0.561938    11.00000   -1.20000
H9    2    0.791502    0.676831    0.474614    11.00000   -1.20000
O15   3    0.633061    0.205624    0.533613    11.00000    0.04536    0.09233 =
         0.04625   -0.04126   -0.02289    0.02385
H10   2    0.717508    0.164043    0.577946    11.00000   -1.20000
H11   2    0.541524    0.225957    0.585847    11.00000   -1.20000
O16   3    0.887254    0.360995    0.788890    11.00000    0.03569    0.02404 =
         0.03906   -0.01208   -0.00467    0.00455
H12   2    0.887866    0.297362    0.756237    11.00000   -1.20000
H13   2    0.781246    0.391292    0.790507    11.00000   -1.20000
O17   3    0.332485    0.282754    0.689651    11.00000    0.04651    0.03072 =
         0.04487   -0.01524   -0.01341   -0.00306
H14   2    0.278856    0.226101    0.746881    11.00000   -1.20000
H15   2    0.369550    0.341531    0.724470    11.00000   -1.20000
HKLF 4

REM  H2Zr2Ox5 in P-1
REM R1 =  0.0282 for    2498 Fo > 4sig(Fo)  and  0.0378 for all    2914 data
REM    253 parameters refined using     15 restraints

END

WGHT      0.0198      0.4991

REM Highest difference peak  0.545,  deepest hole -0.397,  1-sigma level  0.081
Q1    1   0.5847  0.1186  0.5708  11.00000  0.05    0.55
Q2    1   0.9269  0.5344  0.5160  11.00000  0.05    0.49
Q3    1   0.6649  0.2157  0.5248  11.00000  0.05    0.37
Q4    1  -0.1022  1.2233  0.6829  11.00000  0.05    0.32
Q5    1   0.4419  0.9417  0.8787  11.00000  0.05    0.32
Q6    1   0.4292  0.7552  0.9487  11.00000  0.05    0.31
Q7    1   0.9368  0.7197  0.5003  11.00000  0.05    0.28
Q8    1   0.5734  0.8044  0.7037  11.00000  0.05    0.27
Q9    1   0.6719  0.6154  0.5265  11.00000  0.05    0.27
Q10   1   0.4560  0.8358  0.7282  11.00000  0.05    0.26
Q11   1   0.3428  0.7022  0.8506  11.00000  0.05    0.26
Q12   1   0.9239  0.7193  0.4471  11.00000  0.05    0.26
Q13   1   0.4638  0.7416  0.8640  11.00000  0.05    0.26
Q14   1   0.4308  0.3681  0.5644  11.00000  0.05    0.26
Q15   1   1.0099  0.3019  0.6344  11.00000  0.05    0.26
Q16   1   1.0944  0.7067  0.4802  11.00000  0.05    0.26
Q17   1  -0.0305  0.6837  1.0737  11.00000  0.05    0.25
Q18   1   0.4044  0.6719  0.7583  11.00000  0.05    0.25
Q19   1   0.6861  0.7245  0.6986  11.00000  0.05    0.25
Q20   1   0.1681  0.3583  0.6929  11.00000  0.05    0.25
;
_shelx_res_checksum              84341
_shelx_hkl_file
;
   1   0   0  310.74   12.53
  -1   0   0  292.12   11.94
  -1   0   0  299.22   12.32
  -1   0   0  304.79   12.36
  -1   0   0  286.93   12.39
   1   0   0  288.27   12.08
   1   0   0  282.93   11.91
   1   0   0  277.05   12.15
   1   0   0  281.85   12.07
   1   0   0  259.76   12.34
   2   0   0   12.39    4.07
   2   0   0   29.47    4.70
   2   0   0   30.39    5.38
  -2   0   0   23.12    4.28
   2   0   0   28.52    5.20
   2   0   0   27.03    5.16
  -2   0   0   21.89    4.27
  -2   0   0   30.94    4.07
  -2   0   0   24.19    4.63
  -2   0   0   21.23    4.28
   2   0   0   20.31    4.23
   3   0   0  254.86   17.00
   3   0   0  264.12   16.19
  -3   0   0  267.33   14.49
  -3   0   0  296.85   16.57
   3   0   0  317.47   16.85
   3   0   0  277.39   16.48
   3   0   0  288.52   16.11
  -3   0   0  283.54   15.40
   3   0   0  303.63   17.30
  -3   0   0  299.54   14.41
  -3   0   0  267.91   13.72
   4   0   0  182.62   15.58
   4   0   0  150.80   14.44
  -4   0   0  180.74   11.89
   4   0   0  195.00   16.76
  -4   0   0  187.99   13.11
  -4   0   0  187.66   11.92
   4   0   0  207.39   15.49
  -4   0   0  182.35   12.12
   4   0   0  165.66   14.82
  -4   0   0  173.30   14.75
   4   0   0  199.50   16.23
  -5   0   0  923.22   41.81
   5   0   0  845.24   42.21
   5   0   0  858.36   44.80
  -5   0   0  918.77   33.42
  -5   0   0  898.72   33.28
   5   0   0  961.75   43.76
  -5   0   0  901.01   34.34
  -5   0   0  840.23   36.10
   5   0   0  906.57   44.43
   5   0   0  881.64   42.20
   5   0   0  895.95   42.60
  -5   0   0  884.02   34.37
   6   0   0  367.70   27.17
   6   0   0  333.47   25.74
  -6   0   0  381.49   25.82
   6   0   0  348.69   28.33
   6   0   0  389.51   28.99
   7   0   0   -0.49    7.51
   7   0   0    4.13    7.84
  -7   0   0    9.30    7.83
   7   0   0   10.60    9.48
   8   0   0  260.68   30.58
  -8   0   0  225.21   23.35
  -8   1   0    8.77    8.76
   8  -1   0   20.72   13.09
  -7   1   0   16.55    8.32
   7  -1   0   23.95   10.35
   7  -1   0   25.03   10.65
   7  -1   0   21.78   10.11
  -6   1   0  579.53   30.41
   6  -1   0  569.31   31.88
   6  -1   0  468.37   32.85
   6  -1   0  526.59   31.81
   6  -1   0  577.03   34.11
   6  -1   0  523.13   31.41
   5  -1   0   46.23   10.02
   5  -1   0   24.40    7.35
   5  -1   0   38.57    9.50
   5  -1   0   38.47    8.44
  -5   1   0   40.79    8.16
   5  -1   0   50.87    9.07
  -4   1   0 1876.31   67.17
   4  -1   0 1894.77   67.36
   4  -1   0 1776.51   67.73
   4  -1   0 1829.98   67.68
   4  -1   0 1714.46   67.06
   4  -1   0 1929.71   69.34
   4  -1   0 1685.43   69.36
  -3   1   0   34.46    5.63
   3  -1   0   28.37    5.96
   3  -1   0   32.01    5.68
   3  -1   0   30.69    5.54
   3  -1   0   33.24    5.23
   3  -1   0   34.64    5.15
   3  -1   0   38.10    5.68
   2  -1   0  201.53   11.60
  -2   1   0  238.93   11.76
   2  -1   0  238.29   11.53
   2  -1   0  230.49   10.87
   2  -1   0  218.53   11.04
   2  -1   0  207.05   11.19
   1  -1   0 1753.82   62.07
   1  -1   0 1689.74   59.75
   0  -1   0 1519.55   53.63
   0   1   0 1612.17   53.32
   0  -1   0 1512.94   52.86
   0  -1   0 1569.87   54.51
   0   1   0 1551.68   53.99
  -1  -1   0  961.56   37.01
  -1  -1   0  994.17   36.54
   1   1   0 1028.71   36.97
   1   1   0  969.36   36.65
   1   1   0 1024.29   37.36
   1   1   0 1033.32   38.56
   1   1   0  966.09   37.09
  -1  -1   0  954.41   37.75
   2   1   0  134.84   10.52
   2   1   0  139.32   11.32
   2   1   0  143.76   10.68
  -2  -1   0  138.49   10.41
   2   1   0  128.87   11.33
   2   1   0  140.31   11.03
  -2  -1   0  127.44    9.83
  -2  -1   0  140.17   11.05
  -2  -1   0  115.68   10.11
  -2  -1   0  150.13   10.46
  -2  -1   0  121.03   10.30
  -3  -1   0  957.90   40.05
  -3  -1   0  962.65   39.40
  -3  -1   0  990.98   39.62
   3   1   0  933.47   40.79
  -3  -1   0  960.46   41.21
  -3  -1   0  933.10   38.68
   3   1   0  939.17   42.85
   3   1   0  975.55   41.97
  -3  -1   0  985.08   41.00
   3   1   0  935.46   40.76
   3   1   0  958.19   41.28
   4   1   0 1975.53   78.15
  -4  -1   0 1908.27   70.02
  -4  -1   0 1837.67   71.55
  -4  -1   0 1952.21   70.82
   4   1   0 1912.84   75.63
   4   1   0 1987.04   74.99
   4   1   0 1923.49   74.57
  -4  -1   0 1965.66   74.52
  -4  -1   0 1883.63   73.82
  -4  -1   0 1853.87   70.92
   4   1   0 1736.12   74.00
  -5  -1   0   65.14   10.85
  -5  -1   0   63.64    8.85
  -5  -1   0   67.36    9.19
  -5  -1   0   78.15   10.28
   5   1   0   91.96   14.23
   5   1   0   62.10   12.01
   5   1   0   81.35   13.01
  -5  -1   0   76.94   12.25
   5   1   0   68.30   13.09
  -5  -1   0   54.53    9.12
   5   1   0   82.18   14.47
  -6  -1   0   66.37    9.00
  -6  -1   0   80.23   13.75
  -6  -1   0   78.19    9.48
   6   1   0   63.46   13.64
   6   1   0   58.36   14.87
  -6  -1   0   83.21    9.94
   6   1   0   77.47   15.80
   6   1   0   72.05   14.28
  -7  -1   0  544.32   35.16
   7   1   0  491.09   36.57
   7   1   0  480.11   34.97
   7   1   0  499.99   39.06
  -7  -1   0  489.26   21.52
  -8  -1   0  251.97   26.38
   8   1   0  245.82   31.66
   8  -2   0   69.44   16.81
   8  -2   0   93.66   16.58
   7  -2   0  103.40   14.69
   7  -2   0  102.86   15.46
   7  -2   0  128.41   25.79
   7  -2   0   98.08   16.77
  -7   2   0  133.44   13.25
   6  -2   0  103.96   13.32
   6  -2   0   94.28   13.86
   6  -2   0  143.09   15.93
   6  -2   0   83.26   12.30
  -6   2   0   92.84   10.63
   6  -2   0   92.10   12.10
   5  -2   0   67.77   10.49
   5  -2   0   71.01   10.35
  -5   2   0   68.86    8.54
   5  -2   0   56.31    9.10
   5  -2   0   62.28    9.13
   5  -2   0   75.45    9.77
   4  -2   0   11.48    4.39
   4  -2   0   17.59    5.46
  -4   2   0   14.08    4.41
   4  -2   0   15.22    4.72
   4  -2   0   13.61    4.58
   4  -2   0   17.24    5.39
   3  -2   0  643.33   25.64
   3  -2   0  617.22   24.09
   3  -2   0  601.54   24.51
   3  -2   0  644.11   25.30
   3  -2   0  598.47   24.41
   3  -2   0  635.63   33.70
   3  -2   0  619.04   25.59
   2  -2   0 4848.34  168.42
   2  -2   0 4990.26  161.32
   2  -2   0 4928.10  170.99
   1  -2   0 2169.88   73.84
   1  -2   0 2162.59   74.66
   1  -2   0 2167.89   74.65
  -1   2   0 2238.04   78.32
  -1   2   0 2237.91   73.63
   1  -2   0 2148.50   73.21
   1  -2   0 2167.54   75.13
   1  -2   0 2099.55   78.18
   0   2   0   84.43    6.86
   0   2   0   91.98    6.95
   0  -2   0   70.29    6.48
   0  -2   0   97.05    7.39
   0   2   0   97.86    7.68
   0  -2   0   83.27    6.85
   0   2   0   93.27    6.99
   0  -2   0   89.42    7.03
   0   2   0   96.15    6.99
   0  -2   0   90.88    7.54
   1   2   0 2454.53   89.16
  -1  -2   0 2501.49   89.30
  -1  -2   0 2542.87   87.80
  -1  -2   0 2424.80   86.07
   1   2   0 2496.40   86.37
   1   2   0 2503.90   86.58
   1   2   0 2448.30   87.52
  -2  -2   0  108.81   10.50
   2   2   0  109.97   10.78
  -2  -2   0  110.12   11.49
   2   2   0   98.95   11.31
  -2  -2   0   99.53   10.25
   2   2   0  104.43   11.00
   2   2   0  103.25   10.71
   2   2   0   97.12   10.50
  -2  -2   0  118.87   10.82
   3   2   0 2237.74   82.83
  -3  -2   0 2197.69   84.05
  -3  -2   0 2200.41   80.40
   3   2   0 2165.58   82.03
   3   2   0 2229.87   83.61
  -3  -2   0 2120.55   81.77
  -3  -2   0 2199.25   81.08
   3   2   0 2113.77   83.19
  -3  -2   0 2196.60   81.56
   3   2   0 2037.11   85.00
  -3  -2   0 2173.73   82.11
   4   2   0 1481.41   62.31
  -4  -2   0 1490.95   59.69
  -4  -2   0 1527.63   63.10
  -4  -2   0 1384.27   58.15
  -4  -2   0 1412.65   58.92
   4   2   0 1485.73   65.80
   4   2   0 1337.01   61.52
   4   2   0 1408.55   61.32
   4   2   0 1531.57   63.56
  -4  -2   0 1389.47   59.70
  -4  -2   0 1461.41   61.29
   5   2   0   34.65   11.31
  -5  -2   0   25.05    9.29
   5   2   0   19.16    8.76
  -5  -2   0   29.55    8.97
  -5  -2   0   24.46    7.89
   5   2   0   22.81    9.06
  -5  -2   0   13.49    7.33
  -5  -2   0   -0.92    4.86
   5   2   0   16.01    8.97
   5   2   0   16.94    8.98
  -5  -2   0   27.41    9.51
   6   2   0   67.97   14.52
  -6  -2   0   22.49    8.24
  -6  -2   0   52.49    9.79
  -6  -2   0   35.98   11.10
  -6  -2   0   38.90    9.02
   6   2   0   43.97   13.98
  -6  -2   0   26.61    8.89
   6   2   0   41.78   12.90
   6   2   0   29.30   12.02
  -7  -2   0  208.91   24.06
  -7  -2   0  249.21   18.80
   7   2   0  261.34   30.37
  -7  -2   0  226.42   18.31
   7   2   0  205.26   25.05
   7   2   0  308.90   30.15
  -7  -2   0  245.51   18.17
   8   2   0   14.81   13.62
  -8  -2   0   15.33   12.52
   8  -3   0  276.28   24.10
   8  -3   0  269.24   27.25
   7  -3   0   19.10    9.36
   7  -3   0   14.93    8.60
   7  -3   0   16.09   14.19
   6  -3   0   92.22   12.97
   6  -3   0  114.18   12.95
   6  -3   0   79.98   11.40
   6  -3   0   74.67   12.19
   6  -3   0   77.55   10.73
   6  -3   0   45.59   15.33
   5  -3   0  440.29   33.97
   5  -3   0  422.81   22.49
   5  -3   0  446.45   24.33
   5  -3   0  437.83   24.78
   5  -3   0  450.12   22.90
   5  -3   0  405.95   22.40
   4  -3   0   62.99   13.58
   4  -3   0   83.36    7.67
   4  -3   0   76.88    8.17
   4  -3   0   66.92    7.89
   4  -3   0   83.61    7.53
   4  -3   0   81.54    8.05
   3  -3   0 1578.41   55.45
   3  -3   0 1567.95   53.83
   3  -3   0 1587.95   55.02
   3  -3   0 1656.27   67.91
   3  -3   0 1560.42   54.65
   3  -3   0 1471.35   55.22
   2  -3   0 1515.47   54.51
   2  -3   0 1654.87   64.51
   2  -3   0 1560.08   53.92
   2  -3   0 1582.75   54.73
   2  -3   0 1591.60   55.21
  -2   3   0 1603.09   63.67
   1  -3   0    1.56    2.75
  -1   3   0   -2.57    3.50
   1  -3   0    2.40    2.75
   1  -3   0   -1.27    2.61
   1  -3   0    3.26    3.01
  -1   3   0    1.68    2.61
   1  -3   0   -0.15    2.69
  -1   3   0   -1.67    1.74
  -1   3   0    1.41    1.85
  -1   3   0   -0.48    1.72
   0  -3   0  251.78   16.33
   0   3   0  280.36   15.07
   0   3   0  261.99   15.13
   0   3   0  266.28   14.71
   0  -3   0  262.96   15.52
   0  -3   0  280.81   15.73
   0  -3   0  263.76   15.40
   0  -3   0  292.36   15.53
   0   3   0  277.39   15.32
   0   3   0  274.76   16.20
   1   3   0  464.93   24.55
   1   3   0  491.68   25.35
  -1  -3   0  445.57   24.36
  -1  -3   0  528.21   27.13
   1   3   0  505.39   24.66
  -1  -3   0  502.91   25.33
   1   3   0  508.38   25.07
  -1  -3   0  522.71   25.06
   2   3   0  316.85   20.43
   2   3   0  345.96   21.39
  -2  -3   0  344.72   22.51
   2   3   0  288.71   21.32
  -2  -3   0  325.88   20.83
  -2  -3   0  346.59   20.89
  -2  -3   0  317.15   20.29
   2   3   0  332.80   21.11
   2   3   0  306.12   20.19
  -2  -3   0  306.71   19.95
   3   3   0  553.16   33.93
  -3  -3   0  578.23   31.37
   3   3   0  559.14   31.64
   3   3   0  566.39   32.32
  -3  -3   0  581.43   30.96
   3   3   0  607.65   33.30
  -3  -3   0  609.37   33.97
  -3  -3   0  658.31   32.62
   3   3   0  565.50   31.80
  -3  -3   0  611.52   32.63
   4   3   0    3.61    5.78
   4   3   0   -3.53    5.21
  -4  -3   0   -5.20    4.31
   4   3   0    7.48    6.31
  -4  -3   0    0.07    4.43
  -4  -3   0    1.00    4.60
  -4  -3   0    1.87    5.80
   4   3   0    4.78    6.18
   4   3   0    4.75    6.99
  -4  -3   0    0.86    6.48
  -4  -3   0    3.29    5.72
   5   3   0  883.57   51.08
  -5  -3   0  782.05   44.83
  -5  -3   0  852.88   43.76
  -5  -3   0  869.89   43.02
  -5  -3   0  897.35   45.08
   5   3   0  868.06   46.79
   5   3   0  738.41   44.86
  -5  -3   0  874.34   47.19
  -5  -3   0  926.48   44.74
   5   3   0  864.93   48.07
   5   3   0  806.66   47.63
   6   3   0  251.31   29.01
  -6  -3   0  266.54   25.75
   6   3   0  241.51   25.20
   6   3   0  263.39   27.15
  -6  -3   0  226.71   20.44
  -6  -3   0  269.79   23.28
  -6  -3   0  265.79   22.43
   7   3   0   10.49   10.46
   7   3   0    2.78    9.93
  -7  -3   0   -2.18    9.01
  -7  -3   0    2.27    6.87
  -7  -3   0   12.43    7.96
  -7  -3   0    0.21    6.78
   8   3   0   76.32   22.53
  -8  -3   0   77.69   13.27
   8   3   0  107.66   23.87
   8  -4   0   97.93   17.67
   7  -4   0   84.21   14.58
   7  -4   0   95.26   12.42
   6  -4   0  205.96   16.60
   6  -4   0  218.17   16.86
   6  -4   0  214.93   15.79
   6  -4   0  194.61   27.44
   6  -4   0  189.67   17.63
   5  -4   0    4.17    9.78
   5  -4   0   12.92    5.63
   5  -4   0   11.63    5.30
   5  -4   0    7.71    4.91
   5  -4   0   14.74    5.31
   4  -4   0  649.66   27.23
   4  -4   0  694.04   41.36
   4  -4   0  680.34   28.13
   4  -4   0  641.52   28.46
   4  -4   0  700.83   28.28
   4  -4   0  658.25   29.01
   3  -4   0  457.37   20.55
   3  -4   0  421.85   19.94
   3  -4   0  442.22   18.79
   3  -4   0  418.46   19.09
   3  -4   0  468.34   29.70
   3  -4   0  447.87   19.83
   2  -4   0  938.59   35.06
   2  -4   0  910.52   44.31
   2  -4   0  906.87   36.06
   2  -4   0  946.92   36.24
  -2   4   0  972.06   44.21
   2  -4   0  926.48   36.77
   2  -4   0  889.30   35.43
   1  -4   0 1192.41   48.11
  -1   4   0 1193.15   43.35
  -1   4   0 1158.78   51.19
   1  -4   0 1261.14   46.57
  -1   4   0 1198.01   43.83
  -1   4   0 1200.64   44.50
  -1   4   0 1232.69   46.22
   1  -4   0 1201.13   46.30
   1  -4   0 1207.52   45.67
   1  -4   0 1214.40   47.20
   0  -4   0  759.37   34.17
   0   4   0  815.76   33.66
   0  -4   0  812.64   34.62
   0  -4   0  742.54   34.57
   0   4   0  765.40   33.83
   0  -4   0  791.35   33.98
   0   4   0  796.85   35.39
   0   4   0  767.46   34.11
   0  -4   0  716.93   35.76
   0   4   0  727.76   32.25
   1   4   0 1650.78   66.47
   1   4   0 1705.53   64.99
  -1  -4   0 1641.95   65.22
   1   4   0 1751.16   69.40
  -1  -4   0 1682.91   66.29
  -1  -4   0 1753.19   69.62
  -1  -4   0 1660.44   65.95
  -1  -4   0 1677.14   66.81
   1   4   0 1636.77   65.60
   1   4   0 1685.58   66.07
  -2  -4   0  931.60   44.06
   2   4   0  948.59   47.69
   2   4   0  972.78   45.16
   2   4   0  939.03   44.06
   2   4   0  970.96   45.11
  -2  -4   0  907.39   44.49
  -2  -4   0  971.34   45.32
  -2  -4   0 1045.75   48.80
  -2  -4   0 1003.63   44.98
   3   4   0  688.94   39.97
   3   4   0  667.41   36.77
  -3  -4   0  622.39   35.45
   3   4   0  697.44   38.07
  -3  -4   0  638.08   36.42
  -3  -4   0  615.36   35.62
   3   4   0  632.33   35.89
   3   4   0  680.55   37.48
  -3  -4   0  678.36   37.24
  -3  -4   0  695.54   39.25
   4   4   0  413.15   29.44
   4   4   0  333.07   29.41
  -4  -4   0  372.56   29.08
   4   4   0  382.67   28.44
   4   4   0  429.93   30.23
  -4  -4   0  372.08   27.56
  -4  -4   0  356.79   27.01
   4   4   0  339.09   27.37
  -4  -4   0  375.52   26.60
  -4  -4   0  376.96   27.09
  -5  -4   0  446.81   30.42
  -5  -4   0  427.58   31.95
  -5  -4   0  469.14   31.44
  -5  -4   0  423.05   31.27
   5   4   0  359.72   33.49
   5   4   0  469.79   33.72
  -5  -4   0  479.00   34.98
   5   4   0  431.08   32.89
   5   4   0  457.95   33.44
   5   4   0  421.83   34.16
  -6  -4   0   19.55    9.25
  -6  -4   0   15.23    9.71
  -6  -4   0   18.64   11.92
   6   4   0   14.06   10.50
   6   4   0   -0.10    9.41
  -6  -4   0   16.76    9.54
   6   4   0   36.97   12.85
  -6  -4   0   13.89   10.01
  -7  -4   0  177.71   20.08
  -7  -4   0  140.54   19.74
   7   4   0  136.51   24.72
   7   4   0  142.01   26.80
  -7  -4   0  208.92   26.55
   7  -5   0   92.82   11.23
   7  -5   0  103.98   15.06
   6  -5   0  105.94   10.59
   6  -5   0  104.53   13.16
   6  -5   0   50.79   17.75
   6  -5   0  103.69   13.56
   6  -5   0   97.03   11.87
   6  -5   0  106.15   11.17
   6  -5   0  112.39   12.39
   5  -5   0  149.84   13.45
   5  -5   0  172.08   12.70
   5  -5   0  154.93   13.49
   5  -5   0  188.34   13.13
   5  -5   0  179.45   12.32
   5  -5   0  123.79   21.42
   5  -5   0  158.16   12.79
   4  -5   0  787.57   32.48
   4  -5   0  738.02   32.22
   4  -5   0  777.05   32.32
   4  -5   0  749.16   45.76
   4  -5   0  767.69   31.81
   4  -5   0  747.89   33.00
   4  -5   0  813.75   33.48
  -3   5   0   31.47    9.36
   3  -5   0   28.83    9.89
   3  -5   0   49.06    6.59
   3  -5   0   52.53    7.17
   3  -5   0   37.08    6.09
   3  -5   0   54.08    7.34
   3  -5   0   38.80    6.22
   2  -5   0  331.87   18.35
  -2   5   0  296.13   22.51
   2  -5   0  306.55   18.63
   2  -5   0  310.92   17.61
   2  -5   0  295.26   17.00
   2  -5   0  308.79   17.51
  -2   5   0  291.05   16.37
  -1   5   0 1146.05   44.25
  -1   5   0 1107.70   42.38
   1  -5   0 1147.06   47.56
   1  -5   0 1137.47   49.17
  -1   5   0 1100.68   51.60
  -1   5   0 1158.62   45.99
   1  -5   0 1107.26   45.48
   1  -5   0 1116.57   46.19
  -1   5   0 1078.98   42.98
   1  -5   0 1169.03   46.79
   0  -5   0   31.04    7.80
   0  -5   0   14.44    6.19
   0   5   0   28.59    7.48
   0   5   0   24.61    6.81
   0   5   0   27.50    7.08
   0  -5   0   35.30    8.02
   0  -5   0   22.02    6.76
   0  -5   0   35.51    8.55
   0   5   0   29.99    7.35
   1   5   0 1768.10   71.33
   1   5   0 1835.20   74.71
   1   5   0 1748.50   71.94
  -1  -5   0 1815.01   72.98
  -1  -5   0 1734.64   71.42
   1   5   0 1775.85   70.04
   1   5   0 1791.65   71.41
  -1  -5   0 1873.79   71.85
  -1  -5   0 1681.71   71.69
   2   5   0  217.67   19.63
   2   5   0  196.13   18.43
   2   5   0  224.21   19.57
   2   5   0  268.10   20.72
  -2  -5   0  210.11   19.46
  -2  -5   0  167.09   18.04
  -2  -5   0  216.59   19.20
  -2  -5   0  181.79   18.01
   2   5   0  186.08   19.82
  -3  -5   0   44.61   11.98
   3   5   0   44.90   12.74
  -3  -5   0   29.63   10.01
  -3  -5   0   38.03   10.37
   3   5   0   42.58   12.26
   3   5   0   36.27   10.57
   3   5   0   39.53   10.29
   3   5   0   35.06   10.29
  -3  -5   0   34.26    9.86
  -3  -5   0   16.31    8.46
  -4  -5   0  683.54   40.62
   4   5   0  692.53   42.04
   4   5   0  656.94   41.02
  -4  -5   0  670.16   43.24
   4   5   0  720.12   43.37
   4   5   0  541.57   41.93
  -4  -5   0  705.45   41.74
   4   5   0  793.20   45.01
  -4  -5   0  695.13   41.58
  -4  -5   0  669.56   39.69
  -5  -5   0   60.74   14.15
   5   5   0   64.62   15.42
   5   5   0   77.73   17.61
  -5  -5   0   82.55   16.31
  -5  -5   0   29.10   11.59
   5   5   0   67.57   17.90
   5   5   0   53.09   16.33
  -5  -5   0   59.75   16.18
  -6  -5   0  144.91   20.31
   6   5   0  121.45   24.71
  -6  -5   0  151.91   21.43
   6   5   0  143.28   23.10
  -6  -5   0  168.52   25.61
   6   5   0  128.02   23.45
  -6  -5   0  126.77   20.17
  -6  -5   0  144.02   22.51
   7   5   0  227.76   34.10
   7   5   0  212.55   30.56
  -7  -5   0  164.36   23.18
  -7  -5   0  198.14   23.47
   7  -6   0   36.03   10.28
   6  -6   0   22.47   13.86
   6  -6   0   25.83    8.46
   6  -6   0   53.67   10.84
   6  -6   0   58.38   11.58
   6  -6   0   50.23    7.14
   5  -6   0  317.58   17.55
   5  -6   0  329.22   19.95
   5  -6   0  330.82   21.15
   5  -6   0  292.30   20.44
   5  -6   0  352.65   19.56
   5  -6   0  322.93   18.44
   5  -6   0  310.85   32.55
   5  -6   0  315.24   20.43
   4  -6   0    9.00    5.12
   4  -6   0   18.89    5.88
   4  -6   0   17.71    5.95
   4  -6   0   26.36    6.21
   4  -6   0    3.63    9.02
   4  -6   0    1.91    4.91
   4  -6   0   13.71    6.28
   3  -6   0  419.96   22.02
  -3   6   0  455.78   30.96
   3  -6   0  391.17   21.63
   3  -6   0  370.01   23.01
   3  -6   0  429.42   23.30
   3  -6   0  401.18   22.17
   2  -6   0  228.60   17.47
   2  -6   0  214.58   15.81
  -2   6   0  203.49   14.61
   2  -6   0  228.00   16.07
   2  -6   0  195.22   15.45
  -2   6   0  209.12   20.58
   2  -6   0  185.33   15.65
   1  -6   0   18.70    7.46
  -1   6   0   30.85    7.59
   1  -6   0   19.12    7.19
  -1   6   0   33.71    5.97
  -1   6   0   20.52    5.32
  -1   6   0   16.28    5.76
   1  -6   0   23.29    7.61
   1  -6   0   11.56    6.32
   1  -6   0   24.09    7.23
   0  -6   0  573.49   32.54
   0  -6   0  668.55   35.46
   0   6   0  615.09   31.73
   0  -6   0  616.96   34.07
   0  -6   0  671.11   37.14
   0  -6   0  676.58   34.16
   0   6   0  662.72   34.86
   0   6   0  608.07   32.46
   0   6   0  560.62   32.48
  -1  -6   0  342.51   24.16
   1   6   0  285.90   23.63
  -1  -6   0  302.10   25.71
   1   6   0  340.35   22.52
  -1  -6   0  326.71   24.11
   1   6   0  270.96   21.87
   1   6   0  318.91   23.36
  -1  -6   0  311.86   23.91
  -1  -6   0  230.97   21.07
   1   6   0  294.13   22.51
   2   6   0  410.92   28.56
  -2  -6   0  395.87   27.78
   2   6   0  452.41   29.78
  -2  -6   0  348.63   27.26
  -2  -6   0  404.52   29.15
   2   6   0  429.69   31.64
  -2  -6   0  374.49   28.02
   2   6   0  307.39   25.64
  -2  -6   0  349.10   30.03
   2   6   0  339.53   25.85
   3   6   0  386.99   28.89
  -3  -6   0  301.58   29.30
  -3  -6   0  310.21   27.44
  -3  -6   0  341.97   28.54
  -3  -6   0  310.56   27.21
   3   6   0  380.19   29.44
   3   6   0  297.84   26.71
   3   6   0  293.15   27.22
  -3  -6   0  365.57   29.18
   4   6   0  147.18   20.54
  -4  -6   0  106.37   20.43
   4   6   0  160.75   21.45
  -4  -6   0  134.36   19.88
   4   6   0  116.87   21.83
   4   6   0  179.09   23.08
  -4  -6   0  154.00   20.86
  -4  -6   0  139.77   20.48
   4   6   0  134.70   20.73
  -5  -6   0  424.06   37.80
   5   6   0  490.40   39.13
  -5  -6   0  436.27   35.94
  -5  -6   0  405.37   34.22
   5   6   0  487.15   37.37
   5   6   0  376.40   35.26
   5   6   0  393.63   38.90
  -5  -6   0  472.42   34.78
  -5  -6   0  333.13   32.17
  -6  -6   0  236.60   32.13
   6   6   0  191.65   28.01
  -6  -6   0  215.07   26.63
   6   6   0  170.64   29.75
  -6  -6   0  192.00   25.16
  -6  -6   0  170.78   23.42
  -6  -6   0  158.51   24.67
  -7  -6   0    3.72   10.79
  -7  -6   0    7.83   11.39
   7   6   0   -4.62   10.18
   7  -7   0   10.97    8.91
   7  -7   0   17.39    9.52
   6  -7   0   97.36   13.96
   6  -7   0  112.45   13.64
   6  -7   0   93.76   14.60
   6  -7   0  137.80   27.49
   5  -7   0  333.98   21.40
   5  -7   0  337.45   23.05
   5  -7   0  292.17   20.95
   5  -7   0  322.39   22.53
   5  -7   0  324.94   18.69
   5  -7   0  312.67   18.39
   5  -7   0  336.30   20.75
   4  -7   0    3.99    6.43
   4  -7   0    4.40    4.65
   4  -7   0   18.93    7.36
   4  -7   0    9.81    5.98
   4  -7   0    3.26    5.46
   4  -7   0   11.58    6.38
   3  -7   0   92.32   11.89
  -3   7   0   64.53   14.34
   3  -7   0   86.92   12.37
   3  -7   0  101.30   11.62
   3  -7   0  101.12   11.89
   3  -7   0   74.28   11.50
   2  -7   0   -3.76    3.91
   2  -7   0    4.27    5.45
   2  -7   0    6.49    6.32
   2  -7   0    5.17    6.78
  -2   7   0    3.04    4.85
  -2   7   0   -1.93    5.52
   2  -7   0   -2.09    5.26
   1  -7   0  316.09   24.41
  -1   7   0  359.34   23.98
   1  -7   0  368.53   27.21
  -1   7   0  366.98   21.03
  -1   7   0  399.76   20.54
   1  -7   0  352.69   24.39
  -1   7   0  395.51   22.44
   1  -7   0  337.96   24.08
   1  -7   0  394.63   25.72
   0  -7   0  463.38   32.09
   0  -7   0  464.62   30.30
   0  -7   0  421.77   28.08
   0   7   0  464.56   28.98
   0  -7   0  437.00   28.98
   0   7   0  456.02   27.76
   0  -7   0  388.80   28.25
   0   7   0  388.97   27.24
   0   7   0  408.88   25.66
   1   7   0   65.28   12.66
  -1  -7   0   57.64   13.06
  -1  -7   0   54.10   13.06
  -1  -7   0   49.12   12.79
  -1  -7   0   49.74   12.22
   1   7   0   19.87    8.76
  -1  -7   0   62.32   12.96
   1   7   0   54.63   12.87
   1   7   0   69.46   12.95
  -2  -7   0  391.42   29.06
   2   7   0  329.39   28.02
   2   7   0  342.05   30.72
  -2  -7   0  342.94   28.75
   2   7   0  331.62   28.21
   2   7   0  409.22   29.85
  -2  -7   0  331.77   29.18
  -2  -7   0  406.04   32.66
   3   7   0   82.25   17.67
   3   7   0  105.46   18.29
  -3  -7   0  108.12   18.86
  -3  -7   0  107.21   19.00
  -3  -7   0  104.70   20.84
   3   7   0   89.62   17.60
  -3  -7   0  107.52   18.41
   3   7   0   96.14   19.51
   4   7   0  202.82   25.28
   4   7   0  203.34   25.78
  -4  -7   0  135.93   22.36
  -4  -7   0  193.59   24.81
  -4  -7   0  188.10   24.21
   4   7   0  219.74   26.37
   4   7   0  211.82   28.50
  -4  -7   0  164.77   25.78
   5   7   0  300.05   35.64
  -5  -7   0  257.49   30.16
   5   7   0  308.81   32.92
  -5  -7   0  321.23   32.82
  -5  -7   0  312.68   31.66
  -5  -7   0  336.26   36.23
  -5  -7   0  309.36   31.05
   5   7   0  247.49   30.73
   6   7   0   -4.14   12.80
  -6  -7   0  -12.20    9.80
  -6  -7   0   -2.01    9.74
   6   7   0    9.66   11.62
  -6  -7   0    8.36   10.98
  -7  -7   0   27.05   15.38
   6  -8   0   26.04    9.84
   6  -8   0   33.73   10.16
   5  -8   0    3.95    5.59
   5  -8   0   -2.51    6.09
   5  -8   0    0.63    6.41
   5  -8   0    4.87    8.61
   4  -8   0  279.37   22.55
   4  -8   0  287.45   19.74
   4  -8   0  311.61   23.48
   4  -8   0  272.01   20.63
   4  -8   0  245.49   19.84
   3  -8   0   26.80    8.90
   3  -8   0   23.44    8.20
   3  -8   0   13.35    8.30
  -3   8   0   24.29   10.67
   3  -8   0   20.67    8.49
   3  -8   0   34.60    9.64
   2  -8   0  123.91   16.10
   2  -8   0   93.73   14.39
  -2   8   0  101.50   17.77
  -2   8   0  110.08   13.33
   2  -8   0   95.95   15.76
   2  -8   0  105.12   14.22
   2  -8   0  155.88   17.10
   1  -8   0  426.99   29.15
  -1   8   0  414.06   27.23
   1  -8   0  374.36   27.05
  -1   8   0  348.12   31.15
  -1   8   0  425.46   24.94
   1  -8   0  398.78   28.99
   1  -8   0  396.99   30.36
  -1   8   0  397.71   23.24
   1  -8   0  342.70   26.86
   0   8   0    1.08    6.19
   0   8   0   16.57    8.44
   0  -8   0   18.63    9.97
   0  -8   0   15.46    8.04
   0  -8   0   13.28    9.52
   0  -8   0    4.75    8.76
   0  -8   0   18.13    9.42
   0   8   0   16.56    8.29
   0   8   0   17.72    8.45
   1   8   0   53.02   13.01
   1   8   0   77.10   14.61
   1   8   0   40.42   12.04
  -1  -8   0   49.81   13.76
  -1  -8   0   34.32   11.90
  -1  -8   0   55.23   14.17
   1   8   0   61.10   15.04
  -1  -8   0   71.09   14.72
  -1  -8   0   43.44   13.66
   2   8   0   91.56   18.52
   2   8   0   82.96   16.77
  -2  -8   0   48.20   13.94
  -2  -8   0   38.44   14.32
   2   8   0   90.76   16.80
  -2  -8   0   72.32   17.37
  -2  -8   0   83.69   16.39
   2   8   0   98.96   17.67
   3   8   0   10.34    9.41
  -3  -8   0    5.25    9.30
  -3  -8   0    7.34    9.37
   3   8   0   37.18   13.90
   3   8   0   12.26    9.19
  -3  -8   0    6.42   10.15
  -3  -8   0   -4.55    9.20
   3   8   0    2.83    9.15
   4   8   0  133.71   24.90
   4   8   0  150.92   23.75
  -4  -8   0  160.11   24.93
  -4  -8   0  167.76   24.76
  -4  -8   0  165.60   27.14
  -4  -8   0  116.70   21.57
   4   8   0  145.12   23.88
   4   8   0  133.44   24.57
   5   8   0   13.04   11.17
   5   8   0    1.89   11.92
   5   8   0    8.64   10.63
  -5  -8   0   14.59   13.17
  -5  -8   0    4.10   11.17
  -5  -8   0   -3.02    8.94
  -5  -8   0   14.53   11.45
  -6  -8   0   81.25   20.50
   6   8   0   77.68   23.25
  -6  -8   0   68.67   20.78
   5  -9   0   97.81   14.69
   5  -9   0   93.20   16.30
   5  -9   0   95.83   12.39
   4  -9   0  118.14   17.31
  -3   9   0  123.29   21.80
   3  -9   0  140.46   19.19
   3  -9   0  152.78   19.16
   3  -9   0  160.00   17.03
   3  -9   0  160.75   18.29
   3  -9   0  143.52   17.79
  -2   9   0  129.88   21.11
   2  -9   0  141.68   18.21
   2  -9   0  113.71   18.42
   2  -9   0  121.95   16.26
   2  -9   0  141.43   18.38
   2  -9   0  119.82   18.25
  -2   9   0  137.44   15.79
   1  -9   0  269.36   24.71
  -1   9   0  200.78   16.58
  -1   9   0  230.91   22.11
   1  -9   0  220.50   24.27
   1  -9   0  194.94   22.27
   1  -9   0  234.58   25.64
  -1   9   0  233.21   26.61
   1  -9   0  227.37   22.57
   0   9   0  112.35   16.07
   0   9   0  152.09   19.09
   0   9   0   86.23   15.69
   0  -9   0  144.21   20.14
   0  -9   0  108.13   17.45
   0  -9   0  128.04   19.67
   0  -9   0  110.85   18.51
   0   9   0  121.60   15.58
   0  -9   0  135.14   21.27
  -1  -9   0  196.16   22.95
   1   9   0  151.36   20.23
   1   9   0  142.99   20.76
  -1  -9   0   72.58   18.38
   1   9   0  174.81   20.62
  -1  -9   0  185.80   23.14
  -1  -9   0  148.41   21.90
  -1  -9   0  183.20   23.38
   1   9   0  160.23   21.73
   2   9   0   89.00   18.21
  -2  -9   0  110.92   20.38
   2   9   0  101.53   20.89
   2   9   0  101.37   18.78
  -2  -9   0  132.66   22.91
  -2  -9   0   82.80   20.31
   2   9   0  100.65   19.41
  -2  -9   0  116.28   19.98
  -3  -9   0  303.81   35.53
  -3  -9   0  296.55   32.37
   3   9   0  261.23   30.07
   3   9   0  275.26   33.53
  -3  -9   0  298.60   31.54
   3   9   0  343.30   33.30
   3   9   0  277.39   31.13
   4   9   0  116.04   23.23
  -4  -9   0   84.55   20.83
  -4  -9   0   77.20   19.97
   4   9   0  101.74   22.37
   4   9   0   79.56   21.66
  -5  -9   0   81.21   21.97
   5   9   0   75.81   22.07
  -5  -9   0   94.54   22.66
   5 -10   0   75.95   17.20
   5 -10   0   52.79   13.64
   4 -10   0   55.88   14.91
   3 -10   0  256.89   27.73
   3 -10   0  299.09   26.68
  -3  10   0  279.13   32.31
  -2  10   0  101.67   20.76
   2 -10   0   97.01   17.80
   2 -10   0  101.37   17.75
   2 -10   0   65.03   16.57
  -2  10   0   75.55   14.17
   2 -10   0   98.81   16.87
   1 -10   0   98.95   20.47
  -1  10   0  145.39   19.38
   1 -10   0  102.92   17.92
   1 -10   0  170.81   22.49
  -1  10   0  112.86   22.14
   1 -10   0  151.54   21.66
  -1  10   0  135.10   13.45
   0  10   0  287.10   25.40
   0 -10   0  323.72   33.55
   0 -10   0  276.46   29.82
   0 -10   0  320.04   30.70
   0  10   0  356.01   30.33
   0 -10   0  278.20   28.01
   0  10   0  304.62   24.64
   0  10   0  279.70   27.29
   1  10   0   25.71   13.21
   1  10   0   12.24    9.56
  -1 -10   0    6.94   10.45
  -1 -10   0   21.26   13.47
   1  10   0   26.51   11.62
  -1 -10   0   16.79   10.68
   1  10   0   14.22    9.76
   2  10   0   12.29   11.03
   2  10   0   16.30   10.70
  -2 -10   0   18.24   11.89
   2  10   0   30.38   13.96
   2  10   0   17.90   13.40
  -2 -10   0    4.94   10.73
  -2 -10   0   10.40   10.22
  -3 -10   0  242.71   31.48
   3  10   0  241.34   30.71
   3  10   0  219.69   29.63
  -3 -10   0  207.47   30.14
   3  10   0  222.02   29.97
   4  10   0    0.21   11.55
   4  10   0    7.49   12.27
  -4 -10   0   -8.65   10.92
  -5 -10   0  139.89   27.58
   4 -11   0  107.42   21.22
  -3  11   0   48.29   18.63
   3 -11   0   59.83   17.20
  -2  11   0    1.58   10.78
   2 -11   0    1.46   10.85
   1 -11   0  204.40   26.63
  -1  11   0  216.94   29.47
  -1  11   0  179.96   23.39
  -1  11   0  248.05   17.58
   1 -11   0  206.14   25.22
   1 -11   0  222.74   29.69
   0  11   0   17.46   11.64
   0 -11   0   12.42   11.04
   0 -11   0   15.76   12.19
   0 -11   0   11.68   12.61
   0  11   0   10.06    9.13
  -1 -11   0  109.33   21.88
  -1 -11   0  135.68   25.00
   1  11   0  119.14   20.75
   1  11   0  145.24   23.75
   1  11   0  118.36   23.48
   2  11   0   71.77   20.15
  -2 -11   0   85.40   22.81
   2  11   0   42.17   16.14
  -2 -11   0   91.91   22.32
   3  11   0   22.57   14.56
  -3 -11   0   33.19   17.52
  -3 -11   0   21.55   15.42
   3  11   0   29.13   17.02
   2 -12   0  122.28   25.53
  -2  12   0  124.21   26.62
  -1  12   0   -1.34   13.05
   0  12   0   78.41   15.75
   0 -12   0  107.92   23.56
   1  12   0   75.86   18.92
  -1 -12   0   57.44   20.15
   1  12   0   99.06   22.44
  -1 -12   0   43.32   19.36
   2  12   0    2.95   12.58
   2  12   0   -1.92   10.76
  -2 -12   0   -0.28   12.85
  -2 -12   0   30.95   17.98
  -1 -12   1   61.60   20.94
   1  12  -1   85.54   19.83
   0 -12   1    0.13   11.84
   0  12  -1    7.02    9.13
  -1  12  -1   53.30   18.81
  -2  12  -1   11.18   14.42
   3  11  -1   39.89   17.82
   3  11  -1   73.54   20.90
  -3 -11   1   79.30   22.06
  -2 -11   1   50.42   18.30
  -2 -11   1   39.33   17.36
   2  11  -1   17.23   13.04
   2  11  -1   37.65   14.98
   1  11  -1   -4.04    9.00
  -1 -11   1    3.80   12.46
   1  11  -1    9.53    9.94
  -1 -11   1    1.42   11.23
   0 -11   1  531.49   41.88
   0 -11   1  468.97   43.94
   0  11  -1  501.98   33.23
   0  11  -1  462.30   37.35
   0 -11   1  506.17   40.33
   1 -11   1  238.49   28.38
  -1  11  -1  196.75   23.79
   1 -11   1  206.02   29.12
  -1  11  -1  249.50   30.79
  -2  11  -1   26.94   15.60
   2 -11   1   17.12   12.75
   3 -11   1   80.05   20.04
  -3  11  -1  159.41   25.53
  -4 -10   1   74.20   22.43
   4  10  -1   72.87   21.10
   3  10  -1  373.95   37.22
   3  10  -1  329.46   35.26
  -3 -10   1  326.82   36.02
  -3 -10   1  385.67   38.47
   3  10  -1  361.07   37.44
   2  10  -1    2.49    8.12
   2  10  -1   -0.99    8.43
   2  10  -1   -6.71    9.67
  -2 -10   1   -0.75   10.16
  -2 -10   1    3.35   11.24
   2  10  -1    0.61   12.14
   1  10  -1   92.74   20.01
   1  10  -1  110.03   20.06
  -1 -10   1   73.57   18.64
   1  10  -1   90.42   17.57
  -1 -10   1   73.55   19.63
   1  10  -1   66.95   15.86
  -1 -10   1   72.88   18.35
   0 -10   1  321.50   30.90
   0  10  -1  459.79   30.07
   0 -10   1  381.45   34.25
   0 -10   1  337.95   32.61
   0 -10   1  401.14   37.52
   0  10  -1  386.52   32.27
  -1  10  -1    9.85    8.35
   1 -10   1   23.42   12.99
   1 -10   1   20.76   11.01
   1 -10   1   28.32   13.94
  -1  10  -1   36.29   14.71
  -1  10  -1   24.85    5.58
   1 -10   1   34.88   14.17
   2 -10   1  195.58   24.63
   2 -10   1  149.11   19.16
  -2  10  -1  141.62   22.77
  -2  10  -1  176.21   18.37
   2 -10   1  157.01   20.94
  -3  10  -1   21.97   13.00
   3 -10   1   20.42   11.18
   4 -10   1    3.30    8.73
   5 -10   1   54.44   14.70
  -5  -9   1    2.48   12.77
  -5  -9   1   -3.86   12.02
   5   9  -1   -1.45   10.09
  -4  -9   1  184.97   28.40
  -4  -9   1  151.34   26.41
   4   9  -1  151.75   26.42
  -4  -9   1  147.95   25.83
   4   9  -1  245.56   30.63
   4   9  -1  216.94   30.30
   3   9  -1   37.90   14.53
   3   9  -1   31.33   15.41
  -3  -9   1   53.32   16.20
  -3  -9   1    8.77   11.82
   3   9  -1   22.73   12.56
   3   9  -1   32.40   15.27
  -3  -9   1   30.66   15.91
  -2  -9   1  428.33   36.16
   2   9  -1  448.36   35.75
   2   9  -1  468.10   36.26
   2   9  -1  472.07   36.79
   2   9  -1  483.30   40.72
  -2  -9   1  449.05   37.99
  -2  -9   1  436.99   41.02
   1   9  -1   66.51   14.42
  -1  -9   1   58.15   16.57
  -1  -9   1   66.87   16.02
  -1  -9   1   77.35   17.44
  -1  -9   1   49.08   16.33
   1   9  -1   67.50   15.80
   1   9  -1   88.29   16.17
   1   9  -1   70.74   16.72
   0  -9   1  249.53   25.27
   0   9  -1  224.64   20.85
   0  -9   1  198.55   23.72
   0   9  -1  203.90   22.38
   0   9  -1  190.08   21.12
   0  -9   1  155.41   23.45
   0  -9   1  242.40   23.84
   0  -9   1  231.98   24.98
   1  -9   1  598.07   38.01
   1  -9   1  644.08   40.29
   1  -9   1  611.92   39.00
   1  -9   1  595.34   40.89
  -1   9  -1  575.12   40.65
  -1   9  -1  552.93   35.01
   1  -9   1  578.65   36.41
  -1   9  -1  602.27   27.96
  -2   9  -1   52.92   10.73
   2  -9   1   52.58   13.45
   2  -9   1   59.79   13.55
   2  -9   1   45.07   12.95
   2  -9   1   54.13   11.98
  -2   9  -1   54.58   15.03
   2  -9   1   38.32   12.52
   3  -9   1  351.84   26.01
  -3   9  -1  360.94   32.04
   3  -9   1  328.32   26.52
   3  -9   1  260.71   21.50
   3  -9   1  298.32   24.55
   3  -9   1  288.42   26.03
   4  -9   1  348.18   27.38
   4  -9   1  368.90   27.74
   5  -9   1    5.54    7.98
  -6  -8   1   19.83   15.04
  -6  -8   1    5.91   12.18
   6   8  -1   -6.52    9.91
  -5  -8   1  101.31   21.75
  -5  -8   1  139.10   25.31
   5   8  -1  124.08   24.30
  -4  -8   1  166.94   25.43
   4   8  -1  112.26   22.18
  -4  -8   1  152.49   25.25
   4   8  -1  110.15   21.87
   4   8  -1  153.66   25.07
   4   8  -1  170.50   28.19
  -4  -8   1  127.67   22.96
  -4  -8   1  144.56   24.49
  -3  -8   1  235.98   29.68
  -3  -8   1  216.53   26.77
   3   8  -1  134.54   24.48
  -3  -8   1  206.82   25.87
  -3  -8   1  177.66   24.44
   3   8  -1  216.49   26.06
   3   8  -1  243.26   27.49
   3   8  -1  176.43   24.14
   2   8  -1  582.84   39.71
  -2  -8   1  593.64   41.67
  -2  -8   1  572.51   41.26
  -2  -8   1  574.71   43.92
   2   8  -1  652.31   41.08
  -2  -8   1  560.68   39.88
   2   8  -1  593.38   39.81
   2   8  -1  580.12   42.36
  -1  -8   1   45.36   14.34
  -1  -8   1   43.40   14.39
   1   8  -1    8.58    8.06
   1   8  -1   26.04    9.80
  -1  -8   1   31.94   10.83
   1   8  -1   22.35   10.57
  -1  -8   1   14.75    9.70
  -1  -8   1   37.42   12.25
   1   8  -1   24.23   10.22
   0  -8   1  358.85   27.58
   0   8  -1  345.40   23.60
   0  -8   1  301.45   26.37
   0   8  -1  329.47   24.19
   0  -8   1  301.45   28.78
   0   8  -1  362.95   26.30
   0   8  -1  316.67   25.48
   0  -8   1  304.43   26.82
   0  -8   1  281.22   24.81
   1  -8   1  343.25   26.58
  -1   8  -1  351.67   21.25
  -1   8  -1  364.52   25.23
  -1   8  -1  357.92   29.35
   1  -8   1  373.70   29.69
   1  -8   1  409.34   28.96
   1  -8   1  367.68   26.88
   1  -8   1  353.70   25.83
  -1   8  -1  365.31   19.95
   2  -8   1   -1.85    5.76
   2  -8   1   -0.92    6.91
  -2   8  -1    0.28    4.76
  -2   8  -1    4.54    6.94
   2  -8   1   -1.44    6.95
   2  -8   1    6.18    6.01
   2  -8   1   -4.49    6.46
  -3   8  -1    7.07    8.19
   3  -8   1    0.63    6.41
   3  -8   1   -2.03    6.02
   3  -8   1    7.45    7.23
   3  -8   1   -2.54    4.71
   3  -8   1    0.46    5.67
   4  -8   1  148.66   16.19
   4  -8   1  119.92   13.69
   4  -8   1  105.96   13.67
   4  -8   1  150.07   12.53
   4  -8   1  118.34   14.24
   5  -8   1  236.80   19.61
   5  -8   1  203.05   18.75
   6  -8   1  154.77   16.15
   6  -8   1  136.42   14.60
  -6  -7   1   98.15   22.72
  -6  -7   1  133.81   23.83
   6   7  -1   85.08   21.46
  -6  -7   1  111.09   22.87
   5   7  -1   76.79   19.64
  -5  -7   1   68.83   18.16
  -5  -7   1   79.00   20.07
  -5  -7   1  135.39   23.71
   5   7  -1   71.90   18.65
   5   7  -1   60.67   19.92
  -5  -7   1   65.45   18.25
  -4  -7   1  452.98   36.10
  -4  -7   1  374.82   34.76
   4   7  -1  363.41   33.28
   4   7  -1  385.37   35.14
  -4  -7   1  404.69   34.23
   4   7  -1  399.63   35.50
  -4  -7   1  374.58   33.62
  -4  -7   1  379.78   37.27
  -3  -7   1  278.79   31.04
  -3  -7   1  380.30   31.57
   3   7  -1  348.51   32.57
   3   7  -1  288.09   28.67
  -3  -7   1  337.28   30.10
  -3  -7   1  307.88   29.94
   3   7  -1  311.76   28.82
   3   7  -1  337.57   30.61
  -2  -7   1  560.92   37.56
  -2  -7   1  520.58   35.88
   2   7  -1  479.38   34.70
  -2  -7   1  566.50   40.23
   2   7  -1  602.20   37.45
   2   7  -1  532.12   38.35
  -2  -7   1  588.88   37.77
  -2  -7   1  506.93   36.12
   2   7  -1  478.55   34.63
   1   7  -1  144.76   17.67
  -1  -7   1  149.55   18.76
  -1  -7   1  151.62   18.28
   1   7  -1  110.25   17.17
   1   7  -1  148.82   17.12
  -1  -7   1  142.68   19.81
  -1  -7   1  137.83   18.69
   1   7  -1  177.77   18.76
  -1  -7   1  153.93   18.79
   0   7  -1  280.41   22.32
   0   7  -1  302.92   21.67
   0  -7   1  272.88   23.24
   0  -7   1  274.06   24.93
   0  -7   1  290.49   23.56
   0  -7   1  307.71   23.36
   0   7  -1  293.74   22.73
   0  -7   1  293.54   23.82
   0   7  -1  311.38   21.37
  -1   7  -1  123.91   13.74
   1  -7   1  115.35   14.36
  -1   7  -1  120.58   11.27
   1  -7   1  138.44   15.29
  -1   7  -1  115.48   10.05
   1  -7   1  126.61   15.14
  -1   7  -1  116.49   16.29
   1  -7   1   89.36   12.69
   1  -7   1  110.72   15.76
  -2   7  -1  284.48   24.38
   2  -7   1  286.74   20.29
   2  -7   1  302.29   22.67
  -2   7  -1  285.52   18.34
   2  -7   1  284.33   19.97
   2  -7   1  276.83   20.24
   2  -7   1  280.12   20.83
   3  -7   1  364.52   22.58
   3  -7   1  368.52   23.75
   3  -7   1  331.35   21.76
   3  -7   1  348.46   21.48
  -3   7  -1  378.10   28.87
   3  -7   1  338.38   20.56
   4  -7   1  154.64   11.65
   4  -7   1  141.55   13.01
   4  -7   1  158.17   13.11
   4  -7   1  138.47   13.75
   4  -7   1  162.04   14.43
   5  -7   1  695.69   33.09
   5  -7   1  677.82   31.52
   5  -7   1  675.14   33.21
   5  -7   1  654.49   30.46
   6  -7   1    8.38   12.83
   6  -7   1    7.50    8.08
   6  -7   1    4.50    5.61
   6  -7   1    3.96    5.85
   7  -7   1    8.40    7.45
   7  -7   1    9.99    7.73
  -7  -6   1  123.31   23.70
  -7  -6   1  149.65   24.51
   7   6  -1  202.33   31.67
  -6  -6   1  136.68   23.89
  -6  -6   1  118.89   21.56
   6   6  -1  109.51   23.73
   6   6  -1  130.99   27.35
  -6  -6   1  108.19   21.23
  -6  -6   1  127.31   22.64
  -5  -6   1   78.63   20.03
   5   6  -1   80.78   20.47
   5   6  -1   98.43   21.30
  -5  -6   1  110.19   19.89
  -5  -6   1   77.43   17.83
  -5  -6   1   95.15   19.05
   5   6  -1   82.22   19.20
   5   6  -1   59.30   16.70
  -5  -6   1   77.81   17.92
   4   6  -1  607.89   44.36
  -4  -6   1  577.08   40.38
   4   6  -1  506.82   39.14
  -4  -6   1  559.54   39.60
  -4  -6   1  608.25   41.24
   4   6  -1  628.23   41.98
   4   6  -1  564.01   39.98
  -4  -6   1  579.40   43.29
  -4  -6   1  613.17   39.95
   3   6  -1  535.69   39.98
  -3  -6   1  629.01   39.90
  -3  -6   1  646.80   40.16
   3   6  -1  585.46   38.96
  -3  -6   1  598.91   41.92
  -3  -6   1  618.22   39.49
   3   6  -1  649.05   40.29
   3   6  -1  622.18   39.74
  -3  -6   1  652.44   40.10
   2   6  -1   85.72   14.60
   2   6  -1  129.69   18.43
  -2  -6   1  103.71   15.70
   2   6  -1   79.00   14.22
   2   6  -1   82.43   14.16
  -2  -6   1  110.11   15.99
  -2  -6   1   83.32   14.84
  -2  -6   1   92.32   15.45
  -2  -6   1   70.11   15.32
   1   6  -1 2158.31   89.72
  -1  -6   1 2393.51   91.13
   1   6  -1 2168.62   89.47
   1   6  -1 2193.04   92.65
  -1  -6   1 2409.49   93.18
  -1  -6   1 2381.74   90.56
  -1  -6   1 2113.73   90.61
   1   6  -1 2315.08   89.92
  -1  -6   1 2259.57   95.05
   0  -6   1   21.23    7.49
   0  -6   1   29.68    8.70
   0  -6   1   13.14    7.09
   0   6  -1   13.66    6.33
   0   6  -1   13.95    6.20
   0   6  -1   11.35    6.50
   0  -6   1   23.92    8.66
   0   6  -1   12.12    5.93
   0  -6   1   13.10    6.80
  -1   6  -1  481.71   21.77
  -1   6  -1  506.02   26.33
   1  -6   1  392.73   25.45
   1  -6   1  462.14   26.27
   1  -6   1  496.99   29.07
  -1   6  -1  465.39   29.54
   1  -6   1  514.82   27.19
  -1   6  -1  480.49   23.02
   1  -6   1  477.37   27.61
   2  -6   1  366.80   22.95
   2  -6   1  359.95   21.24
   2  -6   1  341.94   21.43
  -2   6  -1  394.17   20.07
  -2   6  -1  369.83   25.93
   2  -6   1  389.78   21.49
   2  -6   1  383.94   21.49
  -3   6  -1    2.97    6.23
   3  -6   1    8.58    4.33
   3  -6   1    1.18    3.99
   3  -6   1   -3.59    4.05
   3  -6   1   12.66    5.39
   3  -6   1   -0.82    4.35
   4  -6   1  476.57   35.58
   4  -6   1  477.69   22.69
   4  -6   1  488.89   21.22
   4  -6   1  433.83   21.63
   4  -6   1  494.72   20.96
   4  -6   1  483.86   23.34
   4  -6   1  456.13   23.61
   5  -6   1  444.82   21.47
   5  -6   1  466.87   22.27
   5  -6   1  454.11   22.86
   5  -6   1  480.85   23.52
   5  -6   1  461.86   23.45
   5  -6   1  417.56   37.53
   6  -6   1   -1.52    4.51
   6  -6   1    4.52   12.20
   6  -6   1   13.08    7.10
   7  -6   1   51.94   10.45
   7   5  -1   88.41   24.00
  -7  -5   1  113.83   20.16
  -7  -5   1  128.99   21.70
   7   5  -1   65.59   20.07
  -6  -5   1   19.04   10.66
  -6  -5   1   12.08   11.20
  -6  -5   1   18.98   12.12
  -6  -5   1   16.03   13.97
  -6  -5   1   15.75   11.01
   6   5  -1   41.94   14.63
   6   5  -1   46.40   16.29
   6   5  -1   31.57   13.45
  -5  -5   1  547.02   37.75
   5   5  -1  627.41   43.43
   5   5  -1  543.44   39.68
   5   5  -1  522.53   39.61
  -5  -5   1  613.79   41.45
   5   5  -1  580.02   44.45
  -5  -5   1  552.58   38.57
  -5  -5   1  652.35   44.96
  -5  -5   1  578.97   39.95
  -4  -5   1  293.91   26.63
  -4  -5   1  260.29   27.63
   4   5  -1  262.42   26.35
  -4  -5   1  321.82   27.28
   4   5  -1  355.35   29.19
  -4  -5   1  282.68   26.67
  -4  -5   1  322.94   28.15
   4   5  -1  276.08   27.51
   4   5  -1  344.24   31.54
  -3  -5   1  535.61   34.46
  -3  -5   1  496.54   35.68
  -3  -5   1  575.84   35.46
   3   5  -1  458.26   34.63
  -3  -5   1  486.24   33.18
   3   5  -1  516.41   34.45
   3   5  -1  532.87   34.93
  -3  -5   1  525.61   33.72
   3   5  -1  549.10   34.42
  -2  -5   1  354.96   25.52
  -2  -5   1  362.60   27.94
   2   5  -1  299.04   26.10
   2   5  -1  372.62   25.92
  -2  -5   1  343.18   25.48
   2   5  -1  322.12   24.68
   2   5  -1  350.53   25.54
  -2  -5   1  387.32   26.18
  -2  -5   1  349.51   25.60
  -1  -5   1   11.63    6.91
  -1  -5   1    9.11    6.45
   1   5  -1    7.60    5.30
   1   5  -1    5.94    5.41
  -1  -5   1    7.42    6.36
   1   5  -1   -0.40    3.88
  -1  -5   1    7.19    5.21
  -1  -5   1   -5.27    3.63
   1   5  -1    4.94    5.64
   0   5  -1  113.35   11.69
   0   5  -1  139.93   12.37
   0   5  -1  155.80   14.18
   0  -5   1  105.36   13.46
   0  -5   1  146.70   14.12
   0  -5   1  125.04   12.79
   0   5  -1  122.70   12.70
   0  -5   1  157.57   14.19
   0  -5   1  148.54   14.17
  -1   5  -1 1655.15   62.53
   1  -5   1 1777.91   64.88
  -1   5  -1 1549.44   58.08
   1  -5   1 1642.71   63.09
   1  -5   1 1710.42   66.41
  -1   5  -1 1649.56   59.65
   1  -5   1 1721.67   62.83
  -1   5  -1 1590.31   67.20
   1  -5   1 1642.98   63.66
   2  -5   1  247.21   14.57
  -2   5  -1  273.71   19.90
   2  -5   1  236.80   15.53
   2  -5   1  245.25   14.26
   2  -5   1  232.08   14.41
  -2   5  -1  243.44   13.33
   2  -5   1  232.74   14.62
   3  -5   1 1662.28   58.46
   3  -5   1 1756.06   74.38
   3  -5   1 1683.26   61.07
   3  -5   1 1636.12   59.83
   3  -5   1 1701.75   59.48
   3  -5   1 1666.35   59.50
   4  -5   1  277.79   13.30
   4  -5   1  269.77   12.86
   4  -5   1  262.72   25.25
   4  -5   1  275.38   14.17
   4  -5   1  305.81   14.13
   5  -5   1   45.50    6.21
   5  -5   1   35.79    5.55
   5  -5   1   39.56    5.87
   5  -5   1   57.08   16.03
   6  -5   1  441.45   22.40
   6  -5   1  374.32   36.86
   6  -5   1  407.59   21.61
   6  -5   1  422.85   23.53
   7  -5   1   30.57    8.77
  -7  -4   1   10.52    9.88
   7   4  -1   -3.55   11.17
  -7  -4   1    9.45    9.25
   7   4  -1   25.83   13.86
   6   4  -1  326.47   30.78
   6   4  -1  234.92   28.75
  -6  -4   1  306.86   30.45
  -6  -4   1  349.76   29.26
  -6  -4   1  321.85   31.91
  -6  -4   1  351.26   29.88
  -6  -4   1  330.59   27.74
   6   4  -1  331.51   34.90
  -5  -4   1  650.03   41.32
   5   4  -1  668.31   43.72
   5   4  -1  613.68   41.94
   5   4  -1  634.83   45.13
  -5  -4   1  608.66   41.95
  -5  -4   1  587.14   37.80
  -5  -4   1  672.57   41.12
   5   4  -1  680.56   42.22
  -5  -4   1  628.82   39.16
   4   4  -1    1.65    6.12
   4   4  -1   -2.23    5.98
   4   4  -1    3.73    8.77
  -4  -4   1    4.71    6.52
  -4  -4   1   -2.73    5.43
  -4  -4   1   -4.07    5.70
  -4  -4   1    1.54    6.27
  -4  -4   1    8.79    8.09
   4   4  -1   -1.72    5.39
  -4  -4   1    6.71    8.01
   3   4  -1  918.65   46.57
  -3  -4   1  893.14   48.68
  -3  -4   1  967.40   46.62
  -3  -4   1  955.11   46.69
  -3  -4   1  861.78   45.72
  -3  -4   1  828.81   44.31
  -3  -4   1  966.84   47.06
   3   4  -1  962.70   48.08
   3   4  -1  960.68   50.42
  -2  -4   1  311.85   24.32
   2   4  -1  338.64   23.13
  -2  -4   1  360.35   23.69
  -2  -4   1  342.07   23.10
   2   4  -1  365.25   24.47
  -2  -4   1  327.01   22.93
  -2  -4   1  348.66   24.14
   1   4  -1  274.71   18.53
  -1  -4   1  258.18   18.54
  -1  -4   1  263.69   20.32
   1   4  -1  282.26   19.07
  -1  -4   1  247.42   18.72
  -1  -4   1  246.25   18.12
   1   4  -1  268.70   18.82
   1   4  -1  260.08   20.02
  -1  -4   1  285.73   19.43
   0   4  -1  937.82   38.70
   0  -4   1  922.51   39.86
   0  -4   1  956.73   39.74
   0   4  -1  970.13   40.87
   0   4  -1  973.40   39.77
   0   4  -1  906.17   38.78
   0  -4   1  868.11   38.76
   0  -4   1  922.44   41.85
   0  -4   1  910.26   40.29
   1  -4   1  172.16   11.80
   1  -4   1  163.71   11.68
   1  -4   1  154.11   11.03
   1  -4   1  152.68   12.20
  -1   4  -1  173.42   11.61
  -1   4  -1  167.29   13.83
   1  -4   1  184.94   12.13
  -1   4  -1  167.75    8.56
   2  -4   1 3029.56  100.86
   2  -4   1 3009.10  102.15
   2  -4   1 2960.21  100.12
  -2   4  -1 2974.22  109.66
   2  -4   1 2918.90  100.37
   3  -4   1 1352.02   46.75
   3  -4   1 1322.80   59.83
   4  -4   1   63.24   13.70
   5  -4   1  382.95   18.67
   5  -4   1  376.95   16.50
   5  -4   1  352.77   17.06
   5  -4   1  352.18   18.73
   5  -4   1  357.55   16.76
   5  -4   1  343.53   30.90
   5  -4   1  366.82   17.72
   6  -4   1   47.29   16.26
   6  -4   1   90.20    8.40
   6  -4   1   92.08   10.70
   6  -4   1   82.03    9.59
   6  -4   1   99.43   11.40
   6  -4   1   85.49    9.87
   7  -4   1   47.21   11.05
   7  -4   1   35.77   17.98
   7  -4   1   56.74    8.73
   8  -4   1  116.21   17.68
   8   3  -1   22.35   16.25
   8   3  -1   50.26   20.75
  -8  -3   1   23.55   11.45
  -7  -3   1   22.39   10.81
   7   3  -1   16.18   12.81
   7   3  -1   54.42   17.92
  -7  -3   1   44.78   15.41
  -7  -3   1   22.26   10.22
   6   3  -1  395.15   32.97
  -6  -3   1  382.15   32.97
  -6  -3   1  420.76   28.96
  -6  -3   1  415.98   30.78
  -6  -3   1  424.67   30.14
  -6  -3   1  481.02   34.58
   6   3  -1  393.53   37.03
   6   3  -1  398.72   34.38
  -5  -3   1   -0.36    6.96
   5   3  -1    4.02    7.81
   5   3  -1   11.80    9.51
  -5  -3   1    7.79    8.39
  -5  -3   1    8.74    7.29
  -5  -3   1    2.24    6.38
  -5  -3   1    2.22    6.34
   5   3  -1   -1.05    5.84
   5   3  -1   18.36   10.26
   4   3  -1   81.87   14.53
  -4  -3   1   77.71   13.48
  -4  -3   1  113.25   15.24
  -4  -3   1   92.45   14.13
   4   3  -1  101.52   16.16
  -4  -3   1  105.45   14.33
  -4  -3   1  124.62   15.00
   4   3  -1  108.37   17.65
  -4  -3   1  112.36   16.50
   4   3  -1  118.18   16.03
   3   3  -1  137.01   15.51
  -3  -3   1  115.05   13.68
   3   3  -1  136.15   15.88
  -3  -3   1  150.96   15.90
  -3  -3   1  126.69   14.42
  -3  -3   1  131.17   14.99
  -3  -3   1  129.53   14.29
   3   3  -1  128.30   16.40
  -3  -3   1  142.43   16.18
   3   3  -1  142.98   15.34
   2   3  -1  110.40   12.90
  -2  -3   1  170.59   14.94
  -2  -3   1  138.45   14.03
  -2  -3   1  159.15   14.62
   2   3  -1  143.21   15.26
  -2  -3   1  133.09   14.54
   2   3  -1  104.02   12.28
  -2  -3   1  133.08   13.51
   2   3  -1  156.26   14.48
  -1  -3   1  531.37   27.30
  -1  -3   1  550.70   27.95
   1   3  -1  561.03   27.79
  -1  -3   1  586.59   27.84
   1   3  -1  618.00   30.11
   1   3  -1  543.70   27.47
   1   3  -1  577.28   27.94
  -1  -3   1  538.33   29.23
  -1  -3   1  561.16   28.05
   0   3  -1  225.53   13.49
   0  -3   1  221.29   14.27
   0   3  -1  203.45   13.61
   0   3  -1  214.97   14.38
   0  -3   1  253.49   15.70
   0  -3   1  226.35   13.94
   0   3  -1  224.31   13.64
   0  -3   1  252.88   14.67
   1  -3   1  926.78   34.81
  -1   3  -1  944.48   34.59
   1  -3   1  885.97   34.56
  -1   3  -1  912.92   37.88
   1  -3   1  921.99   34.42
   1  -3   1  946.27   35.88
   2  -3   1 1508.27   61.27
   2  -3   1 1571.64   53.04
   3  -3   1   20.17    7.43
   4  -3   1  409.08   17.29
   4  -3   1  399.29   28.70
   4  -3   1  399.38   17.41
   4  -3   1  405.06   16.40
   5  -3   1  125.41    9.89
   5  -3   1  122.84    9.55
   5  -3   1  102.92    9.19
   5  -3   1  110.36   10.35
   5  -3   1  133.08   19.36
   5  -3   1  126.67   11.11
   5  -3   1  120.01   10.27
   6  -3   1  121.81   22.01
   6  -3   1  142.69   13.15
   6  -3   1  144.36   14.15
   6  -3   1  152.62   12.68
   6  -3   1  148.33   13.36
   6  -3   1  131.35   13.79
   7  -3   1  330.85   24.94
   7  -3   1  223.50   32.13
   7  -3   1  253.15   19.31
   7  -3   1  283.85   23.14
   8  -3   1   21.25   10.33
   8   2  -1   64.28   19.46
   8   2  -1   13.50   15.41
  -8  -2   1   61.24   11.29
  -7  -2   1  484.10   30.42
  -7  -2   1  493.64   31.28
   7   2  -1  488.09   42.18
   7   2  -1  500.45   37.79
   7   2  -1  533.88   40.50
  -7  -2   1  468.11   28.78
  -7  -2   1  502.36   36.84
  -6  -2   1    7.90    7.43
   6   2  -1    8.97    9.15
  -6  -2   1   -2.30    5.75
   6   2  -1    5.16    7.81
   6   2  -1    1.62    7.26
  -6  -2   1   12.20    7.72
  -6  -2   1   -0.04    5.05
   6   2  -1    1.61    8.30
  -5  -2   1  297.35   22.10
   5   2  -1  316.38   26.46
  -5  -2   1  321.13   25.62
   5   2  -1  351.71   27.90
  -5  -2   1  308.18   25.88
   5   2  -1  311.73   25.80
  -5  -2   1  302.79   23.88
   5   2  -1  332.26   29.24
  -5  -2   1  339.75   24.99
  -5  -2   1  310.48   22.94
  -4  -2   1  840.98   40.43
  -4  -2   1  860.07   43.53
  -4  -2   1  793.73   39.73
   4   2  -1  792.51   44.10
   4   2  -1  818.93   41.57
  -4  -2   1  777.43   40.30
  -4  -2   1  853.44   39.80
   4   2  -1  791.15   41.75
  -4  -2   1  830.26   41.97
   4   2  -1  780.64   42.55
  -3  -2   1  321.98   20.93
  -3  -2   1  270.28   20.33
  -3  -2   1  362.12   22.58
   3   2  -1  336.94   23.86
   3   2  -1  391.55   24.09
   3   2  -1  323.43   21.76
   3   2  -1  289.89   21.03
  -3  -2   1  349.30   21.33
  -3  -2   1  353.84   23.37
  -3  -2   1  378.43   22.32
   2   2  -1 1916.86   72.45
  -2  -2   1 1742.79   71.52
  -2  -2   1 1865.00   71.39
  -2  -2   1 1860.98   71.71
   2   2  -1 1861.53   71.15
  -2  -2   1 1988.72   71.64
  -2  -2   1 1979.16   74.26
  -2  -2   1 1932.44   70.99
   2   2  -1 1876.19   72.58
  -1  -2   1  136.62   12.09
  -1  -2   1  136.99   11.94
   1   2  -1  116.05   10.69
   1   2  -1  134.18   11.72
  -1  -2   1  134.79   11.14
  -1  -2   1  144.30   11.82
  -1  -2   1  125.62   11.17
   1   2  -1  121.76   10.92
   0  -2   1  460.61   21.23
   0   2  -1  484.86   20.26
   0  -2   1  409.01   19.95
   0   2  -1  467.81   20.91
   0   2  -1  434.92   19.68
   0  -2   1  475.73   20.42
   0  -2   1  470.27   20.20
   1  -2   1 3237.34  106.78
   1  -2   1 3277.31  111.05
  -1   2  -1 3158.05  107.81
  -1   2  -1 3181.86  110.54
   2  -2   1  418.81   22.82
   3  -2   1  522.30   20.24
   4  -2   1  506.41   22.10
   4  -2   1  505.43   22.76
   4  -2   1  495.07   20.97
   4  -2   1  503.29   21.98
   4  -2   1  512.79   21.56
   4  -2   1  502.09   21.33
   5  -2   1   24.13    7.01
   5  -2   1   24.86    6.17
   5  -2   1   47.98    8.09
   5  -2   1   42.08    7.64
   5  -2   1   41.27    7.15
   5  -2   1   33.26    6.99
   6  -2   1  359.28   24.50
   6  -2   1  358.69   22.86
   6  -2   1  396.68   25.15
   6  -2   1  353.34   22.84
   6  -2   1  391.65   22.94
   7  -2   1   86.70   13.39
   7  -2   1  128.81   16.84
   7  -2   1   98.37   14.39
   7  -2   1  101.09   15.78
   8  -2   1   10.61   10.79
   8  -2   1    7.95   10.22
  -8  -1   1  262.21   28.16
   8   1  -1  262.10   33.93
  -7  -1   1  169.09   21.41
   7   1  -1  147.82   21.78
   7   1  -1  164.48   21.83
  -7  -1   1  141.93   13.69
  -7  -1   1  130.60   13.51
  -7  -1   1  155.38   14.48
   7   1  -1  131.61   23.26
   6   1  -1   78.16   15.47
   6   1  -1   68.73   16.51
   6   1  -1   20.68   12.13
   6   1  -1   82.01   15.33
  -6  -1   1   65.56   10.16
  -6  -1   1   76.42   10.86
  -6  -1   1   95.59   12.74
  -6  -1   1   86.11   11.81
  -6  -1   1   54.04   13.16
  -5  -1   1  437.00   25.63
  -5  -1   1  496.84   30.08
   5   1  -1  489.72   32.91
  -5  -1   1  476.02   27.03
   5   1  -1  383.88   28.25
  -5  -1   1  460.18   27.07
   5   1  -1  459.03   29.62
  -5  -1   1  514.59   29.61
   5   1  -1  402.97   29.68
  -5  -1   1  413.95   24.90
  -4  -1   1  215.16   15.99
   4   1  -1  183.80   17.24
  -4  -1   1  183.32   15.98
   4   1  -1  206.39   18.16
  -4  -1   1  197.82   17.57
  -4  -1   1  180.33   15.12
  -4  -1   1  192.20   15.87
  -4  -1   1  166.97   16.41
   4   1  -1  159.62   17.84
   4   1  -1  213.50   18.87
   4   1  -1  240.89   18.58
   3   1  -1  509.80   27.14
  -3  -1   1  526.54   28.16
  -3  -1   1  497.44   25.40
  -3  -1   1  508.02   26.20
   3   1  -1  487.10   27.66
   3   1  -1  579.84   27.96
  -3  -1   1  474.73   26.65
  -3  -1   1  546.61   27.21
   3   1  -1  505.77   29.15
   3   1  -1  490.93   27.00
  -3  -1   1  514.91   25.94
  -2  -1   1  135.23   11.34
  -2  -1   1  125.81   11.10
  -2  -1   1  146.43   11.23
  -2  -1   1  103.90   10.14
  -2  -1   1  139.81   12.13
   2   1  -1  170.46   12.80
   2   1  -1  155.21   11.97
   2   1  -1  159.39   11.88
   2   1  -1  157.07   11.77
   2   1  -1  154.86   12.99
  -2  -1   1  133.72   10.85
   1   1  -1  361.43   17.93
  -1  -1   1  353.06   17.48
   1   1  -1  348.78   17.80
  -1  -1   1  358.85   18.90
  -1  -1   1  361.71   17.91
  -1  -1   1  412.84   18.58
   1   1  -1  358.85   18.74
   1   1  -1  382.86   19.30
   0   1  -1 2420.25   83.78
   0   1  -1 2467.99   83.85
   0   1  -1 2404.50   82.68
   0  -1   1 2527.56   83.83
   0  -1   1 2469.90   84.81
   0   1  -1 2533.38   84.92
   0  -1   1 2493.73   82.84
   1  -1   1  812.25   31.69
   2  -1   1  990.19   34.92
   3  -1   1  898.87   35.21
   3  -1   1  935.82   34.00
  -3   1  -1  958.83   34.02
   3  -1   1  971.06   34.71
   3  -1   1  894.77   33.37
   3  -1   1  918.53   34.91
   3  -1   1  891.93   33.95
   4  -1   1  216.70   15.26
   4  -1   1  244.13   14.72
   4  -1   1  205.68   13.49
   4  -1   1  232.10   15.04
   4  -1   1  233.08   14.87
   4  -1   1  229.03   14.86
  -4   1  -1  221.64   13.50
   5  -1   1  401.95   23.39
   5  -1   1  416.60   23.23
  -5   1  -1  390.49   20.99
   5  -1   1  461.64   25.23
   5  -1   1  406.19   24.79
   5  -1   1  368.11   22.51
   5  -1   1  446.24   23.95
   6  -1   1  166.36   16.74
   6  -1   1  150.39   17.18
   6  -1   1  164.76   16.76
   6  -1   1  178.42   16.49
   6  -1   1  152.48   17.10
  -6   1  -1  183.86   14.55
  -7   1  -1   -0.37    5.62
   7  -1   1   -5.00    6.57
   7  -1   1    2.22    7.48
   7  -1   1   11.62    7.77
  -8   1  -1  250.69   19.11
   8  -1   1  221.91   26.71
   8  -1   1  231.22   23.95
  -8   0   1   47.36   14.29
   8   0  -1   15.22   13.81
   7   0  -1   59.04   15.87
   7   0  -1   68.23   16.08
  -7   0   1   76.41   15.33
   7   0  -1   86.07   16.82
   6   0  -1  325.48   28.73
  -6   0   1  354.93   25.95
   6   0  -1  302.52   27.23
  -6   0   1  325.19   18.44
   6   0  -1  323.94   26.50
   6   0  -1  402.09   27.42
  -6   0   1  329.60   18.68
   6   0  -1  323.75   26.23
  -6   0   1  320.79   18.11
  -6   0   1  353.00   18.00
   5   0  -1   34.68    9.50
   5   0  -1   34.70    9.86
   5   0  -1   15.34    9.20
  -5   0   1   27.12    6.39
   5   0  -1   17.07    8.39
  -5   0   1   31.48    8.12
   5   0  -1   38.17    9.54
  -5   0   1   28.57    7.37
  -5   0   1   19.54    7.90
  -5   0   1   30.49    7.54
  -4   0   1  825.80   38.13
  -4   0   1  888.69   35.56
   4   0  -1  874.76   40.30
   4   0  -1  806.25   40.32
   4   0  -1  840.73   39.54
  -4   0   1  841.09   36.27
  -4   0   1  858.13   36.41
  -4   0   1  880.02   39.88
   4   0  -1  887.15   42.81
  -4   0   1  809.17   36.76
   4   0  -1  824.98   39.21
  -3   0   1  658.00   28.06
   3   0  -1  604.70   31.57
   3   0  -1  649.14   29.84
   3   0  -1  658.12   31.11
   3   0  -1  603.51   29.54
  -3   0   1  648.18   29.16
  -3   0   1  610.83   29.75
  -3   0   1  581.66   27.80
  -3   0   1  684.87   28.64
  -3   0   1  642.77   30.13
   3   0  -1  613.99   29.85
  -2   0   1  283.76   14.93
   2   0  -1  306.40   15.97
  -2   0   1  278.04   15.15
   2   0  -1  267.88   16.06
  -2   0   1  268.90   14.67
  -2   0   1  299.45   15.87
   2   0  -1  249.39   14.83
   2   0  -1  283.42   15.78
   2   0  -1  278.06   16.74
  -2   0   1  282.06   15.80
  -2   0   1  301.97   16.40
   1   0  -1 3466.43  123.30
   1   0  -1 3758.38  125.02
   1   0  -1 3756.99  123.51
   1   0  -1 3811.71  126.77
  -1   0   1 3951.05  125.12
  -1   0   1 3698.16  126.34
  -1   0   1 3609.54  125.38
  -1   0   1 3834.91  123.78
   0   0  -1  776.32   29.63
   0   0   1  776.43   30.65
   0   0   1  864.80   30.83
   0   0  -1  928.47   30.70
   0   0  -1  851.91   30.29
   0   0   1  878.49   32.16
  -1   0  -1    0.76    1.13
   1   0   1    2.18    1.54
   1   0   1    1.67    1.62
   1   0   1    2.28    1.45
  -1   0  -1    1.89    0.99
   1   0   1    1.45    1.30
  -1   0  -1    1.55    1.05
  -1   0  -1    0.83    0.90
  -1   0  -1    1.87    1.66
   1   0   1    1.16    1.48
   1   0   1    1.18    1.27
  -1   0  -1    0.80    0.97
  -1   0  -1   -0.28    0.92
   2   0   1 1308.79   47.16
  -2   0  -1 1302.08   46.69
  -2   0  -1 1311.79   46.15
  -2   0  -1 1314.58   46.72
   2   0   1 1327.41   47.93
   2   0   1 1327.91   46.15
   2   0   1 1291.81   46.79
   2   0   1 1349.39   46.44
  -2   0  -1 1294.27   46.47
   2   0   1 1340.79   47.00
  -2   0  -1 1321.67   46.42
   3   0   1   18.38    4.85
   3   0   1   14.54    4.25
  -3   0  -1   13.98    4.28
   3   0   1   16.30    4.37
  -3   0  -1   17.79    2.95
   3   0   1   18.21    5.17
   3   0   1   16.57    4.86
  -3   0  -1   12.57    2.08
   3   0   1    8.65    4.02
  -3   0  -1   18.98    2.94
   4   0   1 1535.12   65.12
   4   0   1 1767.64   64.34
  -4   0  -1 1667.16   62.52
  -4   0  -1 1664.14   57.57
   4   0   1 1713.55   64.21
   4   0   1 1668.24   63.35
   4   0   1 1653.15   64.49
   5   0   1  705.83   37.88
   5   0   1  768.90   37.23
   5   0   1  732.93   36.93
  -5   0  -1  840.25   36.19
   5   0   1  718.80   38.96
   5   0   1  739.15   37.20
   6   0   1   82.39   14.16
  -6   0  -1   71.95   11.34
   6   0   1   74.64   14.81
   6   0   1   81.31   13.37
   6   0   1   86.72   13.56
   6   0   1   68.40   12.87
   7   0   1  230.06   25.22
   7   0   1  222.02   22.34
   7   0   1  239.19   23.98
  -7   0  -1  217.08   19.71
  -8   0  -1   88.30   14.69
   8   0   1   56.97   16.90
  -8   1   1    8.23    9.62
   8  -1  -1    6.03   10.02
   7  -1  -1  138.07   18.65
   7  -1  -1  161.69   20.53
   7  -1  -1  158.88   20.83
   7  -1  -1  153.19   21.76
  -7   1   1  146.65   17.43
  -6   1   1   79.95   12.71
   6  -1  -1   76.20   14.73
   6  -1  -1  101.59   14.74
   6  -1  -1   79.26   13.81
   6  -1  -1   78.63   13.87
   6  -1  -1   96.18   15.81
   5  -1  -1  135.94   14.89
   5  -1  -1  135.35   16.03
  -5   1   1  145.97   10.23
  -5   1   1  146.53    8.69
   5  -1  -1  151.24   15.35
   5  -1  -1  146.95   16.75
  -5   1   1  173.41   15.86
   5  -1  -1  125.33   14.31
  -4   1   1  482.46   22.47
   4  -1  -1  518.17   26.66
  -4   1   1  492.47   21.31
  -4   1   1  498.71   21.72
  -4   1   1  399.40   19.64
  -4   1   1  466.74   20.83
   4  -1  -1  482.04   27.87
   4  -1  -1  573.23   28.33
  -4   1   1  517.67   26.57
   4  -1  -1  492.36   25.58
   4  -1  -1  497.75   26.23
  -3   1   1  230.39   12.37
  -3   1   1  215.80   14.54
   3  -1  -1  231.65   15.33
   3  -1  -1  211.70   14.29
   3  -1  -1  206.28   15.03
   3  -1  -1  198.35   13.54
  -3   1   1  232.76   13.23
  -3   1   1  232.39   12.74
   3  -1  -1  240.21   14.63
   2  -1  -1    1.33    3.03
   2  -1  -1   -1.49    2.38
  -2   1   1   -1.42    2.82
   2  -1  -1   -2.86    3.08
  -2   1   1    0.16    1.24
  -2   1   1    1.12    2.88
   2  -1  -1    0.83    2.80
  -2   1   1    0.97    3.12
   2  -1  -1   -0.58    2.95
  -2   1   1   -2.07    2.24
  -2   1   1   -1.75    2.15
   1  -1  -1 1075.17   39.53
   1  -1  -1 1113.45   40.21
   1  -1  -1 1099.61   42.73
  -1   1   1 1044.77   39.14
  -1   1   1 1097.17   40.02
   1  -1  -1 1151.18   39.13
   1  -1  -1 1081.07   40.51
  -1   1   1 1155.80   38.96
  -1   1   1 1078.26   39.96
   1  -1  -1 1116.23   39.96
   0  -1  -1 1433.32   47.42
   0   1   1 1459.35   48.13
   0   1   1 1079.54   45.71
   0  -1  -1 1408.86   48.59
   0   1   1 1368.26   47.09
  -1  -1  -1 2461.99   84.77
  -1  -1  -1 2488.34   84.42
  -1  -1  -1 2585.83   86.21
  -1  -1  -1 2440.28   83.83
  -1  -1  -1 2580.41   83.51
   1   1   1 2431.92   86.09
   1   1   1 2354.17   84.87
   1   1   1 2436.65   83.57
   1   1   1 2424.54   83.87
   1   1   1 2546.95   84.77
   2   1   1  110.28    9.15
  -2  -1  -1  101.93    8.15
  -2  -1  -1   87.76    8.31
  -2  -1  -1   96.93    7.93
   2   1   1  101.38    9.61
  -2  -1  -1   89.16    7.62
   2   1   1  103.33    8.98
   2   1   1   91.38    8.47
   2   1   1   95.15    8.77
  -2  -1  -1   84.45    8.21
   3   1   1  635.77   30.27
   3   1   1  605.47   30.26
   3   1   1  659.23   30.88
  -3  -1  -1  696.27   28.39
  -3  -1  -1  717.62   30.96
  -3  -1  -1  676.59   28.86
  -3  -1  -1  681.03   28.62
  -3  -1  -1  719.91   30.81
  -3  -1  -1  661.80   28.11
   3   1   1  659.17   32.50
   3   1   1  711.58   31.63
   4   1   1  499.96   26.64
  -4  -1  -1  434.22   21.92
   4   1   1  472.32   28.04
  -4  -1  -1  432.07   24.74
   4   1   1  487.18   26.99
  -4  -1  -1  428.17   21.16
  -4  -1  -1  467.30   22.02
   4   1   1  492.04   26.42
  -4  -1  -1  444.81   23.73
   4   1   1  452.49   25.74
  -5  -1  -1  176.89   12.47
  -5  -1  -1  184.85   12.42
  -5  -1  -1  172.38   14.11
   5   1   1  183.08   17.89
   5   1   1  189.65   17.87
  -5  -1  -1  180.15   12.48
   5   1   1  156.38   16.55
   5   1   1  187.02   18.39
   5   1   1  175.22   19.03
  -5  -1  -1  168.42   16.05
  -6  -1  -1  478.37   21.39
   6   1   1  521.96   32.56
   6   1   1  521.37   33.73
   6   1   1  494.72   33.74
  -6  -1  -1  538.88   31.53
   6   1   1  539.96   36.44
   6   1   1  488.24   32.59
   7   1   1  269.95   26.38
  -7  -1  -1  195.62   20.22
   7   1   1  155.37   20.28
   7   1   1  228.26   26.58
  -8  -1  -1   42.90   13.49
   8   1   1   23.64   14.32
   8  -2  -1   46.84   15.71
   7  -2  -1  146.43   17.94
   7  -2  -1  119.92   25.55
  -7   2   1  175.53   17.35
   7  -2  -1  123.92   19.17
   7  -2  -1  177.32   20.09
  -6   2   1    1.74    5.35
   6  -2  -1    0.21    9.18
   6  -2  -1   17.83    8.68
   6  -2  -1    7.23    7.73
   6  -2  -1    7.65    6.66
   6  -2  -1    3.05    6.58
   6  -2  -1    4.50    6.11
  -5   2   1  758.04   35.98
   5  -2  -1  748.73   46.33
   5  -2  -1  700.84   37.67
   5  -2  -1  774.32   36.52
   5  -2  -1  766.30   39.62
   5  -2  -1  747.41   36.97
   5  -2  -1  790.42   37.16
   4  -2  -1    5.55    4.23
   4  -2  -1    6.99    4.24
   4  -2  -1    5.28    4.19
   4  -2  -1   12.36    5.51
  -4   2   1    5.98    4.35
   4  -2  -1   -1.01    4.77
   4  -2  -1    4.41    4.76
   3  -2  -1  302.70   16.84
   3  -2  -1  282.09   16.99
  -3   2   1  297.46   16.73
   3  -2  -1  301.42   16.35
   3  -2  -1  292.22   21.80
   3  -2  -1  308.43   15.93
   2  -2  -1   -2.66    2.23
  -2   2   1   -1.25    1.78
  -2   2   1    3.55    2.42
  -2   2   1    4.16    2.20
   2  -2  -1    7.89    3.43
   2  -2  -1    4.24    2.80
  -2   2   1    5.49    2.34
   2  -2  -1    1.88    4.25
   2  -2  -1    4.25    2.90
   1  -2  -1  276.90   14.43
   1  -2  -1  300.71   14.30
  -1   2   1  292.85   17.29
   1  -2  -1  300.52   17.61
  -1   2   1  295.05   13.40
   1  -2  -1  294.47   14.61
   1  -2  -1  292.55   14.95
  -1   2   1  295.35   13.87
   1  -2  -1  277.03   13.72
   0   2   1  652.74   26.64
   0   2   1  653.96   27.69
   0  -2  -1  625.95   27.68
   0   2   1  632.48   26.35
   0   2   1  659.25   26.09
   0  -2  -1  632.72   26.48
   0  -2  -1  686.38   26.26
   0  -2  -1  647.17   27.16
   0   2   1  634.43   27.07
  -1  -2  -1    0.13    3.54
   1   2   1    4.06    4.48
   1   2   1   -0.04    3.65
   1   2   1    4.99    3.92
  -1  -2  -1   -4.11    3.07
  -1  -2  -1    5.25    3.64
   1   2   1   -0.54    2.96
  -1  -2  -1    4.99    4.25
   1   2   1    1.55    3.82
  -1  -2  -1   -0.57    3.19
  -2  -2  -1  209.41   13.99
   2   2   1  177.27   13.79
  -2  -2  -1  193.06   13.75
   2   2   1  178.87   13.51
   2   2   1  200.46   15.35
   2   2   1  195.54   14.47
  -2  -2  -1  193.72   13.60
  -2  -2  -1  177.27   14.00
  -2  -2  -1  185.55   13.19
   2   2   1  193.58   13.84
  -3  -2  -1  855.27   39.64
  -3  -2  -1  909.70   41.06
  -3  -2  -1  910.83   38.63
   3   2   1  897.93   40.89
   3   2   1  878.57   40.39
   3   2   1  897.34   40.93
   3   2   1  874.58   39.83
  -3  -2  -1  859.44   38.02
   3   2   1  961.98   43.71
  -3  -2  -1  906.91   39.29
  -3  -2  -1  909.28   38.97
  -4  -2  -1   31.96    7.46
   4   2   1   21.28    7.45
  -4  -2  -1   37.07    7.40
  -4  -2  -1   23.40    7.91
   4   2   1   27.89    8.98
   4   2   1   42.29    9.68
   4   2   1   31.13    9.57
  -4  -2  -1   13.67    5.92
   4   2   1   15.12    6.81
  -4  -2  -1   19.02    6.82
  -4  -2  -1   29.73    7.86
   5   2   1  298.10   23.95
   5   2   1  302.29   24.50
  -5  -2  -1  326.25   22.73
   5   2   1  309.80   24.36
  -5  -2  -1  262.97   18.28
  -5  -2  -1  283.50   19.38
   5   2   1  263.71   22.48
   5   2   1  266.66   25.09
  -5  -2  -1  284.11   19.57
  -5  -2  -1  265.78   21.38
  -5  -2  -1  277.94   19.32
  -6  -2  -1    7.64    7.29
   6   2   1   27.75   10.99
   6   2   1   12.53    8.81
  -6  -2  -1    1.37    3.67
   6   2   1    3.76    8.39
  -6  -2  -1    6.32    5.36
  -6  -2  -1    7.76    6.29
   6   2   1    0.71    6.75
   6   2   1   26.36   10.13
  -6  -2  -1   17.47    6.46
  -7  -2  -1  114.10   10.81
   7   2   1  128.80   22.55
  -7  -2  -1  143.39   11.98
   7   2   1  151.10   21.39
  -7  -2  -1  132.67   18.85
   7   2   1  151.73   20.94
   7   2   1  101.65   19.60
  -7  -2  -1  139.84   12.10
  -7  -2  -1  125.76   11.55
  -8  -2  -1  314.34   29.32
   8   2   1  324.52   36.54
   8  -3  -1   10.30   10.01
   7  -3  -1   13.85    8.50
   7  -3  -1    1.76    7.48
   7  -3  -1    3.37    8.02
   6  -3  -1  617.73   33.44
   6  -3  -1  642.41   34.25
   6  -3  -1  569.88   35.57
   6  -3  -1  540.54   31.64
   6  -3  -1  608.24   45.37
   5  -3  -1  164.26   14.14
   5  -3  -1  104.57   19.21
   5  -3  -1  147.26   13.81
   5  -3  -1  121.66   14.32
   5  -3  -1  146.08   13.69
   4  -3  -1   84.73   15.44
   4  -3  -1   82.58    8.92
   4  -3  -1   80.26    9.04
   4  -3  -1   80.32    9.08
   4  -3  -1   68.68    9.50
   3  -3  -1  498.00   24.15
   3  -3  -1  533.15   23.60
   3  -3  -1  496.11   24.09
   3  -3  -1  520.25   22.70
   3  -3  -1  486.31   31.07
   2  -3  -1 2052.79   73.79
   2  -3  -1 2050.44   73.50
   2  -3  -1 2108.49   73.13
   2  -3  -1 2090.19   73.30
  -2   3   1 1998.50   80.77
   2  -3  -1 2076.55   81.60
   2  -3  -1 2116.89   72.00
   1  -3  -1 1072.50   43.28
  -1   3   1 1158.34   42.58
  -1   3   1 1110.82   42.63
   1  -3  -1 1079.02   44.23
   1  -3  -1 1106.48   42.04
   1  -3  -1 1180.81   43.18
   1  -3  -1 1149.09   43.41
  -1   3   1 1099.09   47.85
  -1   3   1 1158.83   43.32
  -1   3   1 1188.60   41.32
   0  -3  -1  245.23   14.98
   0   3   1  256.69   15.09
   0   3   1  257.04   15.15
   0  -3  -1  251.27   15.17
   0   3   1  239.87   14.28
   0   3   1  245.40   15.23
   0   3   1  231.87   15.41
   0  -3  -1  246.38   16.07
   0  -3  -1  227.20   14.69
   0  -3  -1  227.07   14.40
   1   3   1   30.21    6.81
  -1  -3  -1   20.52    6.25
   1   3   1   25.04    6.34
   1   3   1   28.29    6.43
  -1  -3  -1   45.70    7.45
  -1  -3  -1   27.56    6.56
  -1  -3  -1   36.57    7.07
  -1  -3  -1   31.80    6.70
   1   3   1   27.38    6.48
   2   3   1  612.76   31.38
   2   3   1  655.17   34.10
  -2  -3  -1  663.85   33.55
   2   3   1  636.24   31.13
   2   3   1  581.47   30.81
  -2  -3  -1  622.21   31.37
  -2  -3  -1  646.47   31.70
  -2  -3  -1  648.69   31.67
   2   3   1  675.81   32.74
  -2  -3  -1  607.15   30.50
  -3  -3  -1  356.24   21.74
   3   3   1  326.17   23.91
  -3  -3  -1  341.29   21.91
  -3  -3  -1  293.34   20.72
  -3  -3  -1  307.57   22.37
   3   3   1  338.20   22.93
   3   3   1  321.91   21.98
  -3  -3  -1  312.60   20.85
   3   3   1  318.32   22.38
   3   3   1  287.79   21.02
   4   3   1  525.56   31.73
  -4  -3  -1  509.31   29.86
  -4  -3  -1  438.26   28.26
   4   3   1  511.78   32.06
  -4  -3  -1  505.46   31.50
  -4  -3  -1  555.69   31.67
  -4  -3  -1  534.52   29.51
  -4  -3  -1  559.50   30.55
   4   3   1  539.81   32.64
   4   3   1  526.41   34.48
   4   3   1  554.70   32.25
  -5  -3  -1   18.86    8.32
  -5  -3  -1   47.21   10.91
  -5  -3  -1   46.65   10.23
   5   3   1   31.23   11.24
   5   3   1   42.16   11.13
  -5  -3  -1   31.53    9.02
  -5  -3  -1   38.16   11.28
   5   3   1   55.70   13.87
   5   3   1   35.30   11.84
  -5  -3  -1   28.84    9.79
   5   3   1   52.17   12.99
   6   3   1   50.15   15.44
   6   3   1   55.95   14.43
   6   3   1   40.68   12.71
   6   3   1   40.59   13.69
  -6  -3  -1   60.20   13.81
  -6  -3  -1   52.58   10.63
  -6  -3  -1   56.12   11.28
  -6  -3  -1   57.45   11.28
   6   3   1   57.61   13.78
   7   3   1   75.29   18.59
  -7  -3  -1   57.80   10.93
  -7  -3  -1   35.65   13.52
   7   3   1   32.89   14.85
  -7  -3  -1   60.99   11.33
   7   3   1   87.98   18.23
   7   3   1   58.97   16.74
  -7  -3  -1   36.17    9.78
   8   3   1  269.70   35.51
  -8  -3  -1  238.82   18.19
   8  -4  -1   26.10   13.06
   7  -4  -1  303.93   26.39
   7  -4  -1  270.07   22.08
   6  -4  -1  472.54   27.09
   6  -4  -1  460.24   27.52
   6  -4  -1  491.07   28.37
   6  -4  -1  391.66   28.37
   6  -4  -1  439.52   40.09
   5  -4  -1   58.72   10.31
   5  -4  -1   35.89    7.98
   5  -4  -1   50.50    8.70
   5  -4  -1   46.77   14.33
   5  -4  -1   66.52    9.69
   4  -4  -1  142.42   12.09
   4  -4  -1  131.63   12.66
   4  -4  -1  165.83   12.33
   4  -4  -1  130.60   12.14
   4  -4  -1  170.43   21.22
   4  -4  -1  166.06   13.80
   3  -4  -1  633.37   29.40
   3  -4  -1  702.38   30.91
   3  -4  -1  707.95   30.95
   3  -4  -1  688.95   29.22
   3  -4  -1  715.29   30.97
   3  -4  -1  684.36   39.46
   3  -4  -1  664.25   30.55
   2  -4  -1 1469.73   54.17
   2  -4  -1 1478.14   56.68
   2  -4  -1 1408.22   54.59
   2  -4  -1 1516.57   55.78
   2  -4  -1 1487.52   56.19
  -2   4   1 1464.17   63.33
   2  -4  -1 1458.17   64.26
  -1   4   1    6.36    3.63
  -1   4   1    5.25    3.89
   1  -4  -1   -1.31    3.41
   1  -4  -1    6.40    3.82
   1  -4  -1   -2.67    3.42
  -1   4   1    6.51    3.70
  -1   4   1    7.12    3.33
  -1   4   1    1.87    4.80
  -1   4   1    2.74    3.46
   1  -4  -1    5.46    4.08
   1  -4  -1   -1.97    3.42
   0   4   1  688.11   30.58
   0   4   1  723.67   32.47
   0  -4  -1  622.32   31.47
   0  -4  -1  680.83   34.10
   0  -4  -1  714.19   31.86
   0   4   1  740.00   31.92
   0   4   1  644.17   31.72
   0   4   1  685.94   33.01
   0  -4  -1  655.65   32.28
   0  -4  -1  717.18   32.19
  -1  -4  -1  292.43   19.52
   1   4   1  251.22   18.52
   1   4   1  289.07   19.79
   1   4   1  295.67   19.40
   1   4   1  301.52   19.02
  -1  -4  -1  311.80   20.26
  -1  -4  -1  328.92   20.43
  -1  -4  -1  336.09   20.31
  -1  -4  -1  264.94   20.72
  -2  -4  -1 4807.15  165.87
  -2  -4  -1 4954.86  169.02
  -2  -4  -1 4785.80  168.13
  -2  -4  -1 4766.42  171.70
   2   4   1 4478.63  171.20
  -2  -4  -1 4574.90  165.93
   2   4   1 4462.06  164.95
   2   4   1 5086.95  167.50
   2   4   1 4826.81  168.40
   2   4   1 4964.82  169.82
   3   4   1   85.52   13.42
  -3  -4  -1   71.01   12.00
  -3  -4  -1   54.37   10.84
   3   4   1   50.87   12.33
  -3  -4  -1   75.37   12.20
  -3  -4  -1   99.99   14.99
   3   4   1   70.61   12.18
   3   4   1   54.47   11.48
   3   4   1   72.30   12.58
  -3  -4  -1   64.76   11.66
  -4  -4  -1  181.63   18.74
   4   4   1  194.45   20.77
   4   4   1  203.47   22.61
  -4  -4  -1  213.63   19.86
  -4  -4  -1  196.00   19.15
  -4  -4  -1  201.83   21.43
   4   4   1  200.71   21.31
  -4  -4  -1  175.13   18.87
   4   4   1  183.08   19.68
   4   4   1  209.29   20.85
  -4  -4  -1  193.27   18.49
  -5  -4  -1   66.78   14.44
   5   4   1   56.35   14.08
   5   4   1   79.75   15.75
  -5  -4  -1   58.14   12.35
  -5  -4  -1   75.20   13.62
   5   4   1   52.16   15.01
  -5  -4  -1   83.06   14.41
   5   4   1   48.18   13.37
  -5  -4  -1   77.35   15.75
   5   4   1   49.48   14.06
  -6  -4  -1  209.89   21.20
   6   4   1  164.78   22.71
  -6  -4  -1  178.96   19.88
   6   4   1  154.26   23.20
  -6  -4  -1  179.75   19.64
   6   4   1  190.35   26.85
   6   4   1  209.61   24.61
  -6  -4  -1  190.58   22.90
   7   4   1   67.68   18.56
  -7  -4  -1   84.02   18.29
   7   4   1   83.94   21.77
  -7  -4  -1  103.73   15.44
  -7  -4  -1  103.12   16.01
  -8  -4  -1    0.24    8.58
   8   4   1    5.12   14.03
   8   4   1    5.88   13.80
   7  -5  -1   68.53   14.30
   7  -5  -1   64.94   12.08
   6  -5  -1  175.25   18.76
   6  -5  -1  123.92   24.79
   6  -5  -1  204.67   17.50
   6  -5  -1  203.14   17.74
   6  -5  -1  220.28   17.48
   6  -5  -1  196.45   19.26
   6  -5  -1  213.31   18.22
   5  -5  -1  221.51   27.30
   5  -5  -1  187.92   15.17
   5  -5  -1  195.07   15.84
   5  -5  -1  192.19   15.91
   5  -5  -1  149.21   13.70
   5  -5  -1  207.78   17.21
   5  -5  -1  197.61   17.30
   4  -5  -1   55.28    9.41
   4  -5  -1   50.17    8.25
   4  -5  -1   74.53   16.69
   4  -5  -1   56.74    9.34
   4  -5  -1   36.68    7.68
   4  -5  -1   47.80    7.74
   4  -5  -1   40.43    8.09
   4  -5  -1   48.84    8.15
   3  -5  -1    3.65    4.72
   3  -5  -1   13.12    5.22
   3  -5  -1    4.80    3.92
  -3   5   1   15.35    7.68
   3  -5  -1    3.94    4.56
   3  -5  -1    5.48    4.22
   3  -5  -1    6.93    7.21
   2  -5  -1 1818.45   69.31
  -2   5   1 1730.81   76.53
   2  -5  -1 1815.62   67.12
   2  -5  -1 1774.74   68.02
   2  -5  -1 1803.69   70.67
   2  -5  -1 1945.94   69.06
  -1   5   1  112.52   10.78
   1  -5  -1  133.94   13.60
   1  -5  -1  110.40   11.62
  -1   5   1  114.98   14.84
  -1   5   1  107.48   11.37
  -1   5   1  107.68    9.51
   1  -5  -1  113.06   11.72
   1  -5  -1  131.52   12.68
   1  -5  -1   95.51   10.88
  -1   5   1  125.00   10.26
  -1   5   1  103.12   10.19
   0  -5  -1 2086.83   80.88
   0   5   1 2048.70   79.03
   0  -5  -1 2091.75   83.72
   0  -5  -1 1998.45   79.59
   0   5   1 2175.78   80.59
   0   5   1 2240.45   82.84
   0  -5  -1 2174.71   82.16
   0   5   1 1895.36   79.60
   0   5   1 2247.04   78.80
   0  -5  -1 2121.89   79.72
   1   5   1 1358.16   61.14
   1   5   1 1322.97   58.08
  -1  -5  -1 1334.99   58.34
   1   5   1 1245.22   57.79
  -1  -5  -1 1277.10   58.35
  -1  -5  -1 1432.53   58.33
   1   5   1 1333.23   56.54
  -1  -5  -1 1413.36   58.47
   1   5   1 1464.35   58.80
  -1  -5  -1 1441.28   62.61
  -2  -5  -1   -1.84    4.94
   2   5   1    0.87    3.50
   2   5   1    5.02    5.76
  -2  -5  -1    4.02    5.67
   2   5   1    1.83    4.81
   2   5   1    4.75    6.51
  -2  -5  -1    0.85    4.95
  -2  -5  -1    3.90    5.49
  -2  -5  -1    7.80    5.99
   2   5   1   -5.55    3.35
   3   5   1  419.07   29.76
  -3  -5  -1  422.62   29.44
  -3  -5  -1  464.39   30.88
   3   5   1  483.16   33.96
  -3  -5  -1  452.42   32.26
   3   5   1  527.18   33.22
   3   5   1  426.10   29.48
  -3  -5  -1  481.46   30.86
   3   5   1  454.83   31.26
  -3  -5  -1  421.28   30.00
   4   5   1   43.26   11.84
  -4  -5  -1   14.98    8.82
  -4  -5  -1   18.88    9.14
   4   5   1   23.34   10.45
  -4  -5  -1   16.79    9.66
   4   5   1   17.77   10.49
   4   5   1   15.39    9.28
   4   5   1    7.11    7.87
  -4  -5  -1   32.72   11.25
  -4  -5  -1   26.74   10.19
  -5  -5  -1   57.55   13.48
  -5  -5  -1   50.11   13.62
  -5  -5  -1   30.79   11.37
  -5  -5  -1   33.76   11.81
   5   5   1   30.39   12.45
   5   5   1   46.66   14.23
   5   5   1   41.17   13.05
   5   5   1   54.68   15.24
   5   5   1   38.92   14.22
  -5  -5  -1   84.31   17.60
  -6  -5  -1  644.49   44.12
   6   5   1  662.97   50.78
  -6  -5  -1  675.57   42.23
  -6  -5  -1  566.52   40.03
   6   5   1  667.68   47.12
  -6  -5  -1  708.47   41.75
   6   5   1  630.50   44.74
   6   5   1  766.47   48.17
  -7  -5  -1    4.10    9.07
  -7  -5  -1    3.04    9.12
   7   5   1    9.35   12.28
   7   5   1   20.25   13.41
   7  -6  -1   24.33   10.33
   7  -6  -1   14.41    8.52
   6  -6  -1  228.03   18.19
   6  -6  -1  212.49   20.56
   6  -6  -1  270.59   34.92
   6  -6  -1  249.69   21.42
   6  -6  -1  265.20   22.98
   5  -6  -1  117.97   14.17
   5  -6  -1  112.91   11.91
   5  -6  -1   88.02   11.40
   5  -6  -1  109.28   12.37
   5  -6  -1  115.66   12.77
   5  -6  -1   72.83   12.25
   5  -6  -1   98.76   21.28
   5  -6  -1   90.61   12.59
   4  -6  -1  165.51   24.08
   4  -6  -1  145.51   13.71
   4  -6  -1  124.36   12.79
   4  -6  -1  170.66   14.41
   4  -6  -1  154.87   15.20
   4  -6  -1  149.48   14.36
   4  -6  -1  158.08   15.52
   4  -6  -1  142.45   13.23
   3  -6  -1  165.74   15.36
   3  -6  -1  180.46   16.29
   3  -6  -1  189.98   15.03
   3  -6  -1  174.14   14.46
  -3   6   1  150.68   19.60
   3  -6  -1  184.20   14.86
  -2   6   1   33.17    7.34
  -2   6   1   18.73    8.39
   2  -6  -1   22.12    7.33
   2  -6  -1   41.11    8.23
   2  -6  -1   20.93    7.23
   2  -6  -1   27.75    7.52
   2  -6  -1   25.41    7.50
   1  -6  -1  149.51   14.79
   1  -6  -1  189.17   15.86
  -1   6   1  149.82   13.25
  -1   6   1  173.78   15.40
  -1   6   1  175.63   12.93
   1  -6  -1  137.32   14.95
   1  -6  -1  172.46   15.27
  -1   6   1  180.57   13.15
   1  -6  -1  148.11   16.29
  -1   6   1  166.96   14.19
   0  -6  -1  343.07   22.63
   0  -6  -1  295.17   21.99
   0   6   1  288.01   20.16
   0  -6  -1  305.21   23.87
   0   6   1  306.11   21.85
   0   6   1  294.30   19.95
   0   6   1  268.10   20.59
   0  -6  -1  267.73   21.54
   0  -6  -1  318.24   21.94
   0   6   1  314.30   22.57
   1   6   1   77.27   12.03
  -1  -6  -1   46.04   10.84
  -1  -6  -1   72.30   12.58
   1   6   1   32.70    9.61
   1   6   1   83.71   12.91
  -1  -6  -1   73.90   12.63
  -1  -6  -1   77.75   12.98
  -1  -6  -1   44.60   11.88
   1   6   1   49.41   11.02
   1   6   1   80.38   13.93
  -2  -6  -1   72.36   13.68
   2   6   1  104.27   16.82
   2   6   1   79.55   14.08
  -2  -6  -1   69.07   13.47
   2   6   1   87.52   14.03
   2   6   1   93.59   14.96
  -2  -6  -1   74.96   13.90
  -2  -6  -1   70.51   13.62
   2   6   1   91.46   14.78
  -2  -6  -1   81.68   15.58
   3   6   1   41.35   12.32
  -3  -6  -1   37.65   11.96
  -3  -6  -1   45.05   11.82
  -3  -6  -1   13.53    9.17
  -3  -6  -1   10.45    8.60
   3   6   1   29.53   11.50
   3   6   1   28.97    9.71
   3   6   1   50.48   12.73
   3   6   1   17.13    8.98
  -3  -6  -1   42.41   13.23
  -4  -6  -1  156.86   20.59
   4   6   1  122.37   19.97
  -4  -6  -1  169.35   23.78
  -4  -6  -1  142.08   19.93
   4   6   1  113.88   19.42
   4   6   1  144.22   20.13
  -4  -6  -1  138.70   19.44
   4   6   1  103.42   19.04
   4   6   1  116.31   21.39
  -5  -6  -1  158.82   22.85
  -5  -6  -1  176.32   25.73
  -5  -6  -1  191.20   22.90
   5   6   1  244.31   29.98
   5   6   1  137.84   22.16
  -5  -6  -1  193.43   23.54
  -5  -6  -1  207.73   24.28
   5   6   1  230.92   26.44
   5   6   1  224.95   27.38
   5   6   1  183.92   25.11
  -6  -6  -1   16.88   11.21
  -6  -6  -1   21.65   12.26
   6   6   1   13.62   12.25
  -6  -6  -1   19.95   10.92
   6   6   1   47.82   19.16
   6   6   1    4.34   10.65
  -6  -6  -1   19.38   11.25
   7   6   1  377.40   40.41
   7   6   1  393.03   43.99
  -7  -6  -1  322.96   31.96
  -7  -6  -1  358.19   32.51
   7  -7  -1   34.74   12.35
   7  -7  -1   40.41   12.95
   6  -7  -1  250.35   22.36
   6  -7  -1  289.89   24.16
   6  -7  -1  261.48   19.01
   5  -7  -1  131.02   13.77
   5  -7  -1  145.69   17.12
   5  -7  -1  125.55   14.08
   5  -7  -1  118.40   15.24
   5  -7  -1  130.38   13.75
   5  -7  -1  160.90   15.86
   5  -7  -1   99.16   14.06
   4  -7  -1   10.71    6.15
   4  -7  -1   -0.19    5.08
   4  -7  -1    4.00    6.33
   4  -7  -1   -2.09    4.67
   4  -7  -1    4.26    6.47
   4  -7  -1    4.30    5.50
   4  -7  -1   -4.24    5.18
   3  -7  -1   35.61    9.15
   3  -7  -1   40.53   10.13
   3  -7  -1   62.79   10.35
  -3   7   1   55.26   14.49
   3  -7  -1   44.02    9.55
   3  -7  -1   50.20   10.56
  -2   7   1  568.56   38.12
   2  -7  -1  605.20   32.05
   2  -7  -1  536.07   32.43
   2  -7  -1  537.03   31.39
   2  -7  -1  578.28   31.66
   2  -7  -1  589.27   34.55
  -2   7   1  567.72   30.81
   1  -7  -1 1229.46   53.61
   1  -7  -1 1243.81   55.93
   1  -7  -1 1170.27   53.93
  -1   7   1 1144.64   52.80
   1  -7  -1 1117.48   56.62
   1  -7  -1 1204.80   53.85
  -1   7   1 1217.19   50.70
  -1   7   1 1144.83   48.57
  -1   7   1 1153.63   51.13
   0   7   1  214.65   18.35
   0   7   1  253.44   20.55
   0  -7  -1  229.15   21.26
   0   7   1  249.85   19.31
   0   7   1  229.92   20.77
   0  -7  -1  240.75   21.25
   0  -7  -1  243.99   22.20
   0   7   1  236.64   21.25
   0  -7  -1  251.02   23.90
   0  -7  -1  245.25   21.35
  -1  -7  -1  296.89   25.14
  -1  -7  -1  290.92   25.45
   1   7   1  352.00   26.67
  -1  -7  -1  332.91   26.08
  -1  -7  -1  335.90   28.98
  -1  -7  -1  322.82   26.39
   1   7   1  358.92   25.95
   1   7   1  292.28   26.26
   1   7   1  373.60   26.89
   1   7   1  309.83   24.06
  -2  -7  -1   65.02   13.89
  -2  -7  -1   44.62   13.27
   2   7   1   29.94   11.35
   2   7   1   50.06   13.06
  -2  -7  -1   40.69   12.51
  -2  -7  -1   39.29   12.35
   2   7   1   40.94   12.03
  -2  -7  -1   40.65   13.70
   2   7   1   45.62   13.37
   2   7   1   46.31   13.37
  -3  -7  -1  318.59   29.67
   3   7   1  397.23   30.52
  -3  -7  -1  361.76   31.17
  -3  -7  -1  400.83   35.35
  -3  -7  -1  384.60   30.69
   3   7   1  369.77   31.53
   3   7   1  365.20   31.71
   3   7   1  349.87   30.74
  -4  -7  -1  235.02   28.94
   4   7   1  173.29   23.51
  -4  -7  -1  220.82   25.40
   4   7   1  202.55   25.69
   4   7   1  209.72   28.10
   4   7   1  237.84   26.61
  -4  -7  -1  207.56   24.77
   4   7   1  254.92   27.47
  -4  -7  -1  189.18   24.50
  -5  -7  -1    2.65    9.40
  -5  -7  -1   -8.10    8.84
   5   7   1    9.17   11.41
   5   7   1   -6.14    7.73
   5   7   1   10.65   10.33
  -5  -7  -1   -8.40    7.38
  -5  -7  -1    3.27   10.78
   5   7   1   -1.31    9.24
  -5  -7  -1    1.02    8.39
  -6  -7  -1    4.21   13.46
   6   7   1   19.09   15.15
   6   7   1   24.94   14.18
  -6  -7  -1   27.78   13.28
  -6  -7  -1   20.61   12.11
   7   7   1  190.16   32.78
  -7  -7  -1  214.84   28.74
  -7  -7  -1  220.20   28.35
   6  -8  -1    5.08    7.96
   6  -8  -1   -1.21    6.51
   6  -8  -1   -9.03    6.27
   5  -8  -1  275.80   24.43
   5  -8  -1  269.80   23.54
   5  -8  -1  329.27   22.78
   4  -8  -1  194.65   19.02
   4  -8  -1  182.52   17.33
   4  -8  -1  169.07   19.42
   4  -8  -1  186.14   18.47
   4  -8  -1  201.59   19.00
   4  -8  -1  228.12   21.11
   3  -8  -1    2.23    6.48
   3  -8  -1    7.50    6.86
   3  -8  -1    4.32    6.01
   3  -8  -1    0.00    5.33
   3  -8  -1    5.68    8.03
  -3   8   1    5.11    8.88
   2  -8  -1  842.97   46.43
  -2   8   1  820.99   41.12
  -2   8   1  846.44   50.61
   2  -8  -1  823.26   44.23
   2  -8  -1  834.86   42.39
   2  -8  -1  750.48   41.85
   2  -8  -1  776.26   41.59
  -1   8   1   32.18   10.23
  -1   8   1   27.00    8.76
   1  -8  -1   27.60   10.18
  -1   8   1   30.65    8.51
   1  -8  -1   22.59   10.06
  -1   8   1   35.42    7.91
   1  -8  -1   17.50    9.11
   1  -8  -1   49.08   12.69
   1  -8  -1   33.71    9.85
   0  -8  -1   46.60   13.02
   0  -8  -1   59.22   13.94
   0  -8  -1   40.34   11.52
   0   8   1   40.44   11.39
   0  -8  -1   36.49   11.62
   0   8   1   46.11   11.32
   0   8   1   59.78   12.05
   0  -8  -1   36.91   12.53
   0   8   1   32.69   10.87
  -1  -8  -1  206.15   22.90
   1   8   1  167.54   19.92
   1   8   1  179.49   19.78
   1   8   1  206.76   23.22
  -1  -8  -1  137.05   19.21
  -1  -8  -1  225.13   23.91
  -1  -8  -1  171.45   21.66
   1   8   1  184.05   21.14
   1   8   1  233.79   23.37
  -1  -8  -1  267.35   27.62
   2   8   1   15.97   10.34
   2   8   1   18.67   10.10
   2   8   1    2.22    8.95
  -2  -8  -1    6.54    8.15
  -2  -8  -1   41.10   13.02
  -2  -8  -1   -3.33    6.80
  -2  -8  -1   19.85   10.04
   2   8   1   21.07   11.21
   2   8   1   19.61   10.70
   3   8   1  172.69   25.03
   3   8   1  150.52   22.43
  -3  -8  -1  152.83   21.49
   3   8   1  139.41   21.01
  -3  -8  -1  158.09   22.98
  -3  -8  -1  146.17   22.91
  -3  -8  -1  103.13   22.59
   3   8   1  145.81   22.06
   3   8   1  111.10   20.08
   4   8   1   -1.34    8.97
  -4  -8  -1   -2.36    9.02
  -4  -8  -1    1.22    9.32
   4   8   1    1.40    7.84
  -4  -8  -1   -2.80    6.90
   4   8   1   11.71   12.01
  -4  -8  -1   11.19   10.27
   4   8   1   -4.75    7.75
   4   8   1    0.19    9.64
  -5  -8  -1   94.88   20.77
   5   8   1  143.89   24.88
   5   8   1  122.28   23.73
   5   8   1  121.06   26.63
   5   8   1  121.13   24.14
  -5  -8  -1  122.24   24.45
  -5  -8  -1  167.44   26.20
   6   8   1  108.95   25.62
  -6  -8  -1   77.00   20.06
  -6  -8  -1  116.67   23.62
   6  -9  -1   35.90   13.33
   6  -9  -1   34.71   12.05
   5  -9  -1    2.66    7.62
   5  -9  -1    5.03    8.41
   5  -9  -1   11.81    8.49
   4  -9  -1   97.10   17.48
   4  -9  -1  150.98   17.89
  -4   9   1  154.97   25.70
   3  -9  -1  357.05   30.15
   3  -9  -1  371.04   26.71
  -3   9   1  326.40   33.11
   3  -9  -1  300.36   25.48
   3  -9  -1  388.60   27.14
   3  -9  -1  352.87   28.60
   2  -9  -1  267.57   24.95
   2  -9  -1  236.50   22.88
  -2   9   1  171.40   25.06
   2  -9  -1  211.06   24.06
   2  -9  -1  221.53   22.22
  -2   9   1  242.92   21.52
   2  -9  -1  191.01   20.39
  -1   9   1  385.12   27.94
   1  -9  -1  336.09   27.66
  -1   9   1  346.09   33.83
   1  -9  -1  357.79   31.72
   1  -9  -1  307.32   27.60
  -1   9   1  348.25   24.74
   1  -9  -1  303.59   28.02
  -1   9   1  311.64   22.65
   1  -9  -1  349.41   28.73
   0  -9  -1   34.41   12.73
   0   9   1   34.03   10.65
   0  -9  -1   17.23    9.46
   0   9   1   27.22   10.25
   0   9   1    6.97    7.23
   0   9   1   28.75   11.46
   0  -9  -1    7.94    9.31
   0  -9  -1   18.19   10.47
   0  -9  -1   32.71   12.07
   1   9   1   -1.15    7.30
   1   9   1    2.35    8.19
  -1  -9  -1   10.87    8.42
   1   9   1    5.40    8.55
  -1  -9  -1   -0.62    8.75
  -1  -9  -1   -7.09    7.96
  -1  -9  -1   24.21   11.91
  -1  -9  -1   -1.04    7.29
   1   9   1    0.44    7.67
   2   9   1  580.20   41.27
   2   9   1  587.10   44.32
   2   9   1  566.86   38.79
   2   9   1  539.23   41.01
   2   9   1  527.96   39.63
  -2  -9  -1  603.52   42.73
  -2  -9  -1  630.01   47.15
  -2  -9  -1  605.65   43.32
  -2  -9  -1  597.73   41.82
  -3  -9  -1  256.66   29.51
   3   9   1  250.82   29.72
  -3  -9  -1  266.33   31.40
   3   9   1  267.07   32.96
  -3  -9  -1  258.56   29.17
   3   9   1  272.10   28.52
  -3  -9  -1  255.40   33.42
   3   9   1  233.65   29.22
   3   9   1  313.23   32.22
  -4  -9  -1   12.86   11.46
   4   9   1   10.43   11.89
   4   9   1   10.29   11.05
   4   9   1   19.22   14.38
  -4  -9  -1    8.18   12.10
   4   9   1  -14.62   10.58
   5   9   1  139.00   27.19
  -5  -9  -1  161.27   27.19
  -6  -9  -1  -10.34   12.15
   5 -10  -1   38.77   12.82
   5 -10  -1   29.96   13.50
   5 -10  -1   25.57   11.83
  -4  10   1  225.53   31.60
   4 -10  -1  237.13   26.58
   3 -10  -1   61.51   14.57
   3 -10  -1   72.29   17.43
  -3  10   1   76.56   19.77
   2 -10  -1   55.77   14.92
   2 -10  -1   65.56   14.95
   2 -10  -1   37.29   13.75
   2 -10  -1   39.22   13.16
  -2  10   1   31.82   10.99
  -2  10   1   18.85   12.82
  -1  10   1  722.49   37.33
  -1  10   1  763.01   44.05
   1 -10  -1  698.25   48.14
   1 -10  -1  652.81   44.07
  -1  10   1  687.54   35.33
   1 -10  -1  658.41   43.92
   1 -10  -1  711.50   44.27
  -1  10   1  766.06   52.05
   0  10   1    1.65    9.41
   0  10   1   -2.33    6.73
   0 -10  -1   -8.60    7.60
   0 -10  -1    3.27   10.16
   0  10   1    5.30    7.37
   0 -10  -1    1.43    8.46
   0  10   1    0.84    6.92
   0 -10  -1   -3.39    9.95
  -1 -10  -1   16.86   12.07
   1  10   1   26.09   10.79
  -1 -10  -1   14.59   11.28
   1  10   1   28.81   13.49
   1  10   1    5.88    8.46
   1  10   1    4.65    8.51
  -1 -10  -1    1.65    9.03
   2  10   1   67.07   17.54
   2  10   1   76.50   18.68
  -2 -10  -1   72.16   18.70
   2  10   1   47.01   17.66
  -2 -10  -1   52.64   18.22
  -2 -10  -1   91.42   19.98
   2  10   1   44.41   15.86
  -3 -10  -1   24.78   14.12
   3  10   1   25.44   13.99
   3  10   1   60.04   18.00
  -3 -10  -1   63.98   17.85
   3  10   1   88.18   21.81
   4  10   1  201.46   31.06
   4  10   1  307.91   36.22
  -4 -10  -1  180.26   29.58
  -5 -10  -1   20.31   14.94
   5  10   1    3.29   14.19
  -4  11   1   23.22   16.27
   4 -11  -1   25.53   13.69
  -3  11   1   22.45   14.41
   3 -11  -1    7.13   11.60
  -2  11   1   49.31   13.69
   2 -11  -1   95.96   19.06
  -2  11   1   21.14   14.86
   2 -11  -1   46.56   16.28
  -1  11   1    5.38   11.41
   1 -11  -1    3.04   10.71
   1 -11  -1   -4.37   11.95
   1 -11  -1    1.22   10.17
  -1  11   1   -2.65    6.20
   1 -11  -1   -0.44    9.75
  -1  11   1    0.58    7.80
   0  11   1  319.23   27.40
   0  11   1  324.02   32.39
   0 -11  -1  331.85   33.78
   0 -11  -1  408.49   40.02
   0  11   1  351.55   29.43
   0 -11  -1  367.26   34.12
   1  11   1  140.22   24.82
  -1 -11  -1   75.88   19.78
   1  11   1  158.70   22.46
   1  11   1  126.78   21.81
   1  11   1  172.16   25.46
  -1 -11  -1  105.98   21.84
   2  11   1    5.72   12.12
  -2 -11  -1    7.14   11.26
  -2 -11  -1   10.08   12.64
   2  11   1   14.71   13.21
   2  11   1    3.19   10.75
  -3 -11  -1  227.82   32.19
   3  11   1  275.73   34.26
  -3 -11  -1  207.63   31.58
   3  11   1  237.46   32.03
  -4 -11  -1   39.97   18.81
  -2  12   1   49.52   19.65
   2 -12  -1   35.18   15.80
   1 -12  -1   54.09   18.37
  -1  12   1   47.17   10.25
  -1  12   1   37.82   18.14
   0 -12  -1  110.16   23.33
   0 -12  -1   88.87   21.03
   0  12   1  103.68   22.36
   0  12   1   84.20   17.35
  -1 -12  -1  -14.42   11.40
  -1 -12  -1   -3.85   10.69
   1  12   1   -2.28   10.28
   1  12   1    4.29   11.82
  -2 -12  -1  145.15   27.40
  -2 -12  -1  187.81   30.77
   2  12   1  145.99   28.20
   2  12   1  199.03   29.66
  -3 -11   2   16.91   14.67
   3  11  -2   15.31   15.48
  -2 -11   2    1.26   12.95
   2  11  -2    3.07    9.70
   2  11  -2    1.29   11.45
  -2 -11   2    0.63   13.52
  -1 -11   2  443.35   40.77
   1  11  -2  526.55   42.29
  -1 -11   2  453.06   42.46
   1  11  -2  464.44   36.54
   0  11  -2  419.99   35.41
   0 -11   2  377.46   40.02
   0 -11   2  316.72   34.87
   0  11  -2  411.64   28.45
  -1  11  -2   10.83   12.19
   1 -11   2   -7.03   11.00
   1 -11   2   -2.95   10.65
   2 -11   2  135.22   24.10
  -2  11  -2  105.91   21.18
  -3  11  -2   72.92   19.25
   3 -11   2   66.49   18.42
   4  10  -2  138.88   27.83
  -4 -10   2  143.61   27.50
  -4 -10   2  151.41   29.25
  -3 -10   2   14.39   14.08
  -3 -10   2   20.27   13.89
   3  10  -2   21.40   13.76
   3  10  -2   23.69   14.03
   2  10  -2   93.40   20.96
  -2 -10   2   96.99   22.08
   2  10  -2   92.78   19.84
  -2 -10   2   94.25   21.63
  -1 -10   2  297.50   32.29
  -1 -10   2  418.16   37.14
   1  10  -2  379.58   34.92
   1  10  -2  361.83   31.02
  -1 -10   2  435.26   41.05
   1  10  -2  327.67   32.23
   0 -10   2   14.23   13.54
   0  10  -2   11.82    8.62
   0 -10   2    6.93    9.08
   0 -10   2    3.23   11.11
   0 -10   2    4.06   10.11
   0  10  -2   -1.08    7.77
   1 -10   2   76.03   16.17
   1 -10   2   70.86   17.22
   1 -10   2   83.67   18.27
  -1  10  -2   70.48   17.10
   1 -10   2  102.44   20.53
  -1  10  -2   97.14   16.24
  -2  10  -2   90.19   18.01
   2 -10   2  111.72   18.71
  -2  10  -2  101.23   14.67
   2 -10   2  103.11   19.45
   3 -10   2   38.95   13.51
  -3  10  -2   41.75   14.40
   4 -10   2  146.73   20.54
  -5  -9   2   37.07   17.71
   5   9  -2   29.28   15.81
  -5  -9   2   43.18   18.28
  -4  -9   2   -5.60    7.51
  -4  -9   2   19.73   14.79
   4   9  -2   13.69   12.71
   4   9  -2   22.55   14.47
   4   9  -2   21.02   17.24
  -4  -9   2    7.56   12.35
   3   9  -2  344.55   37.56
  -3  -9   2  277.22   32.79
   3   9  -2  318.41   33.70
  -3  -9   2  378.20   36.75
   3   9  -2  331.19   33.71
   3   9  -2  382.16   36.16
  -2  -9   2  255.28   32.91
   2   9  -2  250.37   27.95
   2   9  -2  286.61   31.40
  -2  -9   2  296.65   30.81
   2   9  -2  267.35   28.07
  -2  -9   2  246.88   28.78
   2   9  -2  241.74   26.91
  -1  -9   2   42.22   13.79
  -1  -9   2   16.26   11.60
   1   9  -2   67.24   15.58
   1   9  -2   51.38   13.60
  -1  -9   2   60.06   16.04
   1   9  -2   75.57   17.40
   0   9  -2  313.81   23.98
   0  -9   2  328.59   29.14
   0  -9   2  278.12   30.18
   0   9  -2  287.21   25.17
   0  -9   2  280.91   28.07
   0   9  -2  319.56   27.47
   0  -9   2  290.59   27.22
  -1   9  -2   68.58   15.13
   1  -9   2   82.05   15.65
   1  -9   2   64.07   14.52
  -1   9  -2   58.16   12.46
   1  -9   2   48.59   12.67
   1  -9   2   75.19   17.37
   2  -9   2   35.84   11.94
   2  -9   2   25.86   11.76
  -2   9  -2   34.76    9.31
  -2   9  -2   32.70   12.12
   2  -9   2   26.75   11.17
   2  -9   2   34.11   10.45
   2  -9   2   32.00   11.35
   3  -9   2  395.49   25.77
   3  -9   2  411.58   28.93
  -3   9  -2  399.76   32.14
   3  -9   2  377.84   29.94
   3  -9   2  407.91   29.71
   4  -9   2   75.37   14.04
   5  -9   2   32.36   10.85
  -6  -8   2   26.35   16.31
  -5  -8   2  168.05   28.31
  -5  -8   2  204.01   29.26
   5   8  -2  164.20   28.38
  -4  -8   2   49.14   17.40
  -4  -8   2   56.99   17.06
   4   8  -2   78.46   19.42
   4   8  -2   40.39   16.68
   4   8  -2   37.24   15.20
   4   8  -2   43.24   17.06
  -4  -8   2   55.04   18.34
  -3  -8   2  364.05   38.16
   3   8  -2  461.01   41.13
   3   8  -2  479.80   37.75
  -3  -8   2  393.66   35.65
   3   8  -2  432.70   36.34
  -3  -8   2  365.21   34.48
   3   8  -2  403.02   35.49
  -3  -8   2  443.97   38.03
   2   8  -2   64.03   15.30
  -2  -8   2   61.91   16.33
   2   8  -2   75.92   17.78
  -2  -8   2   38.14   15.33
  -2  -8   2   51.99   14.59
  -2  -8   2   63.92   16.38
   2   8  -2   63.21   15.52
   2   8  -2   35.08   12.11
  -1  -8   2    7.12    9.61
   1   8  -2    3.55    7.90
   1   8  -2    9.01    7.47
  -1  -8   2    2.84    7.93
  -1  -8   2    9.78   10.29
  -1  -8   2   -8.12    5.90
  -1  -8   2   10.52   10.05
   1   8  -2    6.27    7.10
   0  -8   2  690.54   39.42
   0   8  -2  646.53   38.04
   0  -8   2  600.74   41.24
   0  -8   2  614.31   38.93
   0   8  -2  603.36   36.25
   0  -8   2  543.40   37.43
   0   8  -2  622.47   34.74
   0  -8   2  599.53   39.42
   1  -8   2    1.78    7.81
  -1   8  -2    4.71    6.12
   1  -8   2    6.07    8.70
  -1   8  -2   10.50    7.94
  -1   8  -2    2.99    3.25
   1  -8   2    0.05    7.01
   1  -8   2    5.62    5.70
   1  -8   2    9.42    7.98
  -2   8  -2   64.63   10.12
  -2   8  -2   48.68   12.41
   2  -8   2   46.64   10.39
   2  -8   2   84.50   13.04
   2  -8   2   65.44   13.58
   2  -8   2   55.17   11.88
   2  -8   2   51.75   12.30
   3  -8   2   60.56   11.19
   3  -8   2   90.32   13.56
   3  -8   2   69.49   10.13
   3  -8   2   92.62   13.56
   3  -8   2   85.92   12.54
  -3   8  -2   98.93   16.02
   4  -8   2  311.63   22.76
   4  -8   2  322.00   21.31
   4  -8   2  336.78   23.46
   4  -8   2  312.76   21.70
   4  -8   2  292.80   17.35
   5  -8   2  174.62   16.31
   5  -8   2  152.24   15.41
   6  -8   2   40.59    9.01
   6  -8   2   24.48    7.64
   6   7  -2   95.82   24.18
  -6  -7   2  125.03   26.05
  -6  -7   2   91.37   22.79
  -6  -7   2  118.86   23.24
  -5  -7   2   -5.99    8.39
   5   7  -2   10.40   12.78
  -5  -7   2   27.02   13.57
  -5  -7   2    8.39   12.22
  -5  -7   2    0.05   10.79
   5   7  -2    1.02    9.03
   5   7  -2   -3.97    8.88
   4   7  -2  432.82   36.95
   4   7  -2  465.73   39.42
   4   7  -2  429.77   41.29
  -4  -7   2  398.10   36.08
  -4  -7   2  469.03   41.66
   4   7  -2  475.57   37.82
  -4  -7   2  425.00   37.29
  -4  -7   2  416.52   36.88
  -4  -7   2  407.20   36.08
   3   7  -2  286.35   30.94
  -3  -7   2  259.22   27.16
   3   7  -2  261.17   27.05
  -3  -7   2  261.01   27.61
   3   7  -2  256.90   27.36
   3   7  -2  257.80   27.08
  -3  -7   2  342.40   33.44
  -3  -7   2  237.09   26.81
  -3  -7   2  265.20   27.75
  -2  -7   2   11.63    8.78
   2   7  -2   37.70   11.93
   2   7  -2   37.94   12.25
  -2  -7   2   24.31   11.36
  -2  -7   2   -5.44    7.39
  -2  -7   2   15.38   10.10
   2   7  -2   16.32    9.87
   2   7  -2   24.20   11.45
  -2  -7   2   18.61    9.68
  -1  -7   2  332.52   27.31
  -1  -7   2  297.41   28.78
  -1  -7   2  353.67   27.53
   1   7  -2  300.65   25.08
   1   7  -2  292.79   24.00
   1   7  -2  320.08   27.38
  -1  -7   2  272.44   25.63
  -1  -7   2  271.26   24.63
   0  -7   2   34.86   11.25
   0   7  -2   28.90    9.34
   0  -7   2   22.43    8.31
   0   7  -2   24.13    7.87
   0  -7   2   33.49   10.90
   0   7  -2   35.37    9.98
   0  -7   2   16.09   10.15
   0  -7   2   36.00   10.15
  -1   7  -2  374.92   27.25
   1  -7   2  456.86   28.42
  -1   7  -2  423.09   18.95
   1  -7   2  361.40   27.61
   1  -7   2  409.21   26.62
  -1   7  -2  407.32   25.43
  -1   7  -2  411.92   20.83
   1  -7   2  420.11   27.68
   1  -7   2  403.86   26.88
  -1   7  -2  418.63   18.67
   2  -7   2  257.48   20.08
   2  -7   2  291.49   20.04
  -2   7  -2  280.32   17.93
  -2   7  -2  260.78   22.36
   2  -7   2  298.90   21.15
   2  -7   2  312.20   21.84
   2  -7   2  276.69   22.11
   3  -7   2   76.48    9.11
   3  -7   2   69.47   10.07
   3  -7   2   72.86   10.68
   3  -7   2   85.94   10.61
   3  -7   2   56.77   10.41
   4  -7   2  464.43   26.21
   4  -7   2  451.33   23.59
   4  -7   2  461.87   25.06
   4  -7   2  499.82   24.84
   4  -7   2  506.20   20.90
   5  -7   2   31.98    7.27
   5  -7   2   35.36    7.62
   5  -7   2   37.35    7.30
   5  -7   2   42.27    7.11
   6  -7   2   24.45    6.83
   6  -7   2   12.54    5.12
   6  -7   2    5.50   13.43
   7   6  -2   79.15   22.67
  -7  -6   2   97.56   21.69
  -6  -6   2   29.49   13.49
   6   6  -2    0.30   10.96
  -6  -6   2    8.68   12.58
  -6  -6   2   17.02   12.34
   6   6  -2   -1.36   13.75
  -5  -6   2  539.08   41.08
  -5  -6   2  505.81   40.96
  -5  -6   2  576.78   40.99
   5   6  -2  570.87   43.00
   5   6  -2  594.18   44.18
  -5  -6   2  454.39   43.51
  -5  -6   2  552.44   42.03
   5   6  -2  542.83   46.44
   4   6  -2  111.15   20.31
  -4  -6   2  148.07   21.22
   4   6  -2  106.74   21.02
   4   6  -2  132.24   20.73
  -4  -6   2  164.82   25.07
   4   6  -2  143.40   23.78
  -4  -6   2   92.63   18.72
  -4  -6   2   89.74   18.46
  -4  -6   2  108.48   19.09
  -3  -6   2    3.30    8.16
   3   6  -2    7.12    9.79
   3   6  -2   -3.93    7.15
  -3  -6   2   -1.37    7.25
  -3  -6   2   -2.36    7.61
  -3  -6   2   17.13   10.60
   3   6  -2    0.72    6.56
   3   6  -2   -5.03    5.78
  -3  -6   2    0.33    7.22
   2   6  -2  596.36   36.83
  -2  -6   2  560.16   38.66
  -2  -6   2  555.80   36.15
  -2  -6   2  624.69   37.68
   2   6  -2  598.18   36.89
   2   6  -2  575.20   38.67
  -2  -6   2  547.07   36.44
   2   6  -2  539.30   35.74
   1   6  -2  559.92   34.11
  -1  -6   2  595.05   35.48
  -1  -6   2  493.62   33.91
  -1  -6   2  617.45   35.55
   1   6  -2  558.60   33.38
  -1  -6   2  572.72   37.36
   1   6  -2  575.33   33.49
   1   6  -2  596.68   36.47
  -1  -6   2  660.15   36.05
   0  -6   2  671.92   36.73
   0   6  -2  682.41   35.46
   0  -6   2  635.48   38.05
   0   6  -2  641.37   33.40
   0   6  -2  638.60   35.35
   0  -6   2  700.03   37.11
   0  -6   2  688.26   36.33
   0  -6   2  681.32   35.80
  -1   6  -2  415.86   18.56
  -1   6  -2  410.96   26.28
   1  -6   2  429.75   25.65
  -1   6  -2  421.70   20.34
   1  -6   2  467.83   26.79
  -1   6  -2  443.03   24.75
  -1   6  -2  444.62   18.59
   1  -6   2  432.33   25.34
   1  -6   2  415.02   27.11
   1  -6   2  436.12   25.40
   2  -6   2   85.24   10.11
   2  -6   2   62.89   10.10
   2  -6   2   76.66    9.88
  -2   6  -2   59.41    7.48
  -2   6  -2  114.48   13.70
   2  -6   2   75.90   10.12
   2  -6   2   70.79    9.33
   3  -6   2  485.91   25.11
   3  -6   2  484.93   23.33
   3  -6   2  489.13   22.92
   3  -6   2  457.65   22.06
   3  -6   2  486.19   23.94
   4  -6   2  455.06   20.70
   4  -6   2  426.15   19.37
   4  -6   2  432.80   21.11
   4  -6   2  426.45   19.89
   5  -6   2  104.98   20.34
   6  -6   2  118.21   23.50
   6  -6   2   98.06    9.05
   7  -6   2    0.57    5.42
   7   5  -2   -8.43   10.56
  -7  -5   2   -3.20   10.02
  -7  -5   2    2.98   11.16
  -6  -5   2   88.63   19.35
  -6  -5   2   71.61   18.38
  -6  -5   2   77.94   21.48
  -6  -5   2   63.85   15.77
   6   5  -2   60.30   19.02
   6   5  -2   92.26   21.04
  -5  -5   2  367.36   32.82
  -5  -5   2  372.71   31.91
  -5  -5   2  355.98   33.09
   5   5  -2  462.02   38.70
  -5  -5   2  343.75   34.91
   5   5  -2  448.16   36.13
   5   5  -2  426.85   36.14
  -5  -5   2  395.87   32.97
   5   5  -2  380.10   37.27
   4   5  -2   57.46   14.53
  -4  -5   2  101.77   20.00
   4   5  -2  100.31   19.37
   4   5  -2  128.69   20.34
  -4  -5   2  112.50   18.13
  -4  -5   2   95.89   17.81
  -4  -5   2   76.41   15.88
  -4  -5   2   75.41   16.27
   4   5  -2  107.26   18.41
  -3  -5   2   52.12   12.87
  -3  -5   2   57.08   12.94
  -3  -5   2   35.30   11.65
  -3  -5   2   62.53   14.19
   3   5  -2   42.63   12.75
   3   5  -2   50.94   12.75
   3   5  -2   28.28    9.96
  -3  -5   2   58.79   13.00
  -3  -5   2   52.93   13.71
  -2  -5   2 1038.04   51.21
  -2  -5   2 1131.37   53.00
  -2  -5   2 1130.64   55.75
   2   5  -2  970.65   52.94
  -2  -5   2 1002.99   50.85
  -2  -5   2 1095.99   53.16
   2   5  -2 1032.10   51.03
   2   5  -2  988.59   50.86
   2   5  -2 1040.31   51.58
  -1  -5   2  397.13   25.98
   1   5  -2  345.06   24.13
  -1  -5   2  360.78   25.15
  -1  -5   2  366.25   25.27
   1   5  -2  396.87   25.61
   1   5  -2  395.46   25.44
  -1  -5   2  399.11   26.43
   1   5  -2  405.99   27.56
  -1  -5   2  392.86   27.81
   0   5  -2 1763.98   67.60
   0  -5   2 1616.47   66.03
   0  -5   2 1811.75   67.25
   0  -5   2 1589.76   69.45
   0  -5   2 1511.97   66.27
   0  -5   2 1626.65   67.68
   0   5  -2 1648.44   66.04
   0   5  -2 1716.03   65.21
   1  -5   2  563.26   30.23
   1  -5   2  586.75   29.04
  -1   5  -2  593.30   23.87
  -1   5  -2  593.69   30.16
   1  -5   2  560.76   29.15
  -1   5  -2  578.28   27.64
   1  -5   2  560.25   28.16
  -1   5  -2  575.66   22.14
  -2   5  -2    3.74    4.52
   2  -5   2   10.33    4.05
   2  -5   2    2.35    3.95
   2  -5   2    7.66    4.13
  -2   5  -2    2.49    2.81
   2  -5   2    8.35    4.25
   3  -5   2  443.84   18.51
   3  -5   2  420.71   18.74
   3  -5   2  418.60   19.63
   3  -5   2  442.39   18.46
   4  -5   2   10.13    8.22
   5  -5   2  512.21   37.48
   6  -5   2  230.72   13.29
   6  -5   2  238.28   28.86
   6  -5   2  205.51   13.63
   7  -5   2   64.23   10.04
   7  -5   2   46.99   20.98
  -7  -4   2   18.17   12.15
   7   4  -2   52.78   20.69
   7   4  -2   58.34   19.73
  -7  -4   2   17.92   12.26
  -6  -4   2  618.01   45.41
   6   4  -2  620.32   44.27
  -6  -4   2  601.03   39.17
   6   4  -2  626.01   48.37
  -6  -4   2  585.68   39.93
  -6  -4   2  570.40   40.85
  -6  -4   2  564.52   41.78
   6   4  -2  510.51   41.97
  -5  -4   2   10.09    9.87
   5   4  -2   16.81   11.25
  -5  -4   2    7.92    8.19
  -5  -4   2    2.77    6.22
   5   4  -2   10.76    8.76
  -5  -4   2   24.46   12.20
   5   4  -2   19.32   11.16
  -5  -4   2   10.19    8.29
   5   4  -2   13.73    9.63
   4   4  -2  244.03   24.84
  -4  -4   2  254.63   23.95
   4   4  -2  246.53   24.38
   4   4  -2  252.75   25.81
  -4  -4   2  210.53   22.86
  -4  -4   2  243.51   26.16
  -4  -4   2  288.24   24.62
   4   4  -2  237.65   26.05
  -4  -4   2  244.66   24.12
  -3  -4   2   25.05    9.91
   3   4  -2   46.40   11.28
   3   4  -2   36.75   11.12
   3   4  -2   37.62   11.07
  -3  -4   2   37.96   11.67
  -3  -4   2   50.36   11.62
  -3  -4   2   44.71   10.67
  -3  -4   2   35.59    9.92
   3   4  -2   43.22   11.41
  -3  -4   2   47.15   12.10
  -2  -4   2   -7.06    3.81
   2   4  -2    3.70    6.24
   2   4  -2    1.57    4.43
  -2  -4   2    5.74    6.50
  -2  -4   2    4.11    5.94
  -2  -4   2   -5.97    4.14
   2   4  -2    5.76    5.88
  -2  -4   2    4.15    5.75
   2   4  -2    3.92    5.57
  -2  -4   2    9.80    6.27
  -1  -4   2 1414.32   62.77
  -1  -4   2 1470.16   60.12
   1   4  -2 1447.15   62.07
   1   4  -2 1472.70   59.87
  -1  -4   2 1434.32   60.72
  -1  -4   2 1470.46   59.85
  -1  -4   2 1443.93   60.24
   1   4  -2 1323.57   59.05
   1   4  -2 1524.84   60.50
   0  -4   2  310.53   19.71
   0  -4   2  310.98   19.76
   0   4  -2  337.04   19.58
   0  -4   2  297.71   19.13
   0   4  -2  292.17   18.04
   0  -4   2  349.21   21.95
   0   4  -2  306.48   19.64
   1  -4   2   78.07    9.27
  -1   4  -2   80.25    8.18
  -1   4  -2   93.55    9.42
  -1   4  -2   89.45    5.11
   1  -4   2   91.71    9.05
   1  -4   2   85.48    8.71
   1  -4   2   78.88    8.71
   2  -4   2  944.39   35.39
   2  -4   2  916.15   36.34
   2  -4   2  965.33   35.72
   3  -4   2    8.07    6.37
   4  -4   2 1227.94   58.81
   5  -4   2   46.40   13.39
   6  -4   2   10.57    5.41
   6  -4   2   -2.27    3.97
   6  -4   2   12.59   10.72
   6  -4   2   -1.06    3.80
   6  -4   2    0.93    3.93
   7  -4   2  446.68   43.49
   7  -4   2  429.12   27.05
   7  -4   2  522.35   28.56
   7   3  -2   43.06   16.39
  -7  -3   2   46.20   15.58
  -7  -3   2   35.98   13.51
   7   3  -2   54.41   19.46
  -7  -3   2   44.34   13.31
  -6  -3   2   44.19   15.90
   6   3  -2   63.44   16.48
  -6  -3   2   54.77   13.51
  -6  -3   2   36.31   13.13
   6   3  -2   40.13   14.64
   6   3  -2   62.15   15.45
  -6  -3   2   45.19   12.55
  -6  -3   2   19.81   11.52
   5   3  -2  139.55   21.46
  -5  -3   2  144.33   20.35
  -5  -3   2  128.69   18.86
  -5  -3   2  115.28   16.65
  -5  -3   2  122.97   17.94
   5   3  -2  138.99   19.95
  -5  -3   2  165.35   18.85
   5   3  -2  103.51   19.73
   5   3  -2  133.35   19.39
  -4  -3   2  659.57   38.13
   4   3  -2  594.02   39.31
   4   3  -2  641.33   41.85
  -4  -3   2  742.60   42.53
  -4  -3   2  630.46   38.47
   4   3  -2  671.36   38.94
   4   3  -2  681.85   40.09
  -4  -3   2  743.27   38.88
  -4  -3   2  671.67   38.67
   3   3  -2   46.77   10.61
  -3  -3   2   49.04   11.24
   3   3  -2   62.30   12.04
   3   3  -2   65.42   13.18
  -3  -3   2   69.09   13.50
  -3  -3   2   72.46   12.22
   3   3  -2   70.03   12.98
  -3  -3   2   64.98   12.20
  -3  -3   2   66.05   11.81
  -3  -3   2   71.30   12.02
   2   3  -2 1790.77   73.37
  -2  -3   2 1806.22   72.90
   2   3  -2 1891.82   74.64
  -2  -3   2 1788.98   73.33
  -2  -3   2 1843.45   72.88
  -2  -3   2 1837.13   72.34
  -1  -3   2  421.14   24.55
  -1  -3   2  451.94   26.25
   1   3  -2  413.84   23.67
  -1  -3   2  439.77   24.28
  -1  -3   2  410.48   23.90
   1   3  -2  422.72   25.30
   1   3  -2  436.06   24.15
   0  -3   2  241.14   17.02
   0   3  -2  303.34   16.82
   0  -3   2  284.33   16.67
   0   3  -2  273.17   16.80
   0  -3   2  301.50   17.05
   0  -3   2  266.86   16.83
   0   3  -2  273.97   15.92
  -1   3  -2   63.69    6.67
   1  -3   2   59.23    6.40
   1  -3   2   73.40    7.37
  -1   3  -2   68.97    6.49
   1  -3   2   77.33    7.17
   2  -3   2  252.51   16.24
   2  -3   2  229.98   10.77
   3  -3   2  253.44   18.98
   4  -3   2   13.59    7.31
   5  -3   2   51.49    6.21
   5  -3   2   49.48    6.27
   5  -3   2   59.89    5.93
   5  -3   2   57.13    6.28
   5  -3   2   45.55   12.82
   5  -3   2   61.01    5.90
   6  -3   2   72.50    9.15
   6  -3   2   75.48    9.83
   6  -3   2   86.94   10.40
   6  -3   2   77.14    7.91
   6  -3   2   84.88    9.66
   6  -3   2   71.93   17.45
   6  -3   2   74.62    9.75
   7  -3   2  286.81   18.35
   7  -3   2  277.16   22.56
   7  -3   2  316.28   23.01
   7  -3   2  317.36   35.84
   8  -3   2  148.62   19.58
   8   2  -2  200.34   32.85
  -8  -2   2  231.31   22.31
   8   2  -2  282.18   34.28
  -7  -2   2   78.73   14.92
   7   2  -2   72.57   19.90
  -7  -2   2   84.36   18.63
   7   2  -2   76.35   19.33
  -7  -2   2   90.59   14.55
   6   2  -2    5.74    7.93
  -6  -2   2    6.18    7.53
  -6  -2   2    6.75    6.94
   6   2  -2   11.23    9.96
  -6  -2   2    3.21    7.60
   6   2  -2   -9.23    6.84
  -6  -2   2   11.18    9.02
   5   2  -2  408.63   30.27
  -5  -2   2  418.69   28.15
  -5  -2   2  388.30   30.61
  -5  -2   2  461.93   30.05
   5   2  -2  403.79   32.66
   5   2  -2  403.11   32.26
  -5  -2   2  391.47   27.09
  -5  -2   2  420.73   29.99
   5   2  -2  428.19   31.18
  -4  -2   2   48.31   10.28
   4   2  -2   49.22   12.46
  -4  -2   2   30.01    9.54
  -4  -2   2   28.63    9.77
   4   2  -2   36.92   10.43
  -4  -2   2   36.45   10.52
   4   2  -2   52.79   12.63
  -4  -2   2   34.35    9.40
   4   2  -2   38.41   10.87
  -4  -2   2   22.01    8.97
  -3  -2   2 1065.57   51.36
   3   2  -2 1167.69   52.45
  -3  -2   2 1164.95   51.26
   3   2  -2 1173.09   53.90
  -3  -2   2 1186.31   51.76
   3   2  -2 1268.15   53.26
   3   2  -2 1191.30   55.34
  -3  -2   2 1171.36   54.02
  -3  -2   2  986.31   50.10
   2   2  -2 1470.10   60.53
   2   2  -2 1551.43   61.74
  -2  -2   2 1588.07   63.78
  -2  -2   2 1518.35   60.05
  -2  -2   2 1514.39   60.29
  -2  -2   2 1454.70   60.08
  -2  -2   2 1440.46   59.08
   2   2  -2 1419.41   62.15
  -2  -2   2 1443.54   60.98
  -1  -2   2  358.23   21.49
  -1  -2   2  332.86   20.42
   1   2  -2  373.07   21.55
  -1  -2   2  358.24   20.10
   1   2  -2  328.91   19.30
  -1  -2   2  361.50   19.98
  -1  -2   2  371.35   20.43
   0   2  -2  214.89   13.63
   0  -2   2  191.71   13.57
   0   2  -2  226.53   13.03
   0   2  -2  224.63   13.09
   0  -2   2  229.10   13.37
   0   2  -2  222.70   13.19
   0  -2   2  208.32   13.11
   1  -2   2  201.14   10.33
   1  -2   2  202.32   10.89
   1  -2   2  208.18   10.84
   1  -2   2  210.80   10.71
  -1   2  -2  199.13   10.38
   1  -2   2  205.43   11.13
   2  -2   2  824.68   35.43
   2  -2   2  846.03   29.96
   4  -2   2    2.01    2.42
   4  -2   2    4.02    2.67
   4  -2   2    5.67    2.86
   4  -2   2    4.11    2.35
   5  -2   2  682.79   29.57
   5  -2   2  653.28   29.00
   5  -2   2  702.98   29.73
   5  -2   2  710.75   29.33
   5  -2   2  696.86   30.48
   5  -2   2  664.15   30.86
   6  -2   2    1.60    6.85
   6  -2   2    3.13    5.11
   6  -2   2    8.15    5.95
   6  -2   2   20.54    7.49
   6  -2   2    4.81    4.73
   7  -2   2    4.47    6.80
   7  -2   2    4.18    7.51
   7  -2   2   16.35    9.71
   7  -2   2   -1.74    7.38
   8  -2   2  112.30   18.83
   8  -2   2   72.90   13.68
   8   1  -2   47.10   19.46
  -8  -1   2   40.73    9.67
   7   1  -2  133.58   22.06
   7   1  -2   94.09   21.45
  -7  -1   2   58.33   15.94
  -7  -1   2   75.58   12.96
  -7  -1   2   73.73   12.47
  -7  -1   2   85.36   12.38
  -6  -1   2  177.78   21.19
   6   1  -2  203.03   25.08
  -6  -1   2  179.97   16.86
   6   1  -2  198.39   22.50
  -6  -1   2  172.34   17.31
  -6  -1   2  180.07   18.34
   6   1  -2  202.79   24.19
   6   1  -2  188.75   22.66
  -5  -1   2    1.54    7.06
   5   1  -2    5.46    8.40
   5   1  -2    7.44    7.72
   5   1  -2   -4.01    5.83
  -5  -1   2   21.96    8.93
  -5  -1   2    3.60    6.10
   5   1  -2    5.77    8.97
  -5  -1   2   10.08    6.60
  -5  -1   2   14.81    7.90
  -5  -1   2   13.78    8.10
   5   1  -2    5.38    8.26
   4   1  -2  587.31   33.29
  -4  -1   2  535.36   32.65
  -4  -1   2  618.93   31.91
   4   1  -2  567.89   32.51
   4   1  -2  511.46   33.04
  -4  -1   2  512.35   29.26
   4   1  -2  525.05   31.64
  -4  -1   2  588.18   33.05
  -4  -1   2  576.17   31.99
  -4  -1   2  546.22   30.34
   4   1  -2  527.60   34.16
  -3  -1   2 1002.18   43.18
   3   1  -2  993.74   45.60
  -3  -1   2  931.73   43.44
  -3  -1   2  991.54   42.38
  -3  -1   2  935.09   45.30
  -3  -1   2  978.48   43.36
  -3  -1   2  965.57   43.89
   3   1  -2  891.11   45.25
   3   1  -2  990.30   44.57
   3   1  -2  993.40   43.89
   3   1  -2  949.75   43.87
   2   1  -2 1784.07   68.75
  -2  -1   2 1753.68   68.19
   2   1  -2 1758.02   67.26
  -2  -1   2 1688.29   69.12
   2   1  -2 1842.22   68.24
  -2  -1   2 1822.16   67.61
   2   1  -2 1872.06   67.53
  -2  -1   2 1609.82   66.54
  -2  -1   2 1750.21   66.23
   2   1  -2 1827.20   70.28
  -1  -1   2 9297.59  316.89
  -1  -1   2 9063.73  317.75
  -1  -1   2 9964.30  320.65
   1   1  -2 9804.77  317.59
   1   1  -2 9304.99  313.58
   1   1  -2 9831.96  313.65
  -1  -1   2 9970.69  314.38
  -1  -1   2 9997.53  313.86
   0  -1   2 1169.86   42.18
   0   1  -2 1075.45   40.87
   0  -1   2 1080.59   42.53
   0  -1   2 1154.87   41.58
   0  -1   2 1098.54   41.21
   0   1  -2 1083.58   41.51
   0  -1   2 1093.51   40.73
   0   1  -2 1066.77   40.34
   0   1  -2 1107.10   42.17
   0   1  -2 1152.73   41.40
   1  -1   2    1.07    1.96
  -1   1  -2   -0.33    2.31
   1  -1   2   -0.21    2.24
   1  -1   2   -4.60    2.26
   1  -1   2   -0.96    2.16
   1  -1   2    3.88    2.42
  -1   1  -2    2.65    2.45
   1  -1   2    1.60    2.09
  -2   1  -2   75.45    4.41
  -2   1  -2   75.23    4.30
   2  -1   2   63.19    5.17
   3  -1   2  663.83   25.98
   3  -1   2  669.18   25.26
   3  -1   2  689.24   25.40
   3  -1   2  675.25   26.35
   3  -1   2  671.51   24.81
  -3   1  -2  677.95   24.70
   3  -1   2  664.84   24.81
   3  -1   2  693.19   26.86
   4  -1   2  228.88   14.30
   4  -1   2  230.43   13.36
   4  -1   2  237.89   13.64
   4  -1   2  255.16   13.55
   4  -1   2  226.90   14.06
   4  -1   2  227.81   13.78
  -4   1  -2  218.30   11.52
   5  -1   2  699.99   34.29
  -5   1  -2  700.13   28.83
   5  -1   2  677.84   32.22
   5  -1   2  715.46   33.30
   5  -1   2  674.74   32.12
   5  -1   2  730.56   32.82
   6  -1   2   -0.37    5.48
   6  -1   2   -0.08    6.37
   6  -1   2    6.81    6.79
  -6   1  -2    0.78    3.89
   6  -1   2   -6.45    5.19
   6  -1   2    9.16    5.84
   7  -1   2   35.64   10.37
  -7   1  -2   48.03    7.46
   7  -1   2   27.10   10.51
   7  -1   2   46.14   11.44
   7  -1   2   65.19   13.01
   8  -1   2   23.04   11.67
   8  -1   2   11.85   10.92
   8   0  -2    6.15   12.62
  -8   0   2   26.84   13.49
  -7   0   2  166.89   14.02
   7   0  -2  140.92   23.44
  -7   0   2  150.49   12.66
  -7   0   2  129.79   12.62
   7   0  -2  155.49   22.22
  -7   0   2  157.11   13.81
  -7   0   2  160.51   21.34
   7   0  -2  168.35   21.96
  -6   0   2   -3.36    6.34
  -6   0   2    0.58    5.05
  -6   0   2    6.75    7.41
   6   0  -2   -7.76    7.05
   6   0  -2    0.78    6.37
   6   0  -2    2.80    8.33
  -6   0   2   -2.44    3.86
   6   0  -2    3.66    8.01
  -6   0   2    7.01    6.32
   6   0  -2    1.65    7.76
  -5   0   2 1000.31   45.28
  -5   0   2 1018.60   46.36
   5   0  -2 1012.32   50.58
  -5   0   2 1036.21   48.68
   5   0  -2  934.51   52.07
  -5   0   2  984.98   45.37
   5   0  -2 1113.87   51.39
   5   0  -2 1039.82   52.68
  -5   0   2 1101.95   44.98
   5   0  -2 1056.86   50.45
  -5   0   2  982.53   49.70
  -4   0   2  996.42   46.76
   4   0  -2 1015.73   46.86
  -4   0   2 1026.25   42.74
   4   0  -2 1046.79   46.53
   4   0  -2  959.32   48.96
  -4   0   2 1004.04   43.78
  -4   0   2  962.62   43.43
   4   0  -2 1061.32   47.14
   4   0  -2  962.62   47.72
  -4   0   2  990.95   44.59
  -4   0   2  979.78   46.08
  -3   0   2  160.98   13.53
   3   0  -2  199.98   16.90
  -3   0   2  167.34   14.61
   3   0  -2  168.99   15.18
  -3   0   2  135.70   13.47
  -3   0   2  149.68   13.45
   3   0  -2  127.39   13.05
   3   0  -2  145.53   13.44
  -3   0   2  149.39   12.80
   3   0  -2  157.25   14.01
  -3   0   2  145.39   12.48
  -2   0   2  224.36   14.14
   2   0  -2  222.15   14.54
   2   0  -2  199.90   14.36
  -2   0   2  222.73   15.57
  -2   0   2  210.43   14.59
  -2   0   2  217.24   14.31
   2   0  -2  216.22   15.80
  -2   0   2  219.65   15.22
   1   0  -2  511.90   23.58
   1   0  -2  548.96   25.41
  -1   0   2  508.69   22.98
  -1   0   2  535.13   24.93
  -1   0   2  528.71   23.61
  -1   0   2  532.75   24.29
   1   0  -2  542.45   24.75
   1   0  -2  548.24   23.47
   1   0  -2  463.54   23.20
   0   0  -2 2190.85   74.50
   0   0  -2 2118.63   74.26
   0   0   2 2060.39   73.95
   0   0  -2 2112.11   72.82
   0   0   2 2169.14   74.49
   0   0   2 2181.49   74.54
   0   0   2 2045.06   72.00
   0   0  -2 2073.08   71.86
   0   0  -2 2055.17   73.62
   0   0   2 2111.56   73.36
   0   0   2 2103.31   72.97
   0   0   2 2094.90   72.81
   0   0  -2 2085.59   72.70
   1   0   2  267.71   13.68
  -1   0  -2  318.09   13.77
   1   0   2  321.21   13.56
   1   0   2  269.99   13.64
  -1   0  -2  291.19   12.50
  -1   0  -2  296.32   13.28
  -1   0  -2  278.50   12.23
   1   0   2  274.39   14.28
   1   0   2  301.58   12.99
  -1   0  -2  280.97   13.76
   1   0   2  279.52   13.72
   2   0   2  146.02    9.42
   2   0   2  133.68    8.40
   2   0   2  152.95    9.09
   2   0   2  151.40    8.74
   2   0   2  144.01    9.72
  -2   0  -2  143.02    8.95
   2   0   2  134.69    8.89
   3   0   2 1145.40   43.37
   3   0   2 1115.71   43.57
  -3   0  -2 1165.33   42.80
   3   0   2 1150.16   45.04
   3   0   2 1096.80   43.31
   3   0   2 1143.80   42.65
   4   0   2  616.80   30.97
  -4   0  -2  637.83   27.88
   4   0   2  590.85   29.33
   4   0   2  622.93   29.12
   4   0   2  599.11   29.07
   4   0   2  678.75   30.20
   5   0   2   28.35    8.05
  -5   0  -2   19.58    5.79
   5   0   2    7.52    6.28
   5   0   2   10.26    5.70
   5   0   2   20.86    8.08
   5   0   2   18.92    7.76
   6   0   2  395.22   27.64
  -6   0  -2  383.50   22.46
   6   0   2  383.60   25.58
   6   0   2  379.37   26.22
   6   0   2  376.31   26.16
   6   0   2  291.82   25.91
   7   0   2  162.32   19.89
   7   0   2  126.51   17.70
   7   0   2  145.78   18.12
   7   0   2  136.04   20.09
  -7   0  -2  173.28   16.10
  -8   0  -2   60.52   11.96
   8   0   2   69.99   17.85
  -8   1   2   36.93   13.77
   8  -1  -2   32.10   15.25
   7  -1  -2    8.13    9.50
   7  -1  -2   10.11   10.01
   7  -1  -2    3.32    9.90
   7  -1  -2   25.91   11.74
  -7   1   2   -2.92    7.18
  -6   1   2  203.77   12.67
  -6   1   2  198.25   13.48
   6  -1  -2  207.83   20.85
   6  -1  -2  219.66   21.80
  -6   1   2  174.07   12.73
  -6   1   2  206.63   13.35
  -6   1   2  147.60   18.24
   6  -1  -2  187.33   20.80
   6  -1  -2  221.53   23.67
  -5   1   2  403.04   22.31
  -5   1   2  377.23   25.91
   5  -1  -2  433.56   27.30
  -5   1   2  378.15   21.30
   5  -1  -2  412.92   26.70
   5  -1  -2  356.90   25.70
  -5   1   2  411.59   23.40
   5  -1  -2  316.95   26.80
  -5   1   2  396.13   20.65
   4  -1  -2  206.43   18.80
  -4   1   2  206.86   17.08
   4  -1  -2  189.93   16.51
   4  -1  -2  197.54   16.77
  -4   1   2  194.05   14.45
  -4   1   2  184.38   14.37
  -4   1   2  204.49   15.77
  -4   1   2  193.61   13.47
  -4   1   2  194.92   13.98
   4  -1  -2  197.95   16.58
   3  -1  -2 1002.96   44.45
  -3   1   2 1063.28   45.35
  -3   1   2 1009.75   41.74
   3  -1  -2 1016.86   44.41
  -3   1   2 1071.89   43.68
   3  -1  -2 1141.50   47.87
   3  -1  -2 1100.76   44.42
  -3   1   2 1087.99   44.76
  -3   1   2 1085.34   42.98
  -3   1   2 1057.19   42.72
  -2   1   2  263.67   15.24
   2  -1  -2  253.29   15.29
  -2   1   2  241.04   15.63
   2  -1  -2  273.23   16.38
  -2   1   2  275.03   14.96
   2  -1  -2  258.45   16.99
   2  -1  -2  285.99   16.14
   2  -1  -2  254.63   18.20
  -2   1   2  261.95   16.20
  -2   1   2  273.98   16.25
   1  -1  -2  300.53   17.49
   1  -1  -2  295.64   16.82
  -1   1   2  298.82   16.60
   1  -1  -2  299.06   16.56
   1  -1  -2  309.77   15.99
  -1   1   2  315.63   15.90
  -1   1   2  271.02   15.00
   1  -1  -2  312.16   16.60
  -1   1   2  306.43   17.49
   1  -1  -2  301.85   15.46
  -1   1   2  315.07   16.79
   0  -1  -2 1911.35   68.91
   0  -1  -2 2122.60   71.71
   0   1   2 2087.93   71.89
   0   1   2 2012.58   72.00
   0   1   2 2030.71   71.47
   0  -1  -2 2031.09   70.32
   0  -1  -2 1964.46   72.02
   0   1   2 1945.33   69.21
   0  -1  -2 2003.43   70.31
   1   1   2  403.12   18.87
  -1  -1  -2  414.50   18.54
   1   1   2  382.01   18.41
  -1  -1  -2  403.20   17.29
   1   1   2  374.27   17.48
   1   1   2  393.47   19.61
  -1  -1  -2  379.86   17.46
  -1  -1  -2  356.94   18.63
   1   1   2  363.47   17.75
   1   1   2  375.53   18.37
  -1  -1  -2  401.81   18.44
  -1  -1  -2  376.40   18.15
   2   1   2  827.76   32.96
  -2  -1  -2  732.56   30.95
  -2  -1  -2  783.57   30.67
   2   1   2  788.61   32.21
   2   1   2  856.14   33.73
   2   1   2  813.39   33.56
  -2  -1  -2  786.26   32.16
  -2  -1  -2  755.17   31.51
   2   1   2  867.24   35.14
  -2  -1  -2  806.58   33.10
  -2  -1  -2  785.79   32.61
   3   1   2 2019.99   74.71
  -3  -1  -2 2111.44   74.40
  -3  -1  -2 2019.06   72.37
  -3  -1  -2 2070.68   74.78
   3   1   2 2024.00   78.04
  -3  -1  -2 2090.86   71.61
   3   1   2 2078.83   76.23
  -3  -1  -2 2032.76   71.13
   3   1   2 2090.97   76.12
   3   1   2 2040.54   75.41
  -3  -1  -2 2077.17   73.73
  -4  -1  -2  223.14   12.69
  -4  -1  -2  247.20   12.99
   4   1   2  223.94   18.17
   4   1   2  227.57   17.60
   4   1   2  227.20   17.13
  -4  -1  -2  214.65   15.73
  -4  -1  -2  205.98   12.00
  -4  -1  -2  221.12   13.61
  -4  -1  -2  235.15   14.42
   4   1   2  231.58   17.39
   4   1   2  237.61   17.28
  -5  -1  -2    1.53    2.49
  -5  -1  -2    2.59    4.71
   5   1   2    7.43    6.06
   5   1   2    4.28    6.90
   5   1   2    0.30    5.80
   5   1   2    7.72    7.05
   5   1   2   -3.31    4.64
  -5  -1  -2    0.96    3.36
  -5  -1  -2   -0.44    3.10
   6   1   2    3.29    7.09
   6   1   2    4.89    7.58
   6   1   2   14.36    8.74
  -6  -1  -2    8.07    6.54
   6   1   2   14.77    9.16
   6   1   2    7.22    8.60
   7   1   2   38.55   12.93
   7   1   2   17.40   10.03
   7   1   2    5.97    9.71
   7   1   2    8.80    9.68
  -7  -1  -2   21.87    9.65
   8   1   2  249.97   27.55
   8   1   2  274.28   31.39
  -8  -1  -2  269.52   23.89
  -8   2   2   -7.58    9.31
   8  -2  -2   11.27   11.72
  -7   2   2   15.97    9.23
   7  -2  -2    3.25    9.16
   7  -2  -2   24.69   11.03
   7  -2  -2    7.46    9.18
   6  -2  -2  211.00   20.98
  -6   2   2  222.95   20.40
   6  -2  -2  193.26   22.08
   6  -2  -2  223.32   20.93
   6  -2  -2  200.34   20.45
   6  -2  -2  194.04   27.05
  -5   2   2  471.02   21.35
   5  -2  -2  444.90   27.93
  -5   2   2  441.42   19.48
   5  -2  -2  473.45   35.83
  -5   2   2  434.87   19.51
   5  -2  -2  472.63   28.44
   5  -2  -2  466.36   30.76
  -5   2   2  458.02   18.22
   5  -2  -2  478.52   28.36
  -5   2   2  457.81   28.11
  -4   2   2  259.24   15.11
  -4   2   2  243.06   17.94
  -4   2   2  241.75   13.87
   4  -2  -2  196.56   21.77
   4  -2  -2  253.43   17.85
   4  -2  -2  251.58   19.66
   4  -2  -2  213.07   17.08
  -4   2   2  231.78   13.63
  -4   2   2  228.31   14.07
   4  -2  -2  220.88   16.88
   3  -2  -2  138.39   16.48
  -3   2   2  139.27   10.46
  -3   2   2  113.03   10.14
   3  -2  -2  125.77   11.45
  -3   2   2  148.57   11.08
   3  -2  -2  141.20   11.87
  -3   2   2  137.17   12.59
   3  -2  -2  149.12   13.36
  -3   2   2  147.18   10.08
   3  -2  -2  114.10   11.75
   2  -2  -2   75.27    8.79
   2  -2  -2   84.66   11.70
  -2   2   2   75.54    7.64
   2  -2  -2   68.90    8.78
  -2   2   2   83.24    7.65
   2  -2  -2   91.95    9.55
  -2   2   2   75.50    8.09
   2  -2  -2   77.83    8.08
   2  -2  -2   68.35    8.03
   1  -2  -2    8.59    4.77
   1  -2  -2   12.87    5.44
   1  -2  -2   13.62    4.84
   1  -2  -2   16.88    4.62
   1  -2  -2    5.51    3.98
  -1   2   2   18.05    5.98
  -1   2   2   15.80    4.69
   1  -2  -2   11.80    4.34
  -1   2   2   12.47    4.74
   1  -2  -2   15.31    5.26
   1  -2  -2   15.76    4.75
  -1   2   2    9.72    4.13
  -1   2   2    9.35    4.10
   0  -2  -2  582.30   27.10
   0   2   2  573.44   26.32
   0  -2  -2  587.22   25.01
   0   2   2  555.37   25.73
   0   2   2  576.43   24.73
   0  -2  -2  592.93   25.99
   0  -2  -2  560.48   26.21
   0  -2  -2  588.40   26.27
  -1  -2  -2  172.80   12.35
  -1  -2  -2  164.08   12.32
   1   2   2  174.11   12.05
  -1  -2  -2  172.99   12.32
  -1  -2  -2  157.82   12.84
   1   2   2  194.79   12.92
   1   2   2  168.18   12.67
   1   2   2  206.04   13.43
   1   2   2  169.00   13.60
  -2  -2  -2    3.42    3.96
  -2  -2  -2    1.43    3.91
   2   2   2    1.09    3.72
  -2  -2  -2   -1.14    3.76
   2   2   2   -4.62    3.29
   2   2   2    1.65    4.56
   2   2   2    2.24    4.52
  -2  -2  -2   -2.87    3.48
   2   2   2    0.87    4.07
  -2  -2  -2    1.83    3.73
  -3  -2  -2   54.09    8.81
  -3  -2  -2   41.38    8.06
  -3  -2  -2   46.38    7.41
  -3  -2  -2   28.42    6.48
   3   2   2   64.91    9.75
   3   2   2   41.74    8.25
   3   2   2   42.66    8.67
   3   2   2   26.39    7.15
   3   2   2   69.20   10.93
  -3  -2  -2   49.46    7.54
   4   2   2  688.30   34.85
   4   2   2  630.35   33.78
   4   2   2  620.02   35.71
  -4  -2  -2  637.17   29.32
  -4  -2  -2  600.53   32.13
  -4  -2  -2  669.09   30.49
  -4  -2  -2  585.58   31.33
  -4  -2  -2  571.90   29.10
   4   2   2  568.31   31.94
   4   2   2  600.94   33.10
  -4  -2  -2  626.29   29.23
   5   2   2   60.02   12.86
  -5  -2  -2   61.57   10.42
   5   2   2   74.18   13.38
  -5  -2  -2   46.72    8.31
  -5  -2  -2   78.92   12.15
   5   2   2   46.97   11.18
  -5  -2  -2   51.57    8.12
  -5  -2  -2   56.17    8.65
   5   2   2   48.04   11.38
   5   2   2   72.57   14.46
   6   2   2   24.95   11.38
   6   2   2   20.13    9.50
  -6  -2  -2   37.25    6.91
  -6  -2  -2   31.99   10.00
   6   2   2   21.59   10.61
  -6  -2  -2   25.20    5.73
  -6  -2  -2   16.82    5.63
   6   2   2   39.84   12.36
  -6  -2  -2   15.13    5.58
   6   2   2   30.10   10.55
   7   2   2  131.98   19.89
   7   2   2  159.88   23.83
   7   2   2  131.79   21.11
  -7  -2  -2  164.10   19.56
   7   2   2  153.02   21.67
  -8  -2  -2   75.17   15.96
   8   2   2   73.11   18.69
   8   2   2   38.77   16.50
   8  -3  -2  136.24   23.25
   7  -3  -2  185.59   21.52
   7  -3  -2  164.72   19.93
   7  -3  -2  208.23   24.45
   6  -3  -2  221.22   23.14
   6  -3  -2  272.19   22.80
   6  -3  -2  247.95   21.54
   6  -3  -2  241.70   30.35
   6  -3  -2  230.84   21.54
   5  -3  -2  177.57   16.81
   5  -3  -2  181.30   18.64
   5  -3  -2  206.80   17.67
   5  -3  -2  140.96   22.15
   5  -3  -2  177.17   16.66
   4  -3  -2  585.67   29.03
   4  -3  -2  550.79   30.75
   4  -3  -2  552.36   29.35
   4  -3  -2  559.08   28.98
   4  -3  -2  589.47   38.31
   3  -3  -2  104.84   10.53
  -3   3   2  123.51    8.62
   3  -3  -2  123.14   12.03
   3  -3  -2   93.29   14.71
   3  -3  -2  115.79   11.93
  -3   3   2  110.18    8.23
  -3   3   2  124.81    9.01
   3  -3  -2  119.90   10.87
   3  -3  -2  105.41   11.33
  -2   3   2  106.13    8.71
  -2   3   2  124.39    9.26
   2  -3  -2  115.51   13.96
   2  -3  -2  141.24   11.80
   2  -3  -2  115.71   11.23
   2  -3  -2  128.71   11.32
   2  -3  -2  112.54   11.05
   2  -3  -2  125.47   11.27
   2  -3  -2  114.42    9.84
   2  -3  -2  114.52   10.18
  -1   3   2 1428.32   61.31
   1  -3  -2 1475.57   56.44
   1  -3  -2 1511.76   58.81
   1  -3  -2 1581.96   57.96
  -1   3   2 1446.28   56.85
   1  -3  -2 1560.38   58.34
  -1   3   2 1533.14   57.58
  -1   3   2 1540.64   56.16
   1  -3  -2 1437.73   55.25
  -1   3   2 1529.57   55.08
   1  -3  -2 1445.58   56.66
   0  -3  -2 1447.55   55.29
   0   3   2 1429.33   54.38
   0   3   2 1440.10   56.36
   0  -3  -2 1441.84   54.29
   0   3   2 1521.82   55.76
   0  -3  -2 1328.33   56.98
   0  -3  -2 1434.70   55.33
   0  -3  -2 1529.34   57.30
   0   3   2 1412.41   57.40
   1   3   2 1610.01   59.42
   1   3   2 1550.80   59.90
   1   3   2 1432.36   57.27
  -1  -3  -2 1531.82   59.54
   1   3   2 1499.50   58.60
   1   3   2 1410.65   60.76
  -1  -3  -2 1495.22   58.18
  -1  -3  -2 1466.78   60.91
  -1  -3  -2 1496.73   58.53
  -1  -3  -2 1487.95   57.30
  -2  -3  -2 2628.62   92.73
  -2  -3  -2 2486.31   96.85
  -2  -3  -2 2498.68   93.65
   2   3   2 2537.87   95.90
  -2  -3  -2 2592.52   94.89
   2   3   2 2672.19   99.00
   2   3   2 2539.00   94.61
   2   3   2 2524.81   95.11
   2   3   2 2603.22   94.07
  -3  -3  -2   25.90    7.66
  -3  -3  -2   22.33    6.73
  -3  -3  -2   32.83    7.68
   3   3   2   20.87    7.23
   3   3   2   20.26    7.32
   3   3   2   17.59    7.07
   3   3   2   37.22    9.89
   3   3   2   19.59    7.54
  -3  -3  -2   23.79    8.01
  -3  -3  -2   20.42    7.02
   4   3   2  720.59   41.69
  -4  -3  -2  714.63   34.91
   4   3   2  752.81   39.36
  -4  -3  -2  756.32   35.70
   4   3   2  673.03   37.26
  -4  -3  -2  634.17   34.29
  -4  -3  -2  634.60   34.68
   4   3   2  678.64   38.53
   4   3   2  784.47   39.38
  -4  -3  -2  682.84   37.66
  -4  -3  -2  698.39   37.12
  -5  -3  -2    0.57    4.98
  -5  -3  -2    6.40    7.06
   5   3   2    6.90    8.45
   5   3   2   15.72    8.43
  -5  -3  -2   -1.39    4.83
  -5  -3  -2    4.73    5.62
   5   3   2   11.50    7.09
  -5  -3  -2    4.76    5.80
   5   3   2    5.36    8.47
   5   3   2    9.89    9.30
  -5  -3  -2    5.40    6.68
  -6  -3  -2   35.06    9.14
   6   3   2   33.06   11.98
  -6  -3  -2   32.63    8.55
   6   3   2   37.25   11.83
  -6  -3  -2   53.07   10.75
   6   3   2   13.51    9.99
  -6  -3  -2   23.71   10.31
  -6  -3  -2   39.88    9.70
   6   3   2   55.82   15.60
   6   3   2   34.83   12.36
   7   3   2   92.75   19.37
  -7  -3  -2   74.41   10.82
   7   3   2   80.08   19.69
   7   3   2   96.89   19.32
  -7  -3  -2   92.02   17.21
   7   3   2   54.11   15.58
  -7  -3  -2   21.92    7.46
  -7  -3  -2   52.82    9.86
   8   3   2    3.20   12.60
   8   3   2    7.84   13.31
   7  -4  -2   98.08   16.48
   7  -4  -2  114.37   19.03
   6  -4  -2    7.39    7.38
   6  -4  -2   -1.26    9.06
   6  -4  -2    4.19    6.80
   6  -4  -2   -1.20    6.42
   6  -4  -2    8.18    8.81
   6  -4  -2    4.85    7.65
   5  -4  -2  245.48   28.51
   5  -4  -2  272.93   20.34
   5  -4  -2  252.06   19.66
   5  -4  -2  293.31   22.79
   5  -4  -2  254.29   19.90
   5  -4  -2  276.32   22.10
   4  -4  -2    0.81    4.37
   4  -4  -2    8.59    8.07
   4  -4  -2    4.52    4.52
   4  -4  -2    6.31    5.91
   4  -4  -2    4.06    5.37
   4  -4  -2    3.96    5.16
   3  -4  -2   61.25    9.25
   3  -4  -2   95.54   11.35
   3  -4  -2   83.60    9.87
   3  -4  -2   82.59   14.51
   3  -4  -2   57.39    9.07
   3  -4  -2   72.85    9.18
  -3   4   2   75.99    5.40
   3  -4  -2   65.65    9.81
  -3   4   2   32.91    9.89
   3  -4  -2   69.12    9.55
   2  -4  -2  901.56   41.30
   2  -4  -2  893.97   39.16
   2  -4  -2  968.99   41.25
   2  -4  -2  907.93   40.39
  -2   4   2  911.80   46.11
   2  -4  -2  931.84   38.62
  -2   4   2  954.10   36.16
   2  -4  -2  911.73   39.77
  -1   4   2   -1.85    3.34
  -1   4   2    2.73    3.88
  -1   4   2   -0.64    3.34
   1  -4  -2    0.69    3.72
   1  -4  -2    4.10    3.99
  -1   4   2    1.88    3.99
   1  -4  -2   -6.64    3.17
   1  -4  -2   -1.33    3.55
  -1   4   2   -1.60    4.17
   1  -4  -2    0.72    3.51
  -1   4   2   -7.84    2.87
   0   4   2 2539.22   91.92
   0  -4  -2 2454.86   91.78
   0   4   2 2632.19   92.69
   0  -4  -2 2428.00   91.47
   0   4   2 2451.54   94.31
   0  -4  -2 2478.85   93.30
   0   4   2 2420.89   90.18
   0  -4  -2 2649.03   91.11
   0  -4  -2 2596.63   95.76
   0   4   2 2511.10   93.16
   1   4   2  202.57   15.99
  -1  -4  -2  176.40   15.71
   1   4   2  212.80   16.23
   1   4   2  168.25   15.25
  -1  -4  -2  210.48   15.84
  -1  -4  -2  193.68   15.48
  -1  -4  -2  178.25   16.79
   1   4   2  158.70   15.16
  -1  -4  -2  202.55   15.63
  -2  -4  -2   22.48    7.39
   2   4   2   14.66    7.39
   2   4   2   25.76    8.39
   2   4   2   16.61    7.44
  -2  -4  -2   32.09    8.99
  -2  -4  -2   19.67    6.97
   2   4   2   42.34    9.35
   2   4   2   17.85    7.39
  -2  -4  -2   15.77    6.73
  -2  -4  -2   14.00    7.27
   3   4   2  324.99   23.77
   3   4   2  327.45   24.21
  -3  -4  -2  368.46   23.83
   3   4   2  320.23   26.05
  -3  -4  -2  337.64   25.77
  -3  -4  -2  351.91   24.08
   3   4   2  333.28   24.89
  -3  -4  -2  325.94   23.23
   3   4   2  360.31   25.25
   4   4   2   29.68   10.79
   4   4   2   26.48    9.30
   4   4   2   22.26    9.91
  -4  -4  -2   18.73    7.90
  -4  -4  -2   20.48    8.02
  -4  -4  -2   30.18    9.39
  -4  -4  -2    4.35    7.22
   4   4   2   29.36   10.70
   4   4   2    3.22    7.76
  -4  -4  -2   28.17    9.23
   5   4   2   79.73   17.65
   5   4   2   74.30   15.40
   5   4   2   60.23   15.12
  -5  -4  -2   80.73   13.62
  -5  -4  -2   81.05   13.42
  -5  -4  -2   79.44   15.01
  -5  -4  -2  107.64   16.67
   5   4   2   82.62   16.19
   5   4   2   69.75   15.50
  -5  -4  -2   72.55   12.82
   6   4   2   61.44   15.17
  -6  -4  -2   75.34   13.78
   6   4   2  136.24   23.14
   6   4   2  123.28   19.48
  -6  -4  -2  122.26   18.85
  -6  -4  -2   92.54   15.01
   6   4   2  115.28   19.91
  -6  -4  -2  130.41   16.30
  -7  -4  -2    4.29    7.83
  -7  -4  -2    6.22    9.27
  -7  -4  -2    8.16    7.90
   7   4   2    1.07    8.96
   7   4   2   18.11   12.29
   7   4   2   -1.24   10.80
  -8  -4  -2  282.18   21.96
   8   4   2  188.36   33.34
   8   4   2  288.33   33.77
   7  -5  -2   35.06   11.48
   7  -5  -2   23.86   11.08
   6  -5  -2  322.01   24.89
   6  -5  -2  286.34   22.94
   6  -5  -2  289.80   25.61
   6  -5  -2  297.76   23.64
   6  -5  -2  268.31   34.16
   6  -5  -2  297.78   25.62
   6  -5  -2  305.16   23.06
   5  -5  -2   14.04    7.26
   5  -5  -2    8.40    6.48
   5  -5  -2   11.79   10.23
   5  -5  -2    9.37    6.63
   5  -5  -2   18.76    7.94
   5  -5  -2   13.56    8.33
   5  -5  -2   -1.00    5.45
   4  -5  -2  555.45   31.73
   4  -5  -2  533.34   29.03
   4  -5  -2  548.47   29.92
   4  -5  -2  539.29   29.89
   4  -5  -2  512.11   39.01
   4  -5  -2  553.99   30.90
   4  -5  -2  593.70   32.40
   4  -5  -2  538.40   28.56
   3  -5  -2  373.64   21.19
   3  -5  -2  336.61   22.68
   3  -5  -2  321.78   21.60
   3  -5  -2  341.31   21.19
  -3   5   2  366.59   28.33
   3  -5  -2  308.66   28.27
   3  -5  -2  325.22   21.81
   3  -5  -2  343.34   22.82
   3  -5  -2  375.65   22.45
   2  -5  -2    3.21    4.99
   2  -5  -2    8.97    5.25
  -2   5   2   17.38    7.90
  -2   5   2    3.54    3.26
  -2   5   2    5.43    4.26
   2  -5  -2    6.85    4.72
  -2   5   2    4.83    3.29
   2  -5  -2    9.01    5.18
   2  -5  -2   -0.78    4.35
  -1   5   2 1937.14   72.99
   1  -5  -2 1837.44   75.20
   1  -5  -2 1925.88   72.85
   1  -5  -2 1951.85   72.73
  -1   5   2 1817.34   79.57
  -1   5   2 1766.50   70.10
  -1   5   2 1842.55   71.54
  -1   5   2 1924.37   69.47
   1  -5  -2 1829.53   71.10
   1  -5  -2 1856.65   74.30
  -1   5   2 1849.38   72.39
   0  -5  -2  516.52   31.12
   0   5   2  484.92   27.53
   0   5   2  547.58   30.51
   0  -5  -2  529.01   28.97
   0   5   2  488.72   28.31
   0   5   2  503.89   28.61
   0  -5  -2  555.32   30.31
   0  -5  -2  507.13   28.21
   0  -5  -2  500.59   27.59
   0   5   2  501.80   26.93
  -1  -5  -2   90.95   13.99
   1   5   2  102.63   13.37
  -1  -5  -2   99.23   12.65
  -1  -5  -2   70.87   11.54
  -1  -5  -2  118.90   14.33
   1   5   2  111.93   13.34
  -1  -5  -2  114.69   13.39
   1   5   2  134.20   15.83
   1   5   2   84.67   12.34
   1   5   2  104.75   13.54
   2   5   2  565.97   35.28
  -2  -5  -2  618.47   35.93
   2   5   2  683.80   35.90
   2   5   2  612.83   38.17
   2   5   2  734.41   37.37
  -2  -5  -2  688.39   39.18
  -2  -5  -2  668.95   35.49
  -2  -5  -2  672.60   36.23
  -2  -5  -2  541.10   33.71
   2   5   2  631.63   36.17
   3   5   2  694.97   40.94
  -3  -5  -2  823.15   45.83
  -3  -5  -2  787.01   41.91
  -3  -5  -2  749.07   40.91
   3   5   2  823.55   43.86
   3   5   2  806.98   46.84
   3   5   2  782.56   44.08
   3   5   2  851.68   44.39
  -3  -5  -2  786.58   42.73
  -3  -5  -2  767.49   42.77
  -4  -5  -2  790.51   43.40
  -4  -5  -2  803.12   42.55
  -4  -5  -2  688.77   41.40
   4   5   2  747.96   44.00
   4   5   2  725.62   44.91
   4   5   2  715.42   43.16
   4   5   2  785.45   45.79
   4   5   2  795.92   48.74
  -4  -5  -2  794.36   46.22
  -5  -5  -2  387.95   29.34
  -5  -5  -2  366.55   28.17
  -5  -5  -2  426.19   30.29
   5   5   2  395.24   33.74
  -5  -5  -2  364.42   31.96
   5   5   2  302.81   32.37
   5   5   2  373.93   33.33
   5   5   2  359.64   30.91
   5   5   2  389.86   32.53
  -5  -5  -2  389.68   31.12
   6   5   2   -3.62    8.16
  -6  -5  -2   -3.21    8.27
   6   5   2    0.59    8.59
   6   5   2   -0.73    8.97
  -6  -5  -2   -1.22    7.52
  -6  -5  -2    0.10    6.84
  -6  -5  -2   -3.21    6.06
   6   5   2   -2.30    9.10
  -7  -5  -2  135.81   19.16
   7   5   2  100.11   22.74
   7   5   2  105.94   25.43
   7   5   2  102.98   21.76
  -7  -5  -2  121.29   17.91
   7  -6  -2   72.52   15.88
   7  -6  -2   44.19   14.24
   7  -6  -2   47.03   12.87
   6  -6  -2   49.57   18.61
   6  -6  -2   25.48    9.37
   6  -6  -2   38.30   11.09
   6  -6  -2   50.65   12.88
   5  -6  -2   31.51    9.12
   5  -6  -2   23.96    8.75
   5  -6  -2   28.85   13.26
   5  -6  -2   20.64    8.79
   5  -6  -2   43.37   10.77
   5  -6  -2   16.28    8.21
   5  -6  -2   30.50    9.37
   5  -6  -2   34.41   10.52
   4  -6  -2    5.16    5.70
   4  -6  -2   13.88    7.41
   4  -6  -2   12.05    7.01
   4  -6  -2   14.41    7.64
   4  -6  -2   20.40    8.43
   4  -6  -2   17.41    6.92
   4  -6  -2   17.52   12.07
   4  -6  -2   13.21    6.84
   3  -6  -2   13.07    7.31
   3  -6  -2   19.82    7.09
   3  -6  -2   24.90    7.74
   3  -6  -2   16.08    6.89
   3  -6  -2   21.64    7.60
  -3   6   2   22.95    9.77
   3  -6  -2   31.81    8.94
   2  -6  -2  394.92   23.79
  -2   6   2  398.30   20.58
  -2   6   2  417.43   30.85
   2  -6  -2  373.83   24.38
   2  -6  -2  412.73   26.83
  -2   6   2  407.18   20.08
   2  -6  -2  370.69   25.14
   2  -6  -2  387.90   24.14
   1  -6  -2  563.06   30.60
  -1   6   2  604.63   28.57
  -1   6   2  548.17   30.68
  -1   6   2  536.34   28.61
   1  -6  -2  588.88   31.62
   1  -6  -2  550.14   31.48
  -1   6   2  552.54   30.95
  -1   6   2  573.55   30.34
   1  -6  -2  583.47   34.21
   1  -6  -2  615.88   33.45
   0  -6  -2  433.32   30.35
   0   6   2  425.07   25.74
   0  -6  -2  408.66   26.97
   0   6   2  445.04   29.16
   0   6   2  463.10   28.33
   0  -6  -2  461.76   27.91
   0  -6  -2  443.99   27.91
   0   6   2  506.88   29.22
   0   6   2  477.78   27.39
   0  -6  -2  456.58   29.01
   1   6   2  673.87   37.84
   1   6   2  696.89   36.50
  -1  -6  -2  647.87   37.08
   1   6   2  658.06   37.76
   1   6   2  762.22   41.28
  -1  -6  -2  682.00   36.79
  -1  -6  -2  658.09   38.43
  -1  -6  -2  669.50   40.29
  -1  -6  -2  608.17   36.06
   1   6   2  713.12   37.40
   2   6   2  381.34   28.83
  -2  -6  -2  419.96   28.94
   2   6   2  339.26   26.15
   2   6   2  421.46   29.34
   2   6   2  406.99   29.25
  -2  -6  -2  372.48   27.74
  -2  -6  -2  420.14   31.30
  -2  -6  -2  403.10   27.89
  -2  -6  -2  367.90   28.06
  -3  -6  -2  209.74   22.28
   3   6   2  214.06   23.03
  -3  -6  -2  205.90   22.08
   3   6   2  225.82   25.08
  -3  -6  -2  203.25   24.06
   3   6   2  201.49   22.06
  -3  -6  -2  227.31   23.11
  -3  -6  -2  190.48   20.89
   3   6   2  236.12   23.08
   3   6   2  226.16   23.72
  -4  -6  -2  203.17   25.01
   4   6   2  163.93   24.07
  -4  -6  -2  169.12   21.27
   4   6   2  151.45   21.39
   4   6   2  168.69   22.35
   4   6   2  190.62   22.78
   4   6   2  213.22   24.72
  -4  -6  -2  148.43   20.27
  -4  -6  -2  154.25   20.45
   5   6   2    4.63    7.79
   5   6   2   -1.27    9.22
  -5  -6  -2    6.95    8.60
  -5  -6  -2   12.64   11.17
   5   6   2    4.06    9.46
  -5  -6  -2    2.62    5.54
   5   6   2   18.52   12.13
   5   6   2   -2.99    8.30
  -5  -6  -2    3.17    7.35
  -6  -6  -2   52.52   15.83
  -6  -6  -2  133.25   20.28
   6   6   2  112.40   24.29
  -6  -6  -2  134.34   20.88
   6   6   2  108.97   22.38
   6   6   2  104.79   21.40
  -6  -6  -2   82.17   17.65
   7   6   2  225.89   31.25
   7   6   2  218.44   32.62
   7   6   2  173.06   32.10
  -7  -6  -2  265.64   27.54
  -7  -6  -2  267.90   27.73
   7  -7  -2   17.18   11.46
   7  -7  -2   42.87   14.10
   6  -7  -2   43.97   10.97
   6  -7  -2    7.81    9.45
   6  -7  -2   31.13   12.47
   5  -7  -2  130.43   18.12
   5  -7  -2  168.29   17.41
   5  -7  -2  134.55   16.22
   5  -7  -2  172.91   17.41
   5  -7  -2  137.50   16.09
   5  -7  -2  177.54   18.98
   5  -7  -2  158.44   18.68
   4  -7  -2   21.00    7.94
   4  -7  -2   22.96    8.54
   4  -7  -2   11.41    8.41
   4  -7  -2   11.52    8.11
   4  -7  -2   14.22    7.00
   4  -7  -2    8.96    7.06
   4  -7  -2    4.16    6.78
   3  -7  -2  408.22   27.04
   3  -7  -2  462.51   29.88
   3  -7  -2  493.67   29.16
   3  -7  -2  448.85   30.42
   3  -7  -2  442.75   28.64
   3  -7  -2  454.75   28.19
  -3   7   2  405.03   34.97
  -2   7   2  499.76   23.56
   2  -7  -2  556.47   33.67
   2  -7  -2  578.62   31.06
  -2   7   2  447.74   23.95
  -2   7   2  448.79   34.99
   2  -7  -2  509.51   29.94
  -2   7   2  459.20   28.94
   2  -7  -2  469.30   29.94
   2  -7  -2  509.90   31.71
   1  -7  -2   45.83   11.08
  -1   7   2   65.40   10.59
  -1   7   2   52.18    9.32
  -1   7   2   77.22   12.01
  -1   7   2   78.55   12.78
   1  -7  -2   58.38   11.79
   1  -7  -2   80.29   14.52
  -1   7   2   73.85   11.31
   1  -7  -2   55.47   11.40
   1  -7  -2   79.56   12.66
   0  -7  -2   73.42   15.14
   0   7   2   80.58   13.37
   0  -7  -2  101.13   14.56
   0   7   2   91.91   13.24
   0   7   2   84.89   14.35
   0  -7  -2   65.13   12.94
   0  -7  -2   73.07   13.31
   0  -7  -2   97.55   15.29
   0   7   2   73.40   12.01
   0   7   2   75.65   13.18
   1   7   2  250.55   24.45
   1   7   2  292.15   22.85
   1   7   2  252.76   22.23
   1   7   2  216.34   21.75
  -1  -7  -2  262.99   23.06
  -1  -7  -2  242.43   24.95
   1   7   2  212.51   22.15
  -1  -7  -2  245.90   23.88
  -1  -7  -2  231.82   22.10
  -1  -7  -2  248.31   22.95
   2   7   2   85.89   15.55
  -2  -7  -2   60.98   14.65
  -2  -7  -2   82.62   17.28
   2   7   2   49.26   13.82
   2   7   2   70.87   15.21
  -2  -7  -2   76.62   15.46
   2   7   2   85.65   15.76
   2   7   2   70.63   14.82
  -2  -7  -2   88.16   15.52
  -2  -7  -2   78.46   15.33
  -3  -7  -2  460.44   35.06
   3   7   2  520.06   36.50
   3   7   2  508.43   39.48
  -3  -7  -2  550.08   40.47
   3   7   2  553.13   38.32
  -3  -7  -2  494.45   36.21
   3   7   2  548.67   37.81
  -3  -7  -2  506.67   37.10
   3   7   2  479.19   36.42
  -4  -7  -2    1.90    8.58
   4   7   2   10.97   11.35
  -4  -7  -2    9.07    8.23
   4   7   2   -9.26    6.90
  -4  -7  -2    2.39    9.63
   4   7   2   -1.01    8.26
   4   7   2   -2.09    7.66
  -4  -7  -2   -0.62    7.88
   4   7   2    3.67    9.06
   5   7   2  134.78   23.36
  -5  -7  -2   99.17   19.93
   5   7   2  135.68   22.88
  -5  -7  -2  122.39   21.79
  -5  -7  -2  128.82   24.22
  -5  -7  -2   97.25   18.91
   5   7   2  139.18   26.54
   5   7   2  104.91   21.69
  -6  -7  -2  390.61   34.36
   6   7   2  441.73   44.66
   6   7   2  341.80   35.89
   6   7   2  365.75   38.51
  -6  -7  -2  330.97   32.30
  -6  -7  -2  284.50   31.84
  -7  -7  -2   28.99   15.04
   7   7   2   44.57   18.34
   7   7   2   46.22   19.76
  -7  -7  -2   34.19   14.26
   6  -8  -2   96.57   14.58
   6  -8  -2  110.17   17.74
   6  -8  -2   96.28   17.92
   5  -8  -2  113.28   16.03
   5  -8  -2  135.81   18.96
   5  -8  -2  135.12   18.00
   4  -8  -2    4.05    6.74
  -4   8   2    4.55    9.44
   4  -8  -2   -2.30    6.58
   4  -8  -2   -3.94    6.36
   4  -8  -2   -3.19    6.23
   4  -8  -2   10.49    8.74
   4  -8  -2    8.81    9.45
   4  -8  -2    4.31    7.24
   3  -8  -2  143.39   19.06
   3  -8  -2  162.35   18.11
   3  -8  -2  170.50   20.29
   3  -8  -2  187.04   18.83
   3  -8  -2  185.18   18.54
  -3   8   2  152.34   23.47
   2  -8  -2   -0.40    5.49
  -2   8   2    2.77    5.98
   2  -8  -2    2.28    6.20
   2  -8  -2   -1.37    6.31
  -2   8   2   -2.94    4.31
  -2   8   2    8.12    8.81
   2  -8  -2   -0.32    6.51
  -2   8   2   -3.02    3.95
   2  -8  -2    1.08    6.94
  -1   8   2   54.70   12.36
  -1   8   2   53.02   11.08
  -1   8   2   32.87    8.78
   1  -8  -2   50.62   12.35
  -1   8   2   69.47   12.29
   1  -8  -2   68.53   13.40
  -1   8   2   62.41   10.55
   1  -8  -2   85.29   15.04
   1  -8  -2   47.84   13.40
   1  -8  -2   62.85   12.50
   0  -8  -2  905.21   47.94
   0  -8  -2  913.52   52.89
   0   8   2  838.52   43.85
   0   8   2  872.36   46.61
   0   8   2 1003.60   50.08
   0   8   2  873.25   48.69
   0  -8  -2  907.41   50.22
   0   8   2  917.29   45.91
   0  -8  -2  859.40   47.81
   0  -8  -2  861.06   47.27
   1   8   2   20.03    9.66
   1   8   2   24.10   10.59
  -1  -8  -2   36.29   12.86
   1   8   2   34.04   11.83
  -1  -8  -2   23.47   11.61
  -1  -8  -2   43.47   12.47
  -1  -8  -2   34.25   11.72
  -1  -8  -2   29.64   11.02
   1   8   2   38.60   12.37
   1   8   2   22.84    9.53
   2   8   2  769.30   50.12
   2   8   2  789.65   47.68
  -2  -8  -2  784.92   48.09
  -2  -8  -2  849.51   49.04
   2   8   2  698.28   45.86
  -2  -8  -2  822.30   47.98
   2   8   2  714.11   44.35
  -2  -8  -2  814.30   51.57
   2   8   2  790.93   47.64
  -3  -8  -2    9.89   10.03
  -3  -8  -2  -11.41    5.71
   3   8   2   -2.58    8.57
   3   8   2   -3.44    6.87
   3   8   2   -0.03    9.49
  -3  -8  -2   -0.03    7.35
  -3  -8  -2    4.47    8.04
   3   8   2   -8.15    7.03
   3   8   2    2.08    9.62
  -4  -8  -2   40.68   16.70
   4   8   2    5.17    9.33
   4   8   2   39.51   15.22
   4   8   2   19.01   11.64
  -4  -8  -2   37.51   14.27
   4   8   2   21.73   12.16
  -4  -8  -2   33.79   14.48
  -4  -8  -2   30.02   13.04
   4   8   2   58.95   18.10
   5   8   2  175.35   29.72
   5   8   2  210.80   29.43
  -5  -8  -2  153.11   24.77
  -5  -8  -2  165.64   26.18
   5   8   2  154.84   27.11
   5   8   2  109.63   22.75
  -5  -8  -2  158.11   24.66
  -6  -8  -2   55.23   17.82
   6   8   2   75.94   20.91
   6   8   2   57.34   19.60
  -6  -8  -2   42.99   16.80
   6  -9  -2   41.78   13.98
   6  -9  -2   73.68   18.36
   5  -9  -2    7.00    8.39
   5  -9  -2    9.53    9.51
   5  -9  -2   19.68   10.51
   4  -9  -2  421.36   31.07
   4  -9  -2  432.32   30.75
   4  -9  -2  383.34   30.52
  -4   9   2  361.34   38.27
   4  -9  -2  397.40   32.51
   3  -9  -2   11.98    8.56
   3  -9  -2   21.32   10.20
   3  -9  -2   -3.87    7.76
  -3   9   2    6.95   10.20
   3  -9  -2    6.03    8.14
  -2   9   2  408.40   37.05
  -2   9   2  384.19   19.82
   2  -9  -2  393.31   29.40
  -2   9   2  398.28   20.70
   2  -9  -2  380.18   31.17
   2  -9  -2  370.81   32.51
   2  -9  -2  385.27   28.95
  -2   9   2  382.03   28.13
   2  -9  -2  371.65   29.14
  -1   9   2  237.12   22.24
  -1   9   2  305.23   31.81
  -1   9   2  278.93   24.91
   1  -9  -2  306.64   29.24
   1  -9  -2  210.82   22.59
  -1   9   2  206.27   19.89
   1  -9  -2  244.57   24.57
   1  -9  -2  291.44   25.68
   1  -9  -2  219.90   24.85
  -1   9   2  235.49   19.90
   0   9   2   -2.96    5.77
   0  -9  -2   -1.15    7.21
   0  -9  -2    2.68    7.89
   0   9   2    5.91    7.32
   0   9   2   -1.46    6.69
   0  -9  -2    2.04    6.98
   0   9   2    1.27    8.34
   0   9   2   -5.72    5.78
   0  -9  -2   -6.28    6.23
   0  -9  -2   17.85   11.02
   1   9   2  226.94   26.64
   1   9   2  242.98   24.23
  -1  -9  -2  231.00   25.26
   1   9   2  221.78   25.15
  -1  -9  -2  239.61   26.84
  -1  -9  -2  263.29   30.24
   1   9   2  270.84   27.15
  -1  -9  -2  252.77   27.84
   1   9   2  258.36   25.47
  -2  -9  -2  172.37   24.67
  -2  -9  -2  198.73   24.92
   2   9   2  192.53   25.09
   2   9   2  217.72   25.22
   2   9   2  174.60   22.65
   2   9   2  244.60   28.59
   2   9   2  234.91   26.79
  -2  -9  -2  198.38   25.44
  -2  -9  -2  208.32   28.58
  -3  -9  -2   13.21   12.40
  -3  -9  -2    2.96    9.25
   3   9   2    3.64    9.20
   3   9   2    2.20    9.67
  -3  -9  -2   -7.19    7.25
   3   9   2   -3.53    9.26
  -3  -9  -2   -0.41   10.44
   3   9   2   -4.10    8.06
   3   9   2   -3.41    8.06
   4   9   2  330.35   36.00
   4   9   2  389.65   36.06
  -4  -9  -2  304.01   33.69
   4   9   2  275.73   33.20
   4   9   2  387.70   37.99
  -4  -9  -2  345.03   35.76
  -4  -9  -2  307.31   33.34
  -5  -9  -2   -1.29   12.96
  -5  -9  -2    3.06    9.98
   5   9   2   -6.26    9.27
   5   9   2    8.85   11.74
   6   9   2  182.46   32.67
  -6  -9  -2  174.79   28.21
   6   9   2  242.33   33.72
   5 -10  -2   89.11   17.15
   5 -10  -2   70.07   18.45
   5 -10  -2   64.14   16.26
  -4  10   2   41.04   17.57
   4 -10  -2   19.87   12.45
   4 -10  -2    9.56   10.01
  -3  10   2   11.63   11.62
   3 -10  -2   25.03   11.24
   3 -10  -2   34.46   12.98
   3 -10  -2   15.20    9.47
   2 -10  -2  458.70   34.70
   2 -10  -2  443.00   33.08
  -2  10   2  431.59   32.00
  -2  10   2  378.23   39.13
   2 -10  -2  470.97   34.65
   2 -10  -2  472.44   37.92
  -1  10   2    5.51    8.10
   1 -10  -2   25.02   11.38
   1 -10  -2    3.67   10.05
   1 -10  -2   14.97    9.75
   1 -10  -2   -2.48    8.43
  -1  10   2   10.84    8.15
  -1  10   2    1.26   10.00
  -1  10   2    4.67    7.37
   0  10   2  243.79   24.80
   0  10   2  231.62   23.41
   0 -10  -2  224.03   26.39
   0 -10  -2  256.40   27.58
   0 -10  -2  216.79   28.64
   0  10   2  273.53   27.59
   0  10   2  292.61   28.83
   1  10   2  101.68   20.94
   1  10   2  108.32   19.41
   1  10   2  167.92   23.90
  -1 -10  -2  179.26   24.30
   1  10   2  140.13   21.97
  -1 -10  -2  182.77   24.19
  -1 -10  -2  116.03   23.47
   1  10   2  171.93   21.29
   2  10   2   54.33   17.11
   2  10   2   71.75   18.10
  -2 -10  -2   32.31   14.62
  -2 -10  -2   40.12   14.98
  -2 -10  -2   35.47   16.43
   2  10   2   66.42   19.65
   2  10   2   80.51   18.32
   2  10   2   67.12   17.76
   3  10   2  503.92   43.76
   3  10   2  457.97   41.56
  -3 -10  -2  578.17   44.46
   3  10   2  497.70   43.29
   3  10   2  558.26   42.05
  -3 -10  -2  627.20   45.96
  -4 -10  -2  109.68   23.62
   4  10   2  122.24   25.49
   4  10   2   85.13   22.23
   4  10   2  134.72   24.87
   5  10   2  131.92   26.53
  -5 -10  -2  127.19   26.34
   5  10   2  111.30   26.50
   4 -11  -2   -3.84    8.95
   4 -11  -2    8.46   11.52
  -3  11   2  200.46   31.79
   3 -11  -2  196.22   27.93
   2 -11  -2    0.25   11.27
  -2  11   2  -13.75    6.61
   2 -11  -2   -6.07    8.59
  -2  11   2    2.34   10.96
  -1  11   2  244.99   27.10
   1 -11  -2  272.65   29.46
  -1  11   2  202.42   31.34
   1 -11  -2  285.30   29.63
   1 -11  -2  205.56   29.90
  -1  11   2  239.03   22.16
   0  11   2  139.11   20.09
   0  11   2  165.47   21.58
   0 -11  -2  174.44   25.34
   0 -11  -2  134.92   22.96
   0  11   2  196.92   26.48
   0 -11  -2  108.04   24.45
  -1 -11  -2   -6.77    9.99
   1  11   2   -1.81    8.99
   1  11   2    6.98   11.51
   1  11   2   -4.68    8.78
  -1 -11  -2   -1.73   10.04
   1  11   2    5.97   13.28
   2  11   2   75.98   20.20
   2  11   2  119.45   23.55
  -2 -11  -2  103.39   23.50
  -2 -11  -2   94.46   22.01
   2  11   2  129.20   24.00
  -3 -11  -2   62.05   19.99
   3  11   2   50.93   18.10
   3  11   2   48.32   17.77
  -3 -11  -2   56.52   18.92
   3  11   2   38.63   18.27
  -4 -11  -2   20.52   15.82
   4  11   2    6.55   13.36
  -2  12   2   30.94   18.08
   2 -12  -2    5.08   13.03
   1 -12  -2   83.26   20.71
  -1  12   2  110.76   26.42
  -1  12   2  103.34   15.29
   0 -12  -2   81.71   21.24
   0  12   2   66.88   18.40
   0 -12  -2   49.99   18.27
   0  12   2   30.53   13.07
   1  12   2  387.48   39.47
  -1 -12  -2  345.44   36.74
   1  12   2  370.15   35.40
  -1 -12  -2  301.17   36.05
   2  12   2   27.63   15.67
  -2 -12  -2   52.06   20.05
   2  12   2   43.40   18.18
  -2 -12  -2   50.25   19.65
   2  11  -3   73.91   20.70
  -2 -11   3   34.69   18.95
  -2 -11   3   44.89   19.20
   2  11  -3   56.05   18.02
  -1 -11   3  206.25   29.90
   1  11  -3  135.48   24.31
   1  11  -3  156.24   22.53
   0  11  -3   -1.92    7.43
   0 -11   3    4.74   11.73
   0  11  -3   -6.37   10.11
  -1  11  -3   59.96   16.58
   1 -11   3   46.42   18.67
   2 -11   3   25.67   15.41
  -3 -10   3   38.18   17.23
   3  10  -3   67.71   20.35
  -3 -10   3   55.99   19.88
   3  10  -3   47.04   17.81
  -3 -10   3   23.65   14.18
  -2 -10   3   66.48   20.04
   2  10  -3   61.76   17.83
  -2 -10   3   82.05   20.85
   2  10  -3   91.00   20.01
   1  10  -3   57.92   14.87
  -1 -10   3   63.39   18.66
  -1 -10   3   55.05   17.28
  -1 -10   3   81.48   21.36
   1  10  -3   61.62   16.89
   0 -10   3  115.73   21.65
   0 -10   3  144.62   26.31
   0 -10   3  117.48   20.96
   0  10  -3  112.36   14.55
   0  10  -3   90.09   14.26
   0  10  -3  101.60   18.79
  -1  10  -3  169.22   20.52
   1 -10   3  181.78   23.87
   1 -10   3  240.20   29.51
  -1  10  -3  196.20   23.40
  -2  10  -3  126.28   19.36
   2 -10   3  104.01   20.62
   3 -10   3  231.72   26.22
   4 -10   3   29.15   12.25
   4   9  -3    1.93    9.98
  -4  -9   3    3.06   11.95
   4   9  -3   15.95   14.59
  -4  -9   3    7.33   12.57
   3   9  -3  251.51   30.34
  -3  -9   3  198.75   28.61
   3   9  -3  256.36   30.10
  -3  -9   3  270.45   33.01
  -3  -9   3  215.68   29.62
  -2  -9   3    0.50   10.66
  -2  -9   3   15.90   12.02
   2   9  -3   12.09   13.25
  -2  -9   3   -0.97    9.45
   2   9  -3   -0.37    8.29
   2   9  -3    9.32   10.22
   1   9  -3   14.25   11.80
  -1  -9   3   23.15   11.97
  -1  -9   3   15.23   11.88
   1   9  -3   17.41    9.43
  -1  -9   3   19.95   12.43
   1   9  -3   18.80    9.85
   0  -9   3  141.75   22.03
   0   9  -3  153.79   16.84
   0  -9   3  185.39   26.03
   0  -9   3  183.52   22.56
   0  -9   3  110.66   19.79
   0   9  -3  148.60   19.51
   1  -9   3    2.26    9.55
  -1   9  -3    5.98    7.91
   1  -9   3    8.55    9.20
  -1   9  -3    1.09    6.64
   1  -9   3    2.00    6.65
   1  -9   3   -3.20    7.50
   2  -9   3   57.12   13.53
   2  -9   3   99.98   16.43
  -2   9  -3   87.69   15.17
   2  -9   3   59.73   12.62
  -2   9  -3   87.13   12.24
   2  -9   3   59.67   15.16
   3  -9   3   59.70   14.24
   4  -9   3   -0.37    7.50
   5  -9   3  103.05   14.55
  -5  -8   3   -1.21   11.56
  -5  -8   3   -5.50   12.00
   5   8  -3   15.57   13.39
   4   8  -3   98.50   22.00
  -4  -8   3   78.64   19.40
   4   8  -3   94.21   21.75
  -4  -8   3   47.45   15.99
  -4  -8   3  123.30   24.68
  -3  -8   3  180.10   26.40
   3   8  -3  233.44   27.35
  -3  -8   3  221.05   27.96
   3   8  -3  241.20   28.91
  -3  -8   3  163.99   25.27
  -3  -8   3  224.92   30.73
  -2  -8   3   20.98   12.60
   2   8  -3    0.89    7.46
  -2  -8   3    4.72    9.03
   2   8  -3    4.15   10.58
   2   8  -3   -2.80    7.00
  -2  -8   3   13.10   10.30
   1   8  -3  178.46   20.31
  -1  -8   3  146.01   21.65
  -1  -8   3  147.44   21.41
   1   8  -3  146.66   21.07
  -1  -8   3  201.87   26.20
   1   8  -3  145.48   19.94
  -1  -8   3  197.31   24.20
  -1  -8   3  157.67   21.25
   0   8  -3  -10.04    5.85
   0   8  -3    1.11    5.89
   0  -8   3    3.56    7.43
   0  -8   3    8.88    9.77
   0  -8   3    8.89    9.48
   0   8  -3   -3.32    5.18
   0  -8   3    2.01    7.76
   0   8  -3    1.20    6.02
   0  -8   3   -2.97    7.06
  -1   8  -3  247.87   21.09
   1  -8   3  249.54   25.68
   1  -8   3  315.28   26.37
   1  -8   3  257.06   23.66
   1  -8   3  258.97   23.96
   1  -8   3  269.96   22.98
  -1   8  -3  231.78   21.53
   2  -8   3  364.07   26.54
   2  -8   3  374.86   26.47
   2  -8   3  321.27   26.88
   2  -8   3  373.90   27.27
   2  -8   3  328.28   24.29
  -2   8  -3  383.59   27.02
  -2   8  -3  363.89   22.20
   3  -8   3    6.14    6.30
   3  -8   3    2.61    7.59
   3  -8   3   -1.07    7.03
   3  -8   3    3.48    5.39
   3  -8   3   14.02    7.71
   4  -8   3  255.71   20.47
   4  -8   3  252.90   20.38
   5  -8   3   19.14    7.07
   6  -8   3   24.81    7.13
   6   7  -3   -0.19   11.51
  -6  -7   3    1.90   10.81
  -6  -7   3   14.21   14.69
  -5  -7   3   55.74   19.13
  -5  -7   3   74.12   19.29
   5   7  -3   48.90   18.67
   5   7  -3   43.73   16.39
  -4  -7   3  261.54   30.83
   4   7  -3  264.92   29.91
   4   7  -3  239.72   32.30
  -4  -7   3  253.15   29.33
   4   7  -3  237.44   29.36
   4   7  -3  296.60   32.48
  -4  -7   3  259.98   33.29
  -4  -7   3  291.96   31.52
  -4  -7   3  287.66   31.69
  -3  -7   3    1.02    8.26
  -3  -7   3   11.94   10.80
  -3  -7   3    5.77    9.65
  -3  -7   3   -5.18    6.92
   3   7  -3   11.74   11.71
   3   7  -3   -6.03    5.95
  -3  -7   3    7.46    8.99
   3   7  -3    2.76    6.95
  -2  -7   3  445.33   34.65
  -2  -7   3  463.87   34.26
   2   7  -3  390.81   34.54
  -2  -7   3  442.59   34.65
  -2  -7   3  402.74   36.41
   2   7  -3  415.10   32.63
   2   7  -3  420.73   32.66
   1   7  -3    2.01    6.02
   1   7  -3   11.15    9.32
  -1  -7   3   13.41    8.53
  -1  -7   3    7.50    9.39
   1   7  -3   10.83    7.80
  -1  -7   3    4.19    8.41
  -1  -7   3    1.77    6.81
  -1  -7   3   13.24    9.79
   0   7  -3  148.71   17.11
   0  -7   3  168.27   19.47
   0   7  -3  176.01   16.34
   0  -7   3  167.72   19.39
   0   7  -3  159.76   17.23
   0  -7   3  161.30   18.99
   0  -7   3  131.15   19.39
   0   7  -3  151.20   15.44
   0  -7   3  160.10   18.33
  -1   7  -3  537.32   31.48
   1  -7   3  585.98   36.68
   1  -7   3  561.19   33.29
   1  -7   3  559.75   33.69
   1  -7   3  617.89   35.41
  -1   7  -3  607.38   25.12
  -1   7  -3  569.53   31.63
   1  -7   3  530.49   32.35
   2  -7   3  173.61   15.97
  -2   7  -3  157.94   16.39
   2  -7   3  201.09   19.23
  -2   7  -3  161.76   13.50
   2  -7   3  189.84   17.47
   2  -7   3  184.61   17.19
   2  -7   3  190.16   17.31
   3  -7   3   25.57    7.94
   3  -7   3   38.39    7.35
   3  -7   3   31.65    8.07
   3  -7   3   37.45    9.18
   3  -7   3   21.33    7.91
   4  -7   3   52.02    8.25
   4  -7   3   41.25    7.73
   4  -7   3   47.52    8.69
   4  -7   3   51.47    8.92
   5  -7   3    3.89    5.53
   5  -7   3    4.45    4.55
   5  -7   3    7.83    4.86
  -6  -6   3   69.88   20.40
   6   6  -3  103.22   22.89
  -6  -6   3   41.87   15.82
  -6  -6   3   51.71   19.56
  -5  -6   3  128.67   23.44
  -5  -6   3  143.46   23.72
   5   6  -3  186.92   29.86
   5   6  -3  178.26   26.28
  -5  -6   3  169.45   26.30
  -5  -6   3  163.62   25.12
   5   6  -3  175.64   26.32
  -4  -6   3   49.00   15.21
   4   6  -3   19.81   10.69
   4   6  -3   -2.96    6.77
  -4  -6   3   18.85   10.39
  -4  -6   3    2.45    9.28
  -4  -6   3   34.46   14.31
   4   6  -3   10.19    9.14
  -4  -6   3   15.01   10.39
   4   6  -3   18.74   12.74
   3   6  -3  283.58   27.98
  -3  -6   3  262.51   29.38
  -3  -6   3  253.04   27.67
  -3  -6   3  262.11   27.01
   3   6  -3  344.53   30.09
   3   6  -3  267.15   29.06
  -3  -6   3  336.52   29.68
  -3  -6   3  289.96   28.00
   3   6  -3  297.38   28.29
  -2  -6   3   12.75    8.18
  -2  -6   3   11.57    9.04
   2   6  -3    7.24    7.58
  -2  -6   3   -0.08    6.82
  -2  -6   3   27.22   10.89
  -2  -6   3    0.09    7.09
   2   6  -3   10.76    8.06
  -2  -6   3    8.89    9.14
   2   6  -3   13.11    8.67
   1   6  -3  197.24   20.84
   1   6  -3  147.41   17.68
  -1  -6   3  186.78   22.23
  -1  -6   3  206.15   21.14
  -1  -6   3  234.57   22.06
  -1  -6   3  184.04   20.11
   1   6  -3  198.17   19.25
  -1  -6   3  179.27   19.50
   0  -6   3 1410.87   62.95
   0   6  -3 1307.95   57.74
   0  -6   3 1307.08   64.54
   0   6  -3 1430.73   58.37
   0  -6   3 1440.74   61.88
   0  -6   3 1372.36   61.41
   0   6  -3 1463.73   61.37
   0  -6   3 1443.81   63.15
   0   6  -3 1435.60   61.26
   1  -6   3  209.35   17.97
  -1   6  -3  175.14   10.81
  -1   6  -3  153.06   14.64
   1  -6   3  131.72   14.78
  -1   6  -3  193.68   15.60
  -1   6  -3  172.33   11.07
   1  -6   3  174.26   18.08
   1  -6   3  203.34   17.75
  -2   6  -3  251.45   15.38
   2  -6   3  245.15   19.34
   2  -6   3  262.38   17.59
  -2   6  -3  243.78   18.22
   2  -6   3  257.36   18.24
   2  -6   3  242.55   17.80
   3  -6   3  120.22   10.85
   3  -6   3   79.23    8.35
   3  -6   3  100.57   11.09
   3  -6   3  102.17   10.21
   4  -6   3   11.00    4.59
   4  -6   3   11.40    4.40
   4  -6   3   12.42    4.59
   5  -6   3  446.09   35.70
   6  -6   3   66.77   19.44
   7  -6   3   39.20   20.85
  -7  -5   3   43.74   16.58
   7   5  -3   23.69   17.06
  -7  -5   3   13.06   13.48
  -6  -5   3  233.23   28.48
   6   5  -3  262.34   32.77
  -6  -5   3  258.65   28.18
   6   5  -3  207.98   32.54
  -6  -5   3  221.28   29.08
   5   5  -3   40.50   16.30
  -5  -5   3   27.67   11.81
  -5  -5   3   11.55   11.79
  -5  -5   3   19.91   11.97
   5   5  -3   21.12   11.91
   5   5  -3   17.96   11.65
  -5  -5   3   42.41   14.37
   5   5  -3   25.27   13.58
  -5  -5   3   11.81   10.60
   4   5  -3  213.44   25.66
  -4  -5   3  218.75   24.61
  -4  -5   3  234.79   24.98
  -4  -5   3  182.26   23.74
   4   5  -3  179.45   25.24
   4   5  -3  189.28   23.87
  -4  -5   3  184.14   23.67
  -4  -5   3  221.13   27.50
   4   5  -3  195.54   24.00
  -3  -5   3   10.48    8.48
   3   5  -3   20.42    9.63
  -3  -5   3   14.34   10.02
  -3  -5   3    8.44    9.23
   3   5  -3    9.27   10.09
  -3  -5   3   25.93   10.17
   3   5  -3   21.01    9.88
   3   5  -3   19.67    9.10
  -3  -5   3   -1.13    7.54
  -3  -5   3   16.06    8.78
   2   5  -3   39.52   10.68
  -2  -5   3   33.38   11.10
  -2  -5   3   27.73   10.17
   2   5  -3   42.38   12.39
  -2  -5   3   30.97   10.16
  -2  -5   3   42.83   12.50
  -2  -5   3   37.17   10.28
  -2  -5   3   32.71   11.38
   2   5  -3   38.08   10.84
  -1  -5   3 1085.46   49.55
  -1  -5   3  983.32   48.28
   1   5  -3  975.53   47.61
   1   5  -3 1005.86   50.40
  -1  -5   3  998.59   51.84
   1   5  -3 1032.02   48.76
  -1  -5   3  928.29   48.22
  -1  -5   3 1011.92   50.05
   0   5  -3  380.07   23.71
   0   5  -3  372.21   23.83
   0  -5   3  357.60   24.49
   0  -5   3  419.05   27.29
   0  -5   3  358.56   24.09
   0   5  -3  351.12   21.81
   0  -5   3  383.50   24.32
   0   5  -3  349.60   21.99
   1  -5   3  135.14   13.06
  -1   5  -3  153.50    9.56
  -1   5  -3  158.94   12.43
   1  -5   3  143.27   14.94
   1  -5   3  131.37   13.34
  -1   5  -3  147.40    9.25
  -1   5  -3  187.59   13.96
   1  -5   3  159.03   14.47
  -2   5  -3  232.19   13.39
   2  -5   3  241.15   15.65
   2  -5   3  232.92   16.55
   2  -5   3  243.43   15.31
   2  -5   3  251.76   16.07
   3  -5   3   11.09    4.25
   3  -5   3    8.63    3.32
   3  -5   3    8.50    4.11
   4  -5   3  233.96   22.51
   5  -5   3   77.10   16.45
   6  -5   3   -1.61   10.54
   7  -5   3   35.18   18.11
   7  -5   3   50.20    8.04
   7   4  -3   59.86   22.17
   7   4  -3   76.34   21.00
  -7  -4   3  121.17   20.89
  -7  -4   3   84.32   20.20
  -6  -4   3   24.89   13.78
  -6  -4   3   17.51   12.35
   6   4  -3   77.23   21.29
  -6  -4   3   46.69   16.14
   6   4  -3   37.75   14.17
   6   4  -3   71.09   18.47
  -6  -4   3   37.87   18.26
  -6  -4   3   44.22   13.45
   5   4  -3  128.78   22.04
  -5  -4   3  142.31   21.52
  -5  -4   3   94.81   20.43
  -5  -4   3  106.88   18.55
   5   4  -3  114.36   20.42
   5   4  -3   79.51   18.15
   5   4  -3   99.97   21.16
  -5  -4   3   82.37   17.90
  -5  -4   3  102.97   18.01
   4   4  -3   23.69   10.67
  -4  -4   3   22.90   11.27
   4   4  -3   19.37   11.12
  -4  -4   3   39.73   11.94
   4   4  -3   12.15    8.97
   4   4  -3    4.47    7.53
  -4  -4   3   28.75   11.06
  -4  -4   3   15.98    9.75
  -4  -4   3   23.61    9.91
   3   4  -3  192.63   21.08
  -3  -4   3  136.79   19.03
   3   4  -3  102.50   17.92
  -3  -4   3  166.26   19.89
  -3  -4   3  151.31   18.34
  -3  -4   3  162.30   18.67
   3   4  -3  150.33   19.01
  -3  -4   3  170.57   21.51
  -3  -4   3  188.18   20.38
   3   4  -3  167.72   19.39
   2   4  -3 1308.83   63.34
  -2  -4   3 1521.33   64.96
   2   4  -3 1411.55   63.42
  -2  -4   3 1464.36   65.47
  -2  -4   3 1488.10   65.13
  -2  -4   3 1502.84   64.87
  -2  -4   3 1447.50   67.63
   2   4  -3 1552.00   68.56
  -2  -4   3 1437.31   63.93
  -1  -4   3  513.43   32.27
  -1  -4   3  518.41   29.96
  -1  -4   3  543.68   30.09
  -1  -4   3  493.31   30.25
   1   4  -3  572.67   30.42
  -1  -4   3  524.33   30.14
   1   4  -3  463.05   28.31
   1   4  -3  519.45   31.29
   0  -4   3  362.34   21.98
   0   4  -3  337.63   21.53
   0   4  -3  320.41   19.58
   0  -4   3  300.52   20.33
   0   4  -3  352.04   20.21
   0  -4   3  339.08   21.97
   0  -4   3  327.76   22.70
   0   4  -3  326.79   20.48
   1  -4   3   18.14    6.53
  -1   4  -3   25.18    3.85
   1  -4   3   29.12    6.20
  -1   4  -3   19.95    5.20
  -1   4  -3   19.50    4.57
   1  -4   3   27.46    6.12
  -1   4  -3   23.63    3.54
   2  -4   3   15.12    4.80
   2  -4   3    9.34    3.87
   2  -4   3    1.44    3.66
  -2   4  -3   10.12    3.10
   3  -4   3  454.17   17.55
   3  -4   3  399.16   25.47
   4  -4   3  142.76   16.76
   5  -4   3   39.49   12.60
   6  -4   3  467.84   22.06
   6  -4   3  454.44   37.67
   7  -4   3   11.22    6.92
   7  -4   3   28.41    8.89
   7  -4   3   37.39   17.75
   7  -4   3   26.98    7.78
  -7  -3   3   69.37   17.53
  -7  -3   3   60.87   15.31
   7   3  -3  102.54   22.63
   7   3  -3   85.76   23.20
  -6  -3   3  191.93   26.43
  -6  -3   3  129.42   19.63
  -6  -3   3   89.25   19.16
   6   3  -3  186.08   25.13
   6   3  -3  169.84   24.40
  -6  -3   3  144.34   21.69
  -6  -3   3  141.22   20.54
   6   3  -3  129.69   24.84
   5   3  -3  206.08   26.71
   5   3  -3  165.41   23.74
   5   3  -3  149.13   21.49
   5   3  -3  207.20   24.00
  -5  -3   3  147.12   19.45
  -5  -3   3  197.68   21.59
  -5  -3   3  165.36   23.49
  -5  -3   3  142.34   20.33
  -4  -3   3  -10.25    6.90
  -4  -3   3    8.66    7.94
  -4  -3   3   -4.38    5.69
   4   3  -3    4.53    7.42
  -4  -3   3    3.03    7.86
  -4  -3   3   14.52    8.31
   4   3  -3    1.45    6.04
   4   3  -3   -7.73    6.95
   4   3  -3   -1.68    6.03
   3   3  -3  375.23   27.47
   3   3  -3  414.77   30.73
  -3  -3   3  351.07   27.39
   3   3  -3  433.07   29.16
  -3  -3   3  409.42   27.72
  -3  -3   3  425.28   28.63
  -3  -3   3  395.13   27.46
  -3  -3   3  431.26   30.63
   2   3  -3 1124.08   51.22
  -2  -3   3 1170.80   51.99
  -2  -3   3 1124.14   50.67
  -2  -3   3 1092.01   51.57
   2   3  -3 1085.53   51.20
  -2  -3   3 1092.40   54.08
  -2  -3   3 1127.71   52.56
  -1  -3   3   26.73    7.34
  -1  -3   3   16.49    7.07
  -1  -3   3   28.94    7.22
  -1  -3   3   20.09    7.05
   1   3  -3   25.68    7.37
   1   3  -3   15.09    6.76
   1   3  -3   21.50    6.64
  -1  -3   3    2.11    4.90
   0  -3   3  157.17   12.60
   0  -3   3  156.81   14.35
   0   3  -3  130.82   11.65
   0  -3   3  123.14   11.85
   0   3  -3  128.95   11.74
   0   3  -3  141.04   11.43
   0   3  -3  125.90   12.14
   0  -3   3  128.71   11.78
   1  -3   3  524.05   24.70
   1  -3   3  591.79   25.16
  -1   3  -3  528.33   24.02
  -1   3  -3  534.35   21.25
  -1   3  -3  533.97   21.11
   1  -3   3  514.99   25.69
   2  -3   3  110.16    7.78
   2  -3   3  115.23    9.98
   2  -3   3  104.90    7.80
   2  -3   3  115.45    8.21
  -2   3  -3  100.20    6.10
   2  -3   3  109.24    7.50
   2  -3   3  105.67    8.05
  -2   3  -3  101.72    6.31
   3  -3   3  450.78   25.62
   4  -3   3  142.16   16.58
   5  -3   3   53.78    5.81
   5  -3   3   68.78   14.86
   6  -3   3  161.81   23.51
   6  -3   3  204.89   13.64
   6  -3   3  186.89   14.31
   6  -3   3  192.85   14.66
   6  -3   3  182.49   13.63
   7  -3   3    2.98    6.27
   7  -3   3   13.18    8.42
   7  -3   3   16.66   14.14
   7  -3   3    6.95    6.89
   8  -3   3   25.82   10.97
  -7  -2   3   -5.71    7.14
  -7  -2   3  -10.09    7.97
   7   2  -3    2.39   10.89
   7   2  -3    3.96   10.91
  -7  -2   3    4.65    9.91
  -6  -2   3   57.10   16.02
   6   2  -3   64.19   16.93
  -6  -2   3   53.54   13.14
   6   2  -3   65.40   17.78
  -6  -2   3   76.19   15.10
  -6  -2   3   64.09   15.30
   6   2  -3   58.76   15.25
  -5  -2   3   63.19   15.36
  -5  -2   3   41.22   11.37
   5   2  -3   82.51   15.89
  -5  -2   3   33.58   12.08
  -5  -2   3   79.14   15.74
  -5  -2   3   78.02   14.17
   5   2  -3   51.29   13.98
   5   2  -3   52.59   15.27
   4   2  -3  266.95   25.66
  -4  -2   3  234.70   23.81
  -4  -2   3  266.04   22.18
   4   2  -3  239.53   22.44
  -4  -2   3  248.21   22.67
   4   2  -3  230.44   22.37
  -4  -2   3  236.86   20.99
  -4  -2   3  237.44   22.12
  -3  -2   3 1196.53   53.28
   3   2  -3 1124.48   55.57
   3   2  -3 1074.61   51.87
  -3  -2   3 1068.53   52.39
   3   2  -3 1119.62   52.75
   3   2  -3 1127.65   51.65
  -3  -2   3 1120.19   51.72
  -3  -2   3 1160.64   51.20
  -3  -2   3 1118.12   51.69
  -3  -2   3 1090.95   54.36
   2   2  -3  147.40   16.35
   2   2  -3  155.83   14.88
  -2  -2   3  134.38   14.40
   2   2  -3  146.83   15.20
  -2  -2   3  173.31   16.25
   2   2  -3  153.93   15.40
  -2  -2   3  143.10   14.91
  -2  -2   3  169.64   16.71
  -2  -2   3  151.94   16.81
  -1  -2   3  614.38   34.38
  -1  -2   3  759.69   34.11
   1   2  -3  703.86   33.42
   1   2  -3  764.06   35.91
  -1  -2   3  663.83   32.43
  -1  -2   3  662.65   33.86
   1   2  -3  678.01   32.98
  -1  -2   3  657.59   33.01
   0  -2   3   70.93    8.31
   0  -2   3   88.29    9.02
   0   2  -3   82.17    8.35
   0   2  -3   69.70    8.38
   0   2  -3   90.55    9.53
   0  -2   3   84.45    8.93
   0  -2   3   70.90    9.30
   0   2  -3   69.16    8.32
  -1   2  -3  347.75   17.03
   1  -2   3  379.84   18.18
   1  -2   3  375.65   18.66
   1  -2   3  361.64   17.99
   1  -2   3  348.10   17.13
  -1   2  -3  353.99   15.27
  -1   2  -3  347.62   14.51
  -1   2  -3  338.35   15.13
   1  -2   3  342.38   16.87
  -1   2  -3  344.36   14.26
   2  -2   3 1577.47   57.88
   2  -2   3 1587.66   54.95
   2  -2   3 1445.93   54.85
   2  -2   3 1567.48   53.73
   2  -2   3 1611.02   55.06
  -2   2  -3 1551.18   53.05
   2  -2   3 1535.29   54.35
  -2   2  -3 1536.47   53.22
   4  -2   3  211.81   11.15
   4  -2   3  213.65   10.23
   4  -2   3  183.95   10.43
   4  -2   3  219.72   11.41
   5  -2   3   67.71    8.38
   5  -2   3   68.05    7.31
   5  -2   3   68.61    7.88
   5  -2   3   61.25    7.32
   5  -2   3   82.17    8.67
   6  -2   3   13.96    5.84
   6  -2   3   10.47    6.04
   6  -2   3   19.36    7.00
   6  -2   3   15.48    7.00
   6  -2   3   25.10    7.26
   7  -2   3  339.62   24.10
   7  -2   3  344.02   25.86
   7  -2   3  358.11   26.22
   7  -2   3  322.84   21.03
   8  -2   3   16.69   10.60
   8  -2   3   34.50   11.80
   8   1  -3   -1.16   12.29
   8   1  -3   -0.48   12.77
  -8  -1   3   12.73    9.81
   7   1  -3  199.32   26.79
  -7  -1   3  137.43   18.54
  -7  -1   3  206.50   19.78
   7   1  -3  181.70   27.95
  -7  -1   3  169.18   24.34
   6   1  -3    3.16    7.04
  -6  -1   3    6.13    8.26
   6   1  -3   -5.37    7.90
  -6  -1   3   -3.00    5.67
   6   1  -3    5.64    8.52
   6   1  -3   -1.40    8.53
  -6  -1   3    1.87    6.90
  -6  -1   3   -8.14    5.79
   5   1  -3  480.35   37.26
  -5  -1   3  506.72   31.62
   5   1  -3  519.88   35.71
  -5  -1   3  567.69   33.13
   5   1  -3  545.96   35.77
   5   1  -3  585.11   36.76
  -5  -1   3  541.90   35.71
  -5  -1   3  500.74   35.05
  -5  -1   3  562.49   34.98
  -4  -1   3  338.67   25.94
   4   1  -3  359.93   25.53
   4   1  -3  292.09   25.80
  -4  -1   3  325.25   24.88
  -4  -1   3  388.90   25.55
  -4  -1   3  296.34   22.06
   4   1  -3  271.27   23.60
  -4  -1   3  305.56   23.64
   4   1  -3  286.79   24.22
  -4  -1   3  301.22   22.38
  -3  -1   3   74.59   12.59
   3   1  -3   57.45   11.59
  -3  -1   3   65.47   10.62
   3   1  -3   73.18   11.55
   3   1  -3   67.67   11.26
  -3  -1   3   44.81   10.38
  -3  -1   3   64.24   10.77
   3   1  -3   79.99   12.07
  -2  -1   3 3658.37  125.19
  -2  -1   3 3433.05  123.02
  -2  -1   3 3380.24  126.06
   2   1  -3 3415.87  125.13
   2   1  -3 3494.80  124.28
   2   1  -3 3459.29  123.69
  -2  -1   3 3561.52  125.07
  -2  -1   3 3445.08  128.18
   2   1  -3 3582.52  128.79
  -1  -1   3   65.34    8.97
  -1  -1   3   60.42    9.60
  -1  -1   3   65.07   10.64
   0  -1   3  992.93   40.12
   0   1  -3  985.93   41.68
   0   1  -3 1020.58   39.87
   0   1  -3 1000.84   40.34
   0   1  -3 1051.42   37.50
   0   1  -3 1143.68   42.19
   0  -1   3 1007.52   41.74
   0   1  -3 1024.59   41.79
   0  -1   3 1006.41   40.80
   0  -1   3 1084.14   43.10
   0  -1   3 1026.19   41.39
   0   1  -3 1024.02   40.78
  -1   1  -3  743.07   28.41
   1  -1   3  740.61   31.37
   1  -1   3  753.27   31.68
  -1   1  -3  735.68   30.30
  -1   1  -3  753.38   29.50
   1  -1   3  814.04   30.41
  -1   1  -3  728.80   29.57
   1  -1   3  761.18   31.32
   1  -1   3  800.43   29.98
   1  -1   3  727.09   30.80
  -1   1  -3  767.73   29.11
   2  -1   3  759.80   29.55
  -2   1  -3  736.32   28.44
   2  -1   3  759.78   29.96
   2  -1   3  697.09   28.69
   2  -1   3  741.49   27.84
  -2   1  -3  759.80   28.51
   2  -1   3  768.32   28.27
  -3   1  -3 2644.00   87.28
  -3   1  -3 2599.05   87.44
   3  -1   3 2442.34   89.56
   3  -1   3 2669.43   88.68
   3  -1   3 2597.68   87.57
   3  -1   3 2687.24   89.41
   3  -1   3 2737.55   89.68
   3  -1   3 2528.31   90.72
   4  -1   3  668.03   28.89
   4  -1   3  667.71   28.72
   4  -1   3  644.34   29.80
   4  -1   3  680.04   28.34
   4  -1   3  675.08   27.70
  -4   1  -3  681.45   25.18
   5  -1   3    5.91    4.68
   5  -1   3    5.90    4.98
   5  -1   3    2.79    5.30
   5  -1   3   -0.97    4.00
   5  -1   3    5.42    5.54
  -5   1  -3    3.62    2.73
   6  -1   3  100.95   13.51
   6  -1   3  116.69   14.57
   6  -1   3  108.59   13.27
   6  -1   3  115.42   12.73
   6  -1   3  131.88   14.10
   7  -1   3  122.68   14.97
   7  -1   3   97.63   15.10
   7  -1   3   83.88   15.18
   8  -1   3    2.78    9.28
   8  -1   3    3.79    9.18
   8  -1   3   -1.89    9.40
  -8   0   3   33.42    8.44
   8   0  -3   29.73   15.92
  -7   0   3   12.37   10.25
   7   0  -3    5.47    9.98
   7   0  -3   -7.08    8.48
  -7   0   3   -2.54    6.21
  -7   0   3   -8.44    5.89
  -6   0   3  187.57   18.55
   6   0  -3  190.51   23.14
   6   0  -3  160.70   21.78
   6   0  -3  174.41   23.70
  -6   0   3  202.61   23.00
  -6   0   3  203.98   19.44
  -6   0   3  246.32   19.17
   6   0  -3  195.07   22.84
  -5   0   3   90.63   13.58
  -5   0   3   70.56   11.88
  -5   0   3   75.58   14.54
   5   0  -3   66.58   14.00
  -5   0   3   71.78   12.84
   5   0  -3   96.41   15.38
   5   0  -3   74.65   14.43
  -5   0   3   91.65   12.30
   5   0  -3   72.37   15.72
  -5   0   3   88.23   14.47
  -4   0   3  101.30   14.29
   4   0  -3  124.05   15.15
  -4   0   3  101.31   12.95
   4   0  -3   83.79   14.81
  -4   0   3  127.09   13.28
   4   0  -3  115.90   15.02
  -4   0   3  123.77   14.68
   4   0  -3  141.89   16.00
  -4   0   3  130.85   15.10
  -4   0   3  105.06   14.45
  -3   0   3   41.03    9.22
  -3   0   3   18.51    7.08
   3   0  -3   19.36    7.06
  -3   0   3   18.96    6.30
   3   0  -3   17.33    6.75
   3   0  -3   24.94    7.43
  -3   0   3   33.56    8.74
  -3   0   3   26.29    7.39
   3   0  -3   15.68    6.97
  -2   0   3  326.89   19.83
  -2   0   3  352.12   21.81
   2   0  -3  314.38   20.53
  -2   0   3  373.80   21.11
  -2   0   3  363.04   22.31
   2   0  -3  346.82   22.55
   2   0  -3  336.29   20.44
   1   0  -3 5265.53  179.65
   1   0  -3 5187.80  178.39
   1   0  -3 5226.87  177.35
  -1   0   3 5276.01  177.76
   1   0  -3 5308.54  180.76
   1   0  -3 5366.73  181.47
  -1   0   3 5332.90  178.96
  -1   0   3 5254.87  179.61
   1   0  -3 5602.62  183.24
   0   0   3 1029.36   38.23
   0   0   3 1044.73   41.70
   0   0   3 1044.29   41.75
   0   0   3 1044.49   40.16
   0   0   3 1024.01   40.94
   0   0  -3 1020.73   41.21
   0   0  -3  954.68   40.31
   0   0  -3  982.79   41.27
   0   0  -3  967.25   39.48
   0   0  -3  975.57   38.93
   0   0   3 1058.11   39.89
   0   0   3 1010.45   41.56
   0   0  -3 1006.76   41.49
  -1   0  -3   99.99    7.78
  -1   0  -3  128.22    9.26
  -1   0  -3  104.74    8.96
   1   0   3  113.29    8.65
  -1   0  -3  124.89    9.65
  -1   0  -3  119.99    8.82
   1   0   3  109.29    8.56
   1   0   3  127.62   10.31
  -1   0  -3  100.06    8.76
   1   0   3  114.15    9.46
   1   0   3  102.52    9.21
  -1   0  -3  140.43    8.51
  -2   0  -3 2343.74   80.18
  -2   0  -3 2357.58   80.22
  -2   0  -3 2356.77   80.48
   2   0   3 2430.84   81.87
   2   0   3 2388.57   83.07
  -2   0  -3 2328.75   81.63
   2   0   3 2419.35   83.14
   2   0   3 2323.80   82.06
  -2   0  -3 2355.29   80.62
   2   0   3 2326.30   80.55
   2   0   3 2285.76   84.16
  -3   0  -3   33.99    5.40
   3   0   3   20.79    5.20
   3   0   3   25.68    5.37
   3   0   3   25.03    5.06
   3   0   3   27.37    5.61
   3   0   3   39.68    6.80
   4   0   3  148.76   12.42
   4   0   3  142.67   13.35
   4   0   3  124.69   11.67
   4   0   3  132.43   11.57
  -4   0  -3  131.37   10.49
   4   0   3  128.92   11.69
   5   0   3  620.38   34.50
   5   0   3  661.85   33.08
   5   0   3  660.70   33.06
  -5   0  -3  635.88   29.39
   5   0   3  674.01   33.44
   5   0   3  653.83   33.74
   6   0   3  833.24   42.13
  -6   0  -3  825.24   36.45
   6   0   3  838.15   42.07
   6   0   3  787.86   43.77
   6   0   3  810.07   40.99
   6   0   3  773.17   40.47
   7   0   3   69.68   14.51
  -7   0  -3   65.16   10.05
   7   0   3   71.85   14.44
   7   0   3   61.45   15.20
   7   0   3   62.90   13.53
   8   0   3   26.81   12.30
  -8   0  -3   18.29    7.40
   8   0   3   10.02   10.57
   8   0   3    1.85    9.71
   8  -1  -3   92.70   23.23
  -7   1   3   19.05    6.48
  -7   1   3   15.12   11.07
   7  -1  -3   34.05   13.90
   7  -1  -3   39.36   14.08
  -7   1   3   32.22    8.04
  -7   1   3   24.11    7.18
  -6   1   3  293.40   20.75
   6  -1  -3  308.75   29.57
   6  -1  -3  293.32   26.46
  -6   1   3  277.55   25.38
   6  -1  -3  213.31   29.48
   6  -1  -3  294.58   26.34
  -6   1   3  291.07   20.90
   6  -1  -3  268.32   26.03
  -6   1   3  306.97   19.97
   5  -1  -3   14.55    8.49
   5  -1  -3    7.54    6.75
   5  -1  -3    7.43    6.99
   5  -1  -3   -4.66    5.45
  -5   1   3    3.83    7.13
   5  -1  -3    8.79    9.17
  -5   1   3    1.83    5.08
  -5   1   3   13.22    6.45
  -5   1   3    5.05    6.49
  -5   1   3   13.62    8.14
  -5   1   3    3.68    6.43
   4  -1  -3  714.32   37.03
   4  -1  -3  675.24   36.31
   4  -1  -3  656.06   35.49
  -4   1   3  658.37   32.54
   4  -1  -3  665.07   40.93
  -4   1   3  687.51   34.57
  -4   1   3  638.01   35.95
  -4   1   3  669.08   35.43
  -4   1   3  670.89   33.41
   4  -1  -3  626.92   38.13
  -4   1   3  746.41   34.83
  -3   1   3   57.53    8.76
   3  -1  -3   52.60   11.11
  -3   1   3   57.04    9.68
   3  -1  -3   74.92   10.49
  -3   1   3   57.89    8.75
   3  -1  -3   62.79    9.72
   3  -1  -3   52.39   10.36
  -3   1   3   47.19    9.25
   3  -1  -3   66.45   10.33
  -3   1   3   40.52    9.15
  -2   1   3   11.25    4.85
   2  -1  -3    2.99    4.15
  -2   1   3    8.75    5.30
  -2   1   3   14.27    5.02
  -2   1   3    0.90    3.99
   2  -1  -3    4.19    4.82
   2  -1  -3    0.90    4.42
   2  -1  -3    6.81    4.76
   2  -1  -3    3.41    4.43
   2  -1  -3    4.60    4.42
   1  -1  -3  415.31   20.48
   1  -1  -3  356.30   19.90
   1  -1  -3  404.61   22.02
   1  -1  -3  353.12   20.75
   1  -1  -3  369.07   21.51
   1  -1  -3  398.32   21.95
  -1   1   3  413.64   22.10
  -1   1   3  376.08   19.77
  -1   1   3  396.49   21.49
  -1   1   3  371.10   21.13
   1  -1  -3  381.16   21.37
  -1   1   3  379.02   20.40
   0  -1  -3  553.66   26.40
   0   1   3  591.48   27.75
   0   1   3  566.45   25.17
   0  -1  -3  599.33   27.79
   0  -1  -3  570.40   25.55
   0   1   3  535.61   26.44
   0  -1  -3  611.26   27.42
   0  -1  -3  543.16   26.24
   0  -1  -3  537.29   24.69
   0   1   3  545.67   26.84
   1   1   3 1079.43   44.34
   1   1   3 1155.63   45.21
  -1  -1  -3 1196.58   44.81
  -1  -1  -3 1110.06   42.38
   1   1   3 1116.23   46.27
  -1  -1  -3 1041.72   43.97
   1   1   3 1211.68   44.46
   1   1   3 1118.34   43.05
  -1  -1  -3 1103.51   43.22
   1   1   3 1135.01   45.58
  -1  -1  -3 1181.64   45.00
  -1  -1  -3 1160.83   45.92
  -2  -1  -3 2262.65   75.05
  -2  -1  -3 2148.15   75.92
   2   1   3 2175.11   79.05
   2   1   3 2208.71   76.88
   2   1   3 2258.66   78.25
   2   1   3 2126.38   81.01
  -2  -1  -3 2224.38   77.96
  -2  -1  -3 2253.20   77.84
   2   1   3 2100.03   78.05
   2   1   3 2094.56   78.94
  -2  -1  -3 2043.56   78.08
  -2  -1  -3 2077.97   76.63
  -3  -1  -3   54.69    7.90
   3   1   3   39.26    7.20
   3   1   3   37.71    7.11
   3   1   3   42.65    8.73
   3   1   3   49.50    8.06
  -3  -1  -3   45.91    5.58
   3   1   3   32.68    7.22
  -3  -1  -3   55.38    6.83
  -3  -1  -3   54.80    5.63
  -3  -1  -3   48.62    5.66
  -3  -1  -3   55.89    6.55
   4   1   3  193.29   16.05
  -4  -1  -3  182.62    9.22
  -4  -1  -3  185.06    9.89
  -4  -1  -3  184.95   11.37
  -4  -1  -3  195.51   14.46
   4   1   3  199.13   15.94
   4   1   3  162.35   15.15
  -4  -1  -3  183.56   11.33
  -4  -1  -3  190.79    9.98
   4   1   3  197.31   16.21
   4   1   3  183.57   17.35
   5   1   3  527.37   31.45
   5   1   3  551.52   31.26
   5   1   3  588.65   31.70
   5   1   3  544.47   31.78
  -5  -1  -3  496.70   28.07
   5   1   3  508.20   32.78
  -6  -1  -3  169.60   15.88
   6   1   3  168.13   20.50
   6   1   3  145.28   17.55
   6   1   3  154.32   18.77
   6   1   3  188.47   19.27
   6   1   3  185.11   19.69
   7   1   3  382.73   33.50
   7   1   3  386.26   29.90
   7   1   3  380.96   31.14
   7   1   3  351.50   29.80
  -7  -1  -3  429.16   27.01
  -8  -1  -3   11.40    8.94
   8   1   3   19.26   12.36
   8   1   3   24.18   13.65
   8  -2  -3    3.18   11.30
  -8   2   3    1.38   11.54
   7  -2  -3  134.75   22.46
   7  -2  -3  141.92   20.40
  -7   2   3  116.04   18.70
   7  -2  -3  123.21   20.65
  -6   2   3   54.03   13.20
  -6   2   3   52.74    7.25
   6  -2  -3   41.71   12.34
   6  -2  -3   36.05   14.22
  -6   2   3   44.37    7.30
  -6   2   3   38.03    6.29
  -6   2   3   61.39    8.05
   6  -2  -3   63.92   14.57
   6  -2  -3   41.06   12.27
   6  -2  -3   42.66   13.59
   5  -2  -3   29.47    9.75
  -5   2   3   17.96    7.30
   5  -2  -3   17.37    7.94
  -5   2   3   37.37    7.34
  -5   2   3    3.28    3.74
   5  -2  -3   29.44   12.28
   5  -2  -3   33.50   10.11
  -5   2   3   24.26    8.87
   5  -2  -3   18.33    9.31
  -5   2   3   31.10    7.54
  -5   2   3   29.77    7.81
   4  -2  -3   90.82   12.56
   4  -2  -3  105.44   17.38
   4  -2  -3   95.03   13.01
  -4   2   3  121.10   11.91
   4  -2  -3   95.66   14.42
  -4   2   3  103.55   10.61
  -4   2   3   83.07   10.01
  -4   2   3   97.51   13.54
  -4   2   3   66.83   10.08
  -4   2   3  113.11   12.29
   4  -2  -3  112.23   13.54
   3  -2  -3   25.33    7.76
  -3   2   3   20.73    6.49
  -3   2   3   25.11    6.05
  -3   2   3   21.25    6.41
   3  -2  -3   25.24    8.82
   3  -2  -3   20.21    6.77
  -3   2   3   25.99    7.08
   3  -2  -3   32.65    8.70
  -3   2   3   19.84    7.08
   3  -2  -3   27.81    7.12
   3  -2  -3   37.44    8.47
   2  -2  -3  336.40   23.00
   2  -2  -3  307.51   18.61
  -2   2   3  321.32   20.41
  -2   2   3  330.85   18.33
   2  -2  -3  329.39   19.41
  -2   2   3  319.81   22.01
  -2   2   3  285.14   18.11
  -2   2   3  297.24   19.21
   2  -2  -3  349.72   21.41
   2  -2  -3  309.42   20.08
   2  -2  -3  317.98   20.39
  -1   2   3  506.12   25.68
   1  -2  -3  513.04   26.54
   1  -2  -3  478.99   25.88
   1  -2  -3  522.50   24.37
  -1   2   3  486.26   25.28
   1  -2  -3  467.16   25.16
   1  -2  -3  480.78   25.64
   1  -2  -3  496.05   24.54
  -1   2   3  504.47   27.00
  -1   2   3  466.12   23.85
   0   2   3  437.00   23.53
   0   2   3  407.10   21.53
   0  -2  -3  435.03   22.56
   0   2   3  413.61   22.31
   0   2   3  434.13   22.71
   0  -2  -3  388.31   21.08
   0  -2  -3  438.43   23.04
   0  -2  -3  419.08   22.12
   0  -2  -3  431.12   20.94
   0   2   3  414.33   21.02
   0  -2  -3  361.65   22.41
   1   2   3  157.95   13.45
  -1  -2  -3  178.85   12.41
   1   2   3  140.05   12.07
   1   2   3  152.45   12.71
   1   2   3  152.41   12.30
  -1  -2  -3  132.35   11.86
  -1  -2  -3  145.42   12.54
   1   2   3  134.56   13.28
  -1  -2  -3  141.48   13.33
  -1  -2  -3  184.97   12.24
  -2  -2  -3  331.73   18.68
   2   2   3  319.29   19.42
  -2  -2  -3  369.14   19.69
  -2  -2  -3  379.23   22.03
   2   2   3  375.80   20.81
   2   2   3  368.31   23.22
  -2  -2  -3  321.59   19.49
   2   2   3  345.48   20.61
   2   2   3  357.18   21.46
  -2  -2  -3  355.51   20.27
  -2  -2  -3  370.25   20.86
   3   2   3 1852.31   73.50
  -3  -2  -3 1985.36   69.77
   3   2   3 1866.88   73.86
  -3  -2  -3 1905.32   72.82
  -3  -2  -3 1892.07   72.19
  -3  -2  -3 1947.14   70.91
   3   2   3 1926.17   72.89
   3   2   3 1739.83   76.08
   3   2   3 1951.36   75.17
  -3  -2  -3 1938.55   74.00
  -3  -2  -3 1841.22   71.05
  -4  -2  -3  531.28   25.71
   4   2   3  539.95   32.83
   4   2   3  587.85   31.79
  -4  -2  -3  518.21   28.93
  -4  -2  -3  507.27   26.96
  -4  -2  -3  516.74   25.26
  -4  -2  -3  530.07   26.19
   4   2   3  523.55   30.98
  -4  -2  -3  551.91   28.70
  -4  -2  -3  516.06   25.90
   4   2   3  524.64   30.17
   4   2   3  521.93   30.51
   5   2   3  204.46   20.50
  -5  -2  -3  178.73   13.28
   5   2   3  176.20   18.65
  -5  -2  -3  137.35   15.73
  -5  -2  -3  188.49   13.21
   5   2   3  213.94   20.32
  -5  -2  -3  200.51   14.93
  -5  -2  -3  185.79   15.38
  -5  -2  -3  199.94   13.59
   5   2   3  207.22   19.91
   5   2   3  181.68   21.04
  -6  -2  -3   20.44    4.30
  -6  -2  -3   34.87    9.66
   6   2   3   22.15   10.57
   6   2   3   23.38   10.98
   6   2   3   21.98    9.89
   6   2   3    4.05    7.79
   6   2   3   46.20   13.46
   7   2   3  160.26   21.46
   7   2   3  163.17   24.51
  -7  -2  -3  124.75   17.13
   7   2   3  155.61   21.72
   7   2   3  133.85   21.15
   8   2   3  100.32   21.06
  -8  -2  -3  158.79   20.21
   8   2   3  125.06   25.28
   7  -3  -3  191.21   25.84
   7  -3  -3  189.62   23.43
   7  -3  -3  205.41   23.23
   6  -3  -3   49.56   13.58
   6  -3  -3   55.22   13.29
   6  -3  -3   37.41   15.41
   6  -3  -3   42.78   11.91
   6  -3  -3   33.50   10.87
   5  -3  -3  162.63   23.82
  -5   3   3  158.55   11.54
  -5   3   3  166.64   11.41
   5  -3  -3  169.30   20.07
  -5   3   3  182.45   11.50
   5  -3  -3  166.67   19.41
  -5   3   3  150.94   10.57
   5  -3  -3  135.18   16.50
   5  -3  -3  170.39   17.97
   5  -3  -3  148.28   17.00
  -4   3   3   88.18    9.90
   4  -3  -3   78.87   13.10
   4  -3  -3   64.84   11.22
   4  -3  -3   86.45   12.20
   4  -3  -3   66.12   12.31
   4  -3  -3   69.87   15.59
  -4   3   3   73.13    8.77
  -4   3   3   66.85    8.64
   4  -3  -3   71.63   11.71
  -4   3   3   82.12    9.75
   3  -3  -3 1378.22   53.39
   3  -3  -3 1218.70   53.70
   3  -3  -3 1180.74   60.49
  -3   3   3 1245.48   51.85
   3  -3  -3 1281.97   54.96
  -3   3   3 1317.73   51.38
  -3   3   3 1312.35   52.69
   3  -3  -3 1342.68   56.40
  -3   3   3 1360.48   50.60
   3  -3  -3 1219.47   55.79
   2  -3  -3  344.74   20.07
  -2   3   3  370.05   19.63
  -2   3   3  320.86   23.60
   2  -3  -3  322.14   19.84
   2  -3  -3  348.62   21.78
   2  -3  -3  351.86   21.63
   2  -3  -3  333.94   24.28
   2  -3  -3  316.49   21.26
   2  -3  -3  304.00   21.24
  -2   3   3  327.04   20.01
  -2   3   3  319.35   19.20
   1  -3  -3 1100.58   44.92
   1  -3  -3 1115.24   46.41
  -1   3   3 1090.05   45.89
   1  -3  -3 1015.23   46.53
  -1   3   3 1134.05   44.06
   1  -3  -3 1045.62   45.17
  -1   3   3 1046.35   44.41
  -1   3   3 1050.70   48.54
   1  -3  -3 1027.93   46.02
   1  -3  -3 1057.11   43.56
  -1   3   3 1075.71   45.99
   0   3   3   51.34    8.21
   0  -3  -3   55.78    7.98
   0  -3  -3   55.51    9.23
   0   3   3   45.52    8.43
   0  -3  -3   44.85    7.74
   0   3   3   53.29    8.11
   0   3   3   67.52    9.65
   0  -3  -3   52.41    8.66
   0  -3  -3   59.98    8.99
   0  -3  -3   55.36    9.43
   1   3   3 2542.04   90.33
   1   3   3 2331.03   91.24
   1   3   3 2458.90   88.50
   1   3   3 2343.91   89.72
  -1  -3  -3 2393.51   89.09
  -1  -3  -3 2430.36   91.05
  -1  -3  -3 2416.47   93.40
   1   3   3 2528.07   93.64
  -1  -3  -3 2422.50   87.76
  -1  -3  -3 2511.49   89.97
   2   3   3  485.43   27.62
  -2  -3  -3  472.79   26.24
  -2  -3  -3  508.53   27.67
   2   3   3  509.19   28.80
  -2  -3  -3  511.59   26.22
   2   3   3  504.78   27.11
  -2  -3  -3  505.52   29.24
   2   3   3  492.47   27.61
   2   3   3  465.54   29.25
  -3  -3  -3 2104.55   83.40
  -3  -3  -3 2251.69   84.86
   3   3   3 2267.53   87.13
   3   3   3 2175.59   89.99
  -3  -3  -3 2268.27   82.63
   3   3   3 2198.48   87.41
  -3  -3  -3 2128.22   86.83
  -3  -3  -3 2259.55   85.34
   3   3   3 2288.48   86.67
   3   3   3 2053.41   84.15
   4   3   3   48.14   11.16
   4   3   3   27.83   10.19
  -4  -3  -3   44.61   10.04
   4   3   3   57.29   12.12
  -4  -3  -3   49.70    9.36
  -4  -3  -3   41.65    8.94
  -4  -3  -3   41.00   10.16
   4   3   3   56.60   11.60
  -4  -3  -3   38.83    8.71
   4   3   3   59.71   12.26
   5   3   3  242.82   23.30
   5   3   3  304.73   27.89
   5   3   3  276.87   25.02
  -5  -3  -3  273.92   19.72
  -5  -3  -3  264.41   19.59
  -5  -3  -3  244.43   22.16
   5   3   3  267.89   24.97
  -5  -3  -3  274.43   19.45
  -5  -3  -3  279.59   22.16
  -5  -3  -3  290.51   19.74
  -5  -3  -3  313.42   22.05
   5   3   3  270.57   24.25
  -6  -3  -3  112.15   12.28
  -6  -3  -3   82.09   14.99
   6   3   3   95.80   17.19
  -6  -3  -3  129.31   13.09
   6   3   3  109.59   18.07
  -6  -3  -3  135.26   13.21
   6   3   3   96.54   17.98
   6   3   3   74.83   18.14
   7   3   3    1.41    9.38
  -7  -3  -3    0.88    5.36
  -7  -3  -3    1.81    7.97
  -7  -3  -3   -1.25    4.69
   7   3   3    8.56   10.43
   7   3   3   -2.88    8.80
  -7  -3  -3    3.65    4.99
   7   3   3   -7.34    8.78
  -8  -3  -3  219.36   25.88
   8   3   3  231.65   30.09
   8   3   3  226.32   32.32
   7  -4  -3   66.72   17.19
   7  -4  -3   44.98   14.07
   6  -4  -3  112.44   16.67
   6  -4  -3  153.92   18.41
   6  -4  -3  119.90   18.88
   6  -4  -3   99.98   22.95
   6  -4  -3  107.66   16.44
   5  -4  -3   -5.07    6.58
   5  -4  -3   14.79    7.76
   5  -4  -3   14.19    8.58
   5  -4  -3    4.52    6.78
   5  -4  -3   10.51    8.29
   5  -4  -3    4.52    6.84
  -4   4   3   39.05    5.80
   4  -4  -3   34.10    9.54
   4  -4  -3   34.36    9.74
   4  -4  -3   19.83   11.20
  -4   4   3   35.17    6.10
  -4   4   3   28.38    5.52
   4  -4  -3   36.52    8.97
   4  -4  -3   21.85    8.31
   4  -4  -3   45.64    9.58
  -4   4   3   34.07    5.40
   3  -4  -3 1709.01   68.71
   3  -4  -3 1643.32   68.73
  -3   4   3 1760.41   64.96
   3  -4  -3 1660.75   66.53
   3  -4  -3 1672.89   70.57
   3  -4  -3 1744.31   68.21
   3  -4  -3 1676.40   70.40
  -3   4   3 1806.94   77.94
   3  -4  -3 1647.38   70.37
  -3   4   3 1735.11   62.76
   3  -4  -3 1676.32   77.98
   2  -4  -3   26.14    7.36
   2  -4  -3   19.78    7.34
  -2   4   3   22.86    6.23
   2  -4  -3   27.56    7.66
  -2   4   3   31.43    7.35
  -2   4   3   28.33    9.06
   2  -4  -3   21.76    7.49
   2  -4  -3   15.69    6.69
   2  -4  -3   17.97    6.38
   2  -4  -3   18.77    6.38
  -2   4   3   26.80    6.52
  -1   4   3 1051.93   42.85
   1  -4  -3 1002.37   44.12
  -1   4   3  998.86   44.39
   1  -4  -3  968.91   45.17
  -1   4   3 1041.44   43.82
   1  -4  -3  997.55   46.69
   1  -4  -3 1008.93   44.75
   1  -4  -3 1010.57   43.32
   1  -4  -3 1067.46   46.31
  -1   4   3  995.21   49.14
  -1   4   3 1020.94   45.55
   0   4   3    1.98    3.94
   0  -4  -3   -1.03    3.92
   0  -4  -3    0.75    4.08
   0   4   3    1.10    4.29
   0  -4  -3    2.65    4.61
   0  -4  -3   -5.35    3.32
   0   4   3   -0.09    4.69
   0   4   3    2.51    4.12
   0  -4  -3    7.35    4.54
   0  -4  -3    1.59    4.18
   0   4   3    6.24    5.09
  -1  -4  -3  173.65   15.83
   1   4   3  207.46   16.81
   1   4   3  177.92   16.18
   1   4   3  179.75   17.16
   1   4   3  171.04   15.29
  -1  -4  -3  178.38   15.39
  -1  -4  -3  148.21   15.24
  -1  -4  -3  154.47   16.77
   1   4   3  193.82   17.12
  -1  -4  -3  176.63   14.82
  -2  -4  -3 2171.28   81.90
  -2  -4  -3 2169.67   84.33
   2   4   3 2088.12   84.08
   2   4   3 2128.24   84.86
   2   4   3 2282.97   87.15
  -2  -4  -3 2137.08   83.28
  -2  -4  -3 2043.48   86.78
   2   4   3 2069.81   87.99
  -2  -4  -3 2252.61   85.55
   2   4   3 2093.44   83.18
  -3  -4  -3  119.93   14.84
   3   4   3  118.67   15.99
   3   4   3  103.58   14.44
   3   4   3  108.65   14.76
  -3  -4  -3   90.43   14.69
  -3  -4  -3  117.58   13.60
  -3  -4  -3  122.22   14.01
  -3  -4  -3  115.84   14.34
   3   4   3  128.87   16.13
   3   4   3  111.76   16.51
  -4  -4  -3  141.66   18.15
   4   4   3  119.23   17.22
   4   4   3  102.41   15.99
   4   4   3  113.64   16.95
   4   4   3  137.30   19.92
  -4  -4  -3  104.17   14.00
   4   4   3  105.12   16.05
  -4  -4  -3  138.80   16.91
  -4  -4  -3  107.95   14.64
  -4  -4  -3  132.57   14.91
  -5  -4  -3  680.18   37.36
  -5  -4  -3  696.64   40.37
   5   4   3  642.78   41.01
  -5  -4  -3  665.92   37.05
  -5  -4  -3  684.18   40.90
   5   4   3  630.86   44.28
   5   4   3  653.66   42.60
   5   4   3  643.83   41.94
  -5  -4  -3  667.39   36.48
   5   4   3  658.42   40.90
  -6  -4  -3   15.20    8.04
   6   4   3    3.64    9.14
   6   4   3   12.52   10.07
  -6  -4  -3    8.08    6.87
  -6  -4  -3   10.03    7.13
  -6  -4  -3    8.34    8.92
   6   4   3   11.48   10.23
   6   4   3   14.25   10.83
   7   4   3  142.67   26.11
   7   4   3  151.96   25.47
  -7  -4  -3  164.76   16.70
   7   4   3  156.27   24.39
  -7  -4  -3  127.79   20.74
  -8  -4  -3  186.14   15.33
   8   4   3  188.40   28.97
   8   4   3  181.39   31.43
   7  -5  -3   58.26   16.68
   6  -5  -3   61.91   14.10
   6  -5  -3   54.40   12.68
   6  -5  -3   47.38   13.73
   6  -5  -3   71.16   21.07
   6  -5  -3   67.68   13.62
   5  -5  -3  304.74   25.95
   5  -5  -3  287.75   22.61
   5  -5  -3  316.22   23.84
   5  -5  -3  305.98   25.69
   5  -5  -3  312.84   23.81
   5  -5  -3  262.51   24.69
   5  -5  -3  308.51   33.35
   5  -5  -3  298.97   24.58
   4  -5  -3  272.85   22.55
   4  -5  -3  315.52   22.32
   4  -5  -3  297.14   23.96
   4  -5  -3  301.26   22.81
   4  -5  -3  297.60   22.84
   4  -5  -3  283.12   30.55
   4  -5  -3  316.22   24.87
   4  -5  -3  303.68   22.14
   3  -5  -3   38.60   10.50
   3  -5  -3   55.79   10.12
   3  -5  -3   31.91    9.58
   3  -5  -3   43.95   13.28
  -3   5   3   42.53    7.35
   3  -5  -3   59.95   10.95
  -3   5   3   43.47    6.90
  -3   5   3   57.32   13.90
   3  -5  -3   55.65   10.66
   3  -5  -3   42.58    9.13
   3  -5  -3   47.70   10.44
   2  -5  -3   44.35    9.12
   2  -5  -3   56.74   10.43
  -2   5   3   62.88    9.32
  -2   5   3   55.26    8.70
   2  -5  -3   63.35   10.72
   2  -5  -3   62.05    9.87
   2  -5  -3   51.09   10.43
   2  -5  -3   75.41   12.11
  -2   5   3   50.56   12.23
  -2   5   3   68.70    9.09
  -1   5   3  230.28   16.25
   1  -5  -3  176.74   16.22
  -1   5   3  183.93   16.82
   1  -5  -3  186.32   16.83
   1  -5  -3  171.66   16.03
   1  -5  -3  219.11   17.28
  -1   5   3  195.90   17.18
  -1   5   3  193.84   16.73
   1  -5  -3  212.90   19.24
   1  -5  -3  206.33   18.16
  -1   5   3  205.90   16.04
  -1   5   3  184.80   20.18
   0  -5  -3 2352.70   89.16
   0  -5  -3 2413.67   93.24
   0  -5  -3 2354.62   90.66
   0  -5  -3 2369.31   95.19
   0   5   3 2419.63   94.18
   0   5   3 2303.70   91.06
   0   5   3 2263.44   88.78
   0   5   3 2465.41   91.33
   0  -5  -3 2440.88   91.40
   0   5   3 2373.84   92.11
   1   5   3 1202.54   53.44
  -1  -5  -3 1161.78   56.02
  -1  -5  -3 1206.47   54.65
   1   5   3 1099.80   53.60
  -1  -5  -3 1168.90   53.12
  -1  -5  -3 1086.76   51.63
  -1  -5  -3 1193.95   51.76
   1   5   3 1149.57   51.90
   1   5   3 1233.86   53.97
   2   5   3  358.59   25.54
   2   5   3  351.91   27.83
   2   5   3  391.94   27.14
  -2  -5  -3  341.88   24.27
   2   5   3  340.16   25.28
  -2  -5  -3  364.22   25.72
   2   5   3  329.97   25.06
  -2  -5  -3  384.66   26.50
  -2  -5  -3  351.79   27.63
  -2  -5  -3  388.61   25.40
  -3  -5  -3  456.86   30.45
   3   5   3  480.60   32.61
  -3  -5  -3  433.22   30.24
  -3  -5  -3  414.96   28.60
  -3  -5  -3  451.76   32.50
   3   5   3  408.11   29.54
   3   5   3  470.76   34.15
  -3  -5  -3  505.45   30.50
   3   5   3  450.94   31.15
   3   5   3  484.91   32.80
  -4  -5  -3  557.85   36.99
  -4  -5  -3  630.24   37.81
   4   5   3  612.28   39.25
   4   5   3  628.05   39.71
   4   5   3  554.62   40.77
   4   5   3  604.56   38.23
   4   5   3  583.61   39.31
  -4  -5  -3  671.01   41.48
  -4  -5  -3  595.55   36.02
   5   5   3   69.81   17.76
  -5  -5  -3   53.87   14.80
  -5  -5  -3   73.72   13.65
   5   5   3   57.24   14.86
  -5  -5  -3   40.35   12.04
  -5  -5  -3   68.18   14.58
   5   5   3   56.51   15.19
   5   5   3   57.14   16.24
   5   5   3  104.55   18.87
  -6  -5  -3  627.86   37.28
  -6  -5  -3  548.01   39.63
   6   5   3  624.46   45.18
   6   5   3  561.86   46.01
  -6  -5  -3  594.07   37.86
   6   5   3  608.67   43.72
  -6  -5  -3  600.91   37.36
   6   5   3  536.92   41.78
   7   5   3   40.24   16.92
  -7  -5  -3   46.68   12.60
   7   5   3   40.46   15.77
   7   5   3   81.92   22.56
   7  -6  -3  175.80   24.40
   7  -6  -3  155.48   23.49
   6  -6  -3   40.36   12.76
   6  -6  -3   47.16   12.68
   6  -6  -3   70.64   16.30
   6  -6  -3   58.70   12.99
   5  -6  -3  168.37   18.67
   5  -6  -3  188.41   21.10
   5  -6  -3  136.56   18.73
   5  -6  -3  188.57   19.73
   5  -6  -3  168.52   18.18
   5  -6  -3  206.55   19.73
   5  -6  -3  194.27   21.55
   5  -6  -3  182.43   28.37
   4  -6  -3   14.10    8.68
   4  -6  -3    2.26    8.34
   4  -6  -3    2.85    6.53
   4  -6  -3   -1.78    6.11
   4  -6  -3   25.58    9.40
   4  -6  -3    9.37    6.67
   4  -6  -3   10.16    8.57
   4  -6  -3   18.86    8.02
   3  -6  -3   26.09    9.28
   3  -6  -3   31.48    9.62
   3  -6  -3   40.09   10.05
   3  -6  -3   30.14    8.87
   3  -6  -3   28.02    9.65
  -3   6   3   26.67    5.52
   3  -6  -3   45.10   10.13
  -3   6   3   32.44   12.26
   3  -6  -3   25.49    9.09
  -3   6   3   37.60    5.98
  -2   6   3  857.02   49.56
   2  -6  -3  866.73   42.57
  -2   6   3  841.42   38.59
  -2   6   3  844.04   37.62
   2  -6  -3  783.74   41.23
   2  -6  -3  837.10   43.71
   2  -6  -3  896.51   41.54
   2  -6  -3  866.60   45.51
   2  -6  -3  897.68   43.77
  -2   6   3  891.54   40.01
   1  -6  -3    1.04    4.95
  -1   6   3    0.00    5.87
   1  -6  -3    2.53    5.61
  -1   6   3    4.76    5.32
   1  -6  -3    2.54    5.00
  -1   6   3   -6.10    4.58
   1  -6  -3   -0.96    5.27
  -1   6   3    2.53    5.25
  -1   6   3    2.29    5.18
  -1   6   3   -2.64    4.30
   1  -6  -3    6.71    5.73
   0   6   3 1279.78   58.26
   0   6   3 1181.75   55.22
   0  -6  -3 1153.94   58.47
   0  -6  -3 1235.90   54.52
   0  -6  -3 1250.51   57.52
   0   6   3 1240.73   53.92
   0  -6  -3 1202.44   55.58
   0   6   3 1263.87   55.05
   0   6   3 1132.13   54.93
   0  -6  -3 1154.73   54.36
   1   6   3  110.13   15.56
   1   6   3  177.39   18.76
  -1  -6  -3  171.93   17.74
  -1  -6  -3  150.86   17.91
  -1  -6  -3  168.20   19.86
  -1  -6  -3  124.44   15.86
  -1  -6  -3  173.86   17.85
   1   6   3  141.64   18.04
   1   6   3  184.24   19.51
   1   6   3  146.75   16.47
   2   6   3  111.30   15.72
  -2  -6  -3   73.33   13.41
  -2  -6  -3   78.55   15.91
  -2  -6  -3   57.85   12.71
   2   6   3   60.63   12.95
   2   6   3   73.11   14.31
  -2  -6  -3  103.95   14.88
   2   6   3   94.08   15.88
   2   6   3   95.40   16.65
  -2  -6  -3   81.34   14.62
   3   6   3 1056.08   55.40
   3   6   3 1021.54   53.66
   3   6   3  917.68   57.05
  -3  -6  -3  961.28   52.12
   3   6   3 1067.05   56.92
   3   6   3 1074.71   55.38
  -3  -6  -3 1057.36   54.53
  -3  -6  -3 1105.51   55.54
  -3  -6  -3 1132.68   53.89
  -3  -6  -3 1164.84   59.82
   4   6   3   -1.84    7.50
   4   6   3    7.47    8.77
  -4  -6  -3    9.11   10.27
  -4  -6  -3    8.18    7.76
   4   6   3    9.57   10.02
   4   6   3   13.27    9.70
   4   6   3    3.17    6.80
  -4  -6  -3    2.97    6.99
  -4  -6  -3   10.77    9.15
  -5  -6  -3   81.39   16.41
   5   6   3   71.38   19.96
   5   6   3   58.00   15.79
  -5  -6  -3   59.52   16.66
   5   6   3   69.27   17.67
  -5  -6  -3   28.14   11.02
   5   6   3   40.95   14.37
  -5  -6  -3   77.28   15.43
   6   6   3  582.74   49.28
   6   6   3  445.87   40.05
  -6  -6  -3  524.66   39.86
  -6  -6  -3  526.75   37.21
   6   6   3  577.07   45.22
  -6  -6  -3  510.89   36.31
  -6  -6  -3  583.65   39.30
   7   6   3   22.34   15.53
   7   6   3   23.52   16.87
  -7  -6  -3    3.58    9.93
   7   6   3   -7.04   10.21
   6  -7  -3  428.69   34.73
   6  -7  -3  441.57   34.04
   6  -7  -3  417.04   30.25
   5  -7  -3  166.54   18.63
   5  -7  -3  140.38   19.78
   5  -7  -3  137.28   19.11
   5  -7  -3  131.94   17.73
   5  -7  -3  131.94   17.53
   5  -7  -3  141.70   17.91
   4  -7  -3   36.36   10.98
   4  -7  -3   51.67   11.86
  -4   7   3   39.59   14.19
   4  -7  -3   46.24   12.47
   4  -7  -3   54.69   12.24
   4  -7  -3   50.51   12.06
   4  -7  -3   40.01   12.34
   4  -7  -3   50.70   12.00
  -3   7   3  243.34   13.48
   3  -7  -3  268.87   22.25
  -3   7   3  232.95   27.25
   3  -7  -3  250.37   24.04
   3  -7  -3  224.30   20.87
   3  -7  -3  293.06   24.57
   3  -7  -3  254.49   21.49
   3  -7  -3  238.45   22.23
   2  -7  -3   62.43   12.47
  -2   7   3   60.74   10.17
  -2   7   3   49.69   14.67
   2  -7  -3   63.18   12.67
   2  -7  -3   46.87   12.42
   2  -7  -3   37.10   10.17
   2  -7  -3   64.05   13.86
   2  -7  -3   27.98    9.70
  -2   7   3   63.97    9.40
  -2   7   3   53.22    9.04
  -1   7   3  208.24   19.44
   1  -7  -3  186.52   20.54
   1  -7  -3  263.99   21.34
   1  -7  -3  202.44   22.11
  -1   7   3  262.33   19.76
  -1   7   3  266.92   19.61
  -1   7   3  245.12   21.58
   1  -7  -3  202.50   20.47
   1  -7  -3  188.54   19.50
  -1   7   3  230.89   20.92
   0  -7  -3   59.18   14.37
   0   7   3   57.85   13.17
   0   7   3   73.07   13.44
   0  -7  -3   73.80   13.56
   0  -7  -3   82.99   14.07
   0  -7  -3   83.41   14.56
   0   7   3   88.23   13.63
   0  -7  -3   91.85   14.62
   0   7   3   69.26   13.95
   0   7   3   94.46   14.39
   1   7   3    8.96    7.93
  -1  -7  -3   13.38    7.97
   1   7   3   -4.93    5.52
  -1  -7  -3    5.28    7.52
  -1  -7  -3    7.57    7.57
   1   7   3    7.53    7.51
   1   7   3   -7.94    5.82
  -1  -7  -3   -3.29    5.30
  -1  -7  -3    4.27    7.05
   1   7   3   14.94    8.26
   2   7   3  609.21   41.51
   2   7   3  687.32   42.22
  -2  -7  -3  620.30   39.42
   2   7   3  692.94   44.91
  -2  -7  -3  661.29   40.98
  -2  -7  -3  711.41   42.38
  -2  -7  -3  789.60   44.70
   2   7   3  688.64   40.94
  -2  -7  -3  658.48   45.07
   2   7   3  748.39   43.88
  -3  -7  -3    1.79    7.06
   3   7   3    0.70    7.81
   3   7   3   10.29   10.17
  -3  -7  -3    1.62    7.40
  -3  -7  -3   -0.97    6.86
   3   7   3   -4.04    6.06
   3   7   3   -1.39    7.27
  -3  -7  -3    1.97    7.78
   3   7   3   -1.06    8.36
   4   7   3  458.02   40.78
   4   7   3  429.09   37.03
  -4  -7  -3  435.87   33.64
   4   7   3  399.11   35.39
  -4  -7  -3  449.22   35.60
   4   7   3  418.18   35.89
  -4  -7  -3  409.97   38.14
   4   7   3  464.09   35.67
  -4  -7  -3  453.01   35.49
   5   7   3  144.82   24.06
  -5  -7  -3  131.84   20.16
  -5  -7  -3   75.78   17.85
  -5  -7  -3  110.41   20.54
   5   7   3  108.98   21.49
  -5  -7  -3  120.99   23.59
   5   7   3  147.07   24.95
   5   7   3  106.25   23.12
  -6  -7  -3   68.63   17.34
  -6  -7  -3   52.56   15.59
   6   7   3   53.90   17.88
   6   7   3   72.35   21.02
   6   7   3   62.51   21.17
  -7  -7  -3  277.12   29.68
   7   7   3  259.89   36.63
   7   7   3  244.93   33.93
   6  -8  -3  125.87   18.11
   6  -8  -3   95.87   18.91
   6  -8  -3  135.48   22.03
   5  -8  -3   34.00   12.24
   5  -8  -3   46.90   14.43
   5  -8  -3   12.03    9.25
   5  -8  -3   35.34   12.30
   4  -8  -3  202.66   21.14
   4  -8  -3  163.51   20.62
   4  -8  -3  181.16   19.89
   4  -8  -3  251.40   23.72
   4  -8  -3  204.09   23.74
  -4   8   3  204.01   29.42
   4  -8  -3  207.78   21.37
   3  -8  -3  324.96   29.11
   3  -8  -3  375.56   26.91
   3  -8  -3  354.08   26.99
   3  -8  -3  286.88   26.33
   3  -8  -3  329.01   26.15
  -3   8   3  364.51   35.35
   3  -8  -3  375.12   29.96
   2  -8  -3  690.31   42.07
   2  -8  -3  719.57   44.45
   2  -8  -3  737.29   40.46
  -2   8   3  688.68   35.20
  -2   8   3  694.78   32.94
  -2   8   3  659.58   47.14
   2  -8  -3  664.30   40.06
   2  -8  -3  673.41   40.11
   1  -8  -3  109.66   18.76
  -1   8   3  143.86   17.27
  -1   8   3  117.82   21.14
   1  -8  -3  111.89   17.67
  -1   8   3  104.93   16.48
  -1   8   3  100.02   14.92
  -1   8   3  119.18   14.55
   1  -8  -3   71.02   14.46
   1  -8  -3   83.97   15.10
   1  -8  -3  122.34   17.32
  -1   8   3  113.31   14.46
   0  -8  -3   30.62   10.91
   0  -8  -3    8.45    7.70
   0   8   3    9.80    7.77
   0   8   3   12.94    8.43
   0   8   3   21.03    9.04
   0  -8  -3   15.22    9.25
   0  -8  -3   -4.32    5.35
   0   8   3   18.28    9.47
   0   8   3    1.88    6.94
   0  -8  -3   13.01    8.60
   1   8   3  516.23   38.09
   1   8   3  463.21   34.74
  -1  -8  -3  550.32   38.12
   1   8   3  503.67   36.29
  -1  -8  -3  528.74   39.42
  -1  -8  -3  551.92   36.84
   1   8   3  460.07   34.33
   1   8   3  479.73   33.39
  -1  -8  -3  473.56   34.97
  -1  -8  -3  567.27   37.18
  -2  -8  -3 1218.74   65.25
   2   8   3 1120.35   62.69
  -2  -8  -3 1361.60   70.43
  -2  -8  -3 1206.02   63.17
   2   8   3 1179.28   67.16
   2   8   3 1229.37   61.99
  -2  -8  -3 1145.24   62.49
   2   8   3 1309.20   64.78
   2   8   3 1334.47   66.87
   3   8   3   35.24   13.33
   3   8   3   36.37   13.85
  -3  -8  -3   37.52   12.24
   3   8   3    1.19    6.76
  -3  -8  -3   42.22   15.93
  -3  -8  -3   32.05   13.06
   3   8   3   10.03    9.60
  -3  -8  -3   18.69   10.19
   3   8   3   29.36   12.92
   4   8   3  288.03   31.61
  -4  -8  -3  223.19   27.75
   4   8   3  249.62   29.77
   4   8   3  231.86   27.34
   4   8   3  248.32   30.28
  -4  -8  -3  240.64   27.40
  -4  -8  -3  254.10   32.17
   4   8   3  181.59   29.13
  -4  -8  -3  197.28   26.53
   5   8   3   24.12   13.77
   5   8   3   13.44   12.29
  -5  -8  -3   33.00   13.58
  -5  -8  -3   10.21   12.72
   5   8   3   11.10   13.14
  -5  -8  -3   36.45   14.56
   5   8   3   40.18   17.33
   6   8   3   80.00   23.24
  -6  -8  -3  122.66   22.70
   6   8   3  135.05   26.66
  -6  -8  -3   67.17   18.76
   5  -9  -3   77.02   16.32
   5  -9  -3   63.19   16.26
   5  -9  -3  104.95   20.60
   4  -9  -3   68.34   16.76
   4  -9  -3   74.63   15.54
   4  -9  -3   39.48   13.56
   4  -9  -3   57.99   14.39
  -4   9   3   36.26   15.90
   4  -9  -3   56.09   14.99
   3  -9  -3   16.93    9.83
   3  -9  -3   -0.75    7.84
   3  -9  -3    6.03    8.94
   3  -9  -3   13.61    9.35
   3  -9  -3   -1.08    8.33
  -3   9   3   -5.06    8.50
   2  -9  -3  985.76   50.16
  -2   9   3  897.93   41.02
  -2   9   3  875.38   49.21
   2  -9  -3  896.21   54.40
  -2   9   3  896.93   58.37
  -2   9   3  926.46   43.22
   2  -9  -3  925.56   50.63
  -2   9   3  918.81   40.16
   2  -9  -3  919.07   52.97
   2  -9  -3  912.54   50.37
  -1   9   3   26.60   12.98
   1  -9  -3   20.33   10.20
  -1   9   3    8.60    7.34
   1  -9  -3    7.07    8.20
   1  -9  -3   11.01    8.28
  -1   9   3   -0.52    5.84
  -1   9   3    1.00    6.86
  -1   9   3    2.23    7.78
   1  -9  -3    3.69    8.18
   1  -9  -3   12.98    8.83
  -1   9   3   12.51    8.94
   0   9   3   12.83    9.42
   0   9   3    8.66    8.13
   0   9   3   17.05   10.62
   0  -9  -3    4.59    8.50
   0  -9  -3   18.58   10.87
   0   9   3    3.95    7.96
   0  -9  -3   13.95    9.27
   0   9   3   15.34    8.99
   0  -9  -3   15.36   10.37
   0  -9  -3   16.61   10.19
   1   9   3  198.69   23.78
  -1  -9  -3  284.36   31.19
   1   9   3  265.34   27.78
   1   9   3  254.97   26.91
  -1  -9  -3  286.25   27.74
   1   9   3  254.52   28.32
   1   9   3  264.04   25.83
  -1  -9  -3  282.19   29.83
  -1  -9  -3  299.29   28.80
   2   9   3  124.66   21.59
   2   9   3  112.33   19.87
   2   9   3   92.54   19.44
  -2  -9  -3   95.23   19.16
   2   9   3   48.86   16.56
  -2  -9  -3   81.00   17.99
   2   9   3   81.08   17.45
  -2  -9  -3  104.30   20.67
  -2  -9  -3  105.75   21.95
   3   9   3  455.24   39.56
  -3  -9  -3  534.66   45.88
   3   9   3  420.92   40.92
   3   9   3  440.91   38.61
   3   9   3  392.05   35.74
  -3  -9  -3  510.81   39.74
  -3  -9  -3  429.03   37.23
   3   9   3  471.88   40.12
  -3  -9  -3  455.47   39.45
  -4  -9  -3   28.60   16.68
   4   9   3   25.23   13.71
  -4  -9  -3   19.99   12.45
  -4  -9  -3   13.43   11.82
   4   9   3   21.01   13.01
   4   9   3   24.86   12.48
   4   9   3   22.39   14.69
  -5  -9  -3   -0.04   10.23
  -5  -9  -3   -7.82   10.89
   5   9   3   -1.21   11.78
   5   9   3   -9.97    9.96
   6   9   3  225.30   33.11
  -6  -9  -3  204.91   29.16
   6   9   3  203.07   34.37
   5 -10  -3   36.40   14.95
   5 -10  -3   63.56   18.66
  -4  10   3    2.17   12.11
   4 -10  -3   13.88   12.02
   4 -10  -3    5.97    8.91
   3 -10  -3  197.53   26.38
  -3  10   3  182.62   29.74
   3 -10  -3  199.50   23.88
   3 -10  -3  167.57   23.04
   3 -10  -3  196.37   24.02
  -2  10   3    4.98    7.76
   2 -10  -3   -4.59    9.29
   2 -10  -3    5.85    9.97
   2 -10  -3   -2.93    7.39
  -2  10   3    3.16    6.31
   2 -10  -3   12.02    9.52
  -2  10   3    3.45    5.31
  -2  10   3   -5.84    8.27
  -1  10   3  542.36   38.19
  -1  10   3  541.61   32.70
  -1  10   3  503.22   44.68
  -1  10   3  552.92   36.59
   1 -10  -3  490.44   41.59
   1 -10  -3  439.89   35.81
   1 -10  -3  515.79   37.82
  -1  10   3  474.81   32.92
   1 -10  -3  539.18   38.25
  -1  10   3  453.62   29.97
   0  10   3  361.57   32.97
   0  10   3  324.78   29.58
   0 -10  -3  353.48   31.97
   0  10   3  344.73   27.78
   0  10   3  397.42   34.14
   0 -10  -3  366.84   36.68
   0 -10  -3  341.60   32.03
   0  10   3  312.27   28.16
   1  10   3   49.59   14.52
   1  10   3   12.17   10.82
  -1 -10  -3   25.14   12.29
   1  10   3   46.22   14.80
   1  10   3   47.97   16.31
  -1 -10  -3   30.62   13.19
   1  10   3   33.11   12.63
  -1 -10  -3   38.25   16.13
   2  10   3  624.29   44.80
   2  10   3  600.29   45.13
  -2 -10  -3  475.92   45.48
   2  10   3  571.87   46.68
   2  10   3  576.15   41.65
   2  10   3  576.64   44.24
  -2 -10  -3  641.85   45.38
  -2 -10  -3  623.11   45.19
   3  10   3  157.96   26.57
   3  10   3  182.97   28.26
   3  10   3  168.55   27.47
   3  10   3  216.93   27.79
  -3 -10  -3  195.09   28.14
  -3 -10  -3  220.90   28.91
   4  10   3    9.17   12.88
  -4 -10  -3   -1.63   10.33
   4  10   3    5.80   11.37
   5  10   3  296.94   36.40
   5  10   3  350.76   41.50
  -5 -10  -3  360.66   38.36
   4 -11  -3   58.35   17.19
   4 -11  -3   61.63   19.81
   3 -11  -3   47.65   17.12
   3 -11  -3   52.94   16.59
  -3  11   3   33.42   17.76
   2 -11  -3    3.68    9.88
  -2  11   3   19.36   11.46
   2 -11  -3    6.17   10.91
   2 -11  -3    4.01    9.82
  -2  11   3   13.96    6.47
  -2  11   3    9.54    6.69
  -2  11   3    9.12   12.94
   1 -11  -3  231.43   28.06
  -1  11   3  251.68   28.30
  -1  11   3  208.93   22.72
   1 -11  -3  202.79   26.25
  -1  11   3  293.15   36.62
   1 -11  -3  221.18   31.13
   0  11   3   32.05   15.63
   0  11   3   26.62   12.35
   0  11   3   30.64   14.08
   0  11   3   47.88   13.76
   0 -11  -3   25.42   13.49
   0 -11  -3   25.67   14.45
   0 -11  -3   32.60   14.88
   0  11   3   36.54   13.80
  -1 -11  -3  210.36   28.32
   1  11   3  314.02   34.04
   1  11   3  270.77   29.22
   1  11   3  327.16   35.46
  -1 -11  -3  223.23   29.52
   1  11   3  231.52   26.51
   1  11   3  312.19   32.20
   2  11   3  141.67   25.94
  -2 -11  -3  160.73   26.61
   2  11   3  130.20   25.47
  -2 -11  -3  130.29   24.71
   2  11   3  139.22   23.27
   2  11   3  105.59   23.08
   3  11   3    0.75   13.58
   3  11   3   13.56   13.29
  -3 -11  -3   -1.33   10.11
   3  11   3   10.79   13.35
   3  11   3    4.04   11.61
  -4 -11  -3   48.76   18.62
   4  11   3   38.93   18.67
   4  11   3   46.64   19.32
   1 -12  -3   19.22   13.47
  -1  12   3    1.72    9.08
   0  12   3   99.19   19.87
   0  12   3   68.49   19.72
   0 -12  -3   79.25   20.54
   0 -12  -3   85.02   21.07
   1  12   3  141.56   22.02
   1  12   3  147.85   28.18
   1  12   3   88.99   21.14
  -1 -12  -3  136.06   26.62
  -1 -12  -3  116.38   24.78
  -2 -12  -3   23.62   15.53
   2  12   3   12.80   14.09
   2  12   3    3.22   12.96
   2  12   3   11.51   13.25
   0  11  -4   75.27   11.78
   1 -11   4    7.33   13.94
  -3 -10   4   85.08   23.54
   3  10  -4   44.59   20.07
  -3 -10   4   36.45   18.39
  -2 -10   4   73.92   21.10
  -2 -10   4   61.41   19.09
   2  10  -4  101.67   20.51
  -2 -10   4   57.19   20.35
   2  10  -4   69.21   19.66
  -1 -10   4  154.61   26.85
   1  10  -4  198.40   22.78
  -1 -10   4  153.66   25.90
   1  10  -4  134.41   22.95
   0  10  -4   19.47    8.93
   0 -10   4   17.97   13.57
   0 -10   4   46.45   17.49
   0  10  -4   14.09   10.47
   0  10  -4    4.91   10.33
   1 -10   4   -4.71    9.98
  -1  10  -4    1.61    8.46
  -2  10  -4  256.81   23.94
   2 -10   4  359.68   33.59
   3 -10   4  170.36   23.84
  -4  -9   4   43.19   18.23
  -4  -9   4   63.02   21.22
   4   9  -4   29.14   15.37
   3   9  -4   -3.63   10.26
  -3  -9   4   22.78   15.10
   3   9  -4   -4.34    9.71
  -3  -9   4   -4.54   10.64
  -3  -9   4  -10.73   10.27
  -2  -9   4    8.76   12.02
  -2  -9   4    0.05    9.32
  -2  -9   4  -11.29   10.10
   2   9  -4   -4.54    8.56
   2   9  -4    3.44    8.64
  -1  -9   4  125.42   23.44
   1   9  -4  179.55   21.93
   1   9  -4  173.15   21.42
   1   9  -4  206.89   24.88
  -1  -9   4  142.42   23.36
  -1  -9   4  178.50   27.91
   0   9  -4   -6.45    5.78
   0   9  -4   -3.82    6.56
   0   9  -4   -0.39    5.58
   0  -9   4   -4.09    8.84
   0  -9   4    3.53    9.87
   0  -9   4   -1.17   11.38
   0  -9   4    0.04    9.29
   1  -9   4   70.28   16.69
  -1   9  -4   39.68   10.91
   1  -9   4   32.58   11.98
   1  -9   4   13.16   10.84
   1  -9   4   15.60   10.91
  -1   9  -4   41.52   12.01
  -2   9  -4  137.43   14.46
  -2   9  -4   96.44   14.66
   2  -9   4   87.08   16.67
   2  -9   4  131.70   20.65
   3  -9   4  152.39   20.86
   4  -9   4   42.46   12.54
  -5  -8   4   54.78   20.24
   5   8  -4   60.18   20.80
  -5  -8   4   88.27   23.37
  -4  -8   4  115.85   24.75
  -4  -8   4  136.83   25.26
   4   8  -4  139.94   26.12
  -4  -8   4  119.73   25.89
   4   8  -4  158.06   26.21
   3   8  -4   44.83   15.49
   3   8  -4   15.09   11.58
  -3  -8   4   33.63   14.88
  -3  -8   4   39.11   14.96
  -3  -8   4   46.38   16.88
  -2  -8   4  102.26   20.42
  -2  -8   4   98.14   21.03
  -2  -8   4  131.95   22.05
   2   8  -4  108.14   21.94
   2   8  -4   94.53   18.20
  -2  -8   4  105.53   23.47
   2   8  -4   88.09   18.74
  -1  -8   4    6.12   10.61
  -1  -8   4    9.97   10.85
   1   8  -4    9.42    8.37
   1   8  -4    8.72    9.18
   1   8  -4   13.57    9.58
   1   8  -4   27.96   13.00
  -1  -8   4   14.11    9.02
   0  -8   4  222.25   23.72
   0   8  -4  211.56   18.83
   0  -8   4  293.32   27.50
   0   8  -4  255.65   23.82
   0  -8   4  225.15   27.15
   0  -8   4  230.10   25.32
  -1   8  -4  325.68   23.22
   1  -8   4  280.83   28.44
   1  -8   4  338.48   28.21
   1  -8   4  331.99   26.27
  -1   8  -4  329.12   24.37
   1  -8   4  351.36   28.30
   1  -8   4  350.15   28.18
   2  -8   4  122.22   18.52
   2  -8   4  149.92   17.01
   2  -8   4  137.39   17.54
  -2   8  -4  134.52   13.55
   2  -8   4  133.51   17.79
   2  -8   4  123.50   16.60
   3  -8   4  212.66   20.26
   3  -8   4  227.75   20.22
   3  -8   4  231.41   18.13
   3  -8   4  245.24   22.45
   4  -8   4   11.61    8.81
   4  -8   4   19.92    8.65
   5  -8   4   12.72    6.98
   5   7  -4   16.81   13.92
  -5  -7   4   16.34   14.60
  -5  -7   4   24.32   15.90
  -4  -7   4   21.80   13.06
   4   7  -4    0.21    8.98
   4   7  -4    3.32    9.68
  -4  -7   4   12.92   11.65
  -4  -7   4    5.10   11.42
  -3  -7   4  217.81   26.68
   3   7  -4  180.28   27.40
  -3  -7   4  246.34   28.87
  -3  -7   4  214.65   30.28
   3   7  -4  190.18   24.94
   3   7  -4  212.55   26.84
  -3  -7   4  187.02   26.56
   2   7  -4   91.55   17.55
  -2  -7   4   51.94   15.97
  -2  -7   4  126.49   20.83
  -2  -7   4   81.63   17.96
  -2  -7   4   68.17   16.02
  -2  -7   4   77.57   17.33
   2   7  -4   94.53   16.99
   2   7  -4   93.88   19.65
  -1  -7   4   69.33   15.47
   1   7  -4   30.93   12.76
  -1  -7   4   82.89   16.84
   1   7  -4   71.93   14.05
  -1  -7   4   67.46   15.98
  -1  -7   4   55.31   14.05
   1   7  -4   92.37   16.08
  -1  -7   4   61.52   15.96
  -1  -7   4   60.17   13.91
   0  -7   4  317.49   29.18
   0   7  -4  290.69   21.78
   0   7  -4  311.69   24.18
   0  -7   4  289.16   25.30
   0  -7   4  305.41   27.11
   0  -7   4  353.23   27.82
   0   7  -4  297.57   21.89
   0  -7   4  321.91   27.20
   0   7  -4  284.56   24.39
   1  -7   4   44.15   11.70
   1  -7   4   15.48    9.15
  -1   7  -4   27.72    8.88
   1  -7   4   41.27   10.96
   1  -7   4   25.31    9.45
  -1   7  -4   42.04    8.72
   2  -7   4  146.61   15.19
   2  -7   4   97.51   14.38
   2  -7   4  125.39   15.40
  -2   7  -4  113.97   11.86
   2  -7   4  173.97   18.78
   3  -7   4  210.78   15.71
   3  -7   4  231.71   19.55
   3  -7   4  221.20   18.06
   3  -7   4  228.63   18.58
   4  -7   4   21.99    7.65
   4  -7   4   17.21    7.38
   4  -7   4   37.97    8.30
   5  -7   4   77.80    9.09
   5  -7   4   75.37    9.22
  -6  -6   4   42.36   17.61
   6   6  -4   77.75   22.48
  -6  -6   4   90.50   22.56
  -5  -6   4   18.75   13.79
  -5  -6   4   20.27   15.40
  -5  -6   4   11.04   12.91
   5   6  -4   28.49   13.88
   5   6  -4    0.18    9.81
  -5  -6   4   19.17   12.56
   4   6  -4  112.68   21.55
  -4  -6   4   94.33   20.07
  -4  -6   4   80.62   18.97
  -4  -6   4  123.10   22.47
   4   6  -4  119.53   23.44
  -4  -6   4  117.59   24.64
   4   6  -4   98.01   19.82
  -4  -6   4   92.80   20.10
  -3  -6   4  174.07   22.83
  -3  -6   4   88.82   18.91
  -3  -6   4  113.44   20.91
   3   6  -4   97.08   20.23
  -3  -6   4  115.66   20.50
   3   6  -4  105.25   18.88
   3   6  -4  120.09   20.45
  -3  -6   4  132.39   23.16
   2   6  -4  127.09   20.37
  -2  -6   4  128.50   20.45
  -2  -6   4  123.99   19.42
  -2  -6   4  207.63   24.04
  -2  -6   4  161.55   23.03
  -2  -6   4  173.93   21.84
   2   6  -4  137.01   19.18
  -2  -6   4  151.14   20.78
   2   6  -4  148.10   19.92
  -1  -6   4  892.65   47.91
   1   6  -4  898.64   46.91
  -1  -6   4  795.80   47.17
  -1  -6   4  851.79   47.00
  -1  -6   4  803.93   45.85
  -1  -6   4  851.86   50.13
   1   6  -4  842.35   44.73
  -1  -6   4  742.26   44.44
   1   6  -4  905.55   48.92
   0  -6   4   87.95   16.02
   0  -6   4   92.73   15.33
   0   6  -4   96.42   13.96
   0   6  -4   59.64   10.78
   0  -6   4  108.09   15.22
   0   6  -4   91.56   13.71
   0   6  -4   99.78   12.49
   0  -6   4  111.14   15.48
  -1   6  -4  161.33   10.42
   1  -6   4  176.01   18.89
  -1   6  -4  167.27   12.92
   1  -6   4  151.62   16.17
  -1   6  -4  164.02   10.74
   1  -6   4  145.26   16.76
  -1   6  -4  141.65   14.54
   1  -6   4  167.20   16.54
   2  -6   4  181.57   16.28
   2  -6   4  159.00   16.44
   2  -6   4  137.69   13.83
   2  -6   4  151.64   15.04
  -2   6  -4  157.98   12.34
   3  -6   4   15.47    5.30
   3  -6   4   22.68    6.87
   3  -6   4   21.73    7.12
   3  -6   4   18.55    6.77
   4  -6   4  629.31   29.55
   4  -6   4  641.91   28.42
   5  -6   4  272.59   27.71
   6  -6   4   23.52   14.81
   6   5  -4    6.65   11.99
  -6  -5   4  -13.29    8.05
  -6  -5   4   15.95   11.44
  -6  -5   4   -7.12   11.99
  -5  -5   4  130.93   22.75
   5   5  -4  129.34   25.87
  -5  -5   4  106.83   21.73
   5   5  -4  133.02   24.06
  -5  -5   4  145.12   26.76
   5   5  -4  214.83   27.70
  -5  -5   4  175.16   26.36
  -5  -5   4  105.96   20.85
   4   5  -4    1.31    6.50
   4   5  -4   -0.57    6.98
  -4  -5   4    2.33    8.68
   4   5  -4   -2.82    6.61
  -4  -5   4   -6.22    9.68
  -4  -5   4    1.90    8.83
  -4  -5   4    0.03    8.42
  -4  -5   4    2.37    6.50
   3   5  -4    5.74    8.72
   3   5  -4   12.66    9.39
  -3  -5   4   15.43    9.74
  -3  -5   4    7.78    7.72
  -3  -5   4    7.05    9.53
  -3  -5   4   16.84    9.63
   3   5  -4    2.39    7.97
  -3  -5   4    4.41    8.20
  -2  -5   4  258.46   24.30
  -2  -5   4  255.30   23.95
  -2  -5   4  236.76   23.75
   2   5  -4  259.50   25.53
   2   5  -4  226.02   22.48
  -2  -5   4  233.64   24.10
   2   5  -4  246.08   23.25
  -2  -5   4  207.65   24.39
  -2  -5   4  217.15   23.02
   1   5  -4  167.23   18.45
  -1  -5   4  201.81   20.11
   1   5  -4  193.12   19.08
   1   5  -4  203.50   20.55
  -1  -5   4  184.31   20.29
   1   5  -4  207.06   19.21
  -1  -5   4  180.45   19.23
  -1  -5   4  179.71   19.15
  -1  -5   4  189.86   21.36
   0   5  -4  517.16   28.43
   0  -5   4  514.96   31.90
   0  -5   4  466.48   30.09
   0   5  -4  516.35   30.05
   0  -5   4  535.40   31.50
   0   5  -4  537.09   29.16
   0   5  -4  549.91   31.01
   0  -5   4  502.11   33.07
   0  -5   4  516.20   30.51
  -1   5  -4  388.62   18.13
  -1   5  -4  367.93   18.39
   1  -5   4  395.38   25.98
  -1   5  -4  359.59   16.31
  -1   5  -4  363.36   18.38
  -1   5  -4  403.31   23.09
   1  -5   4  409.81   25.19
   1  -5   4  370.17   23.34
   1  -5   4  396.48   24.47
   2  -5   4   19.49    6.14
   2  -5   4   25.70    7.50
   2  -5   4   16.36    5.88
  -2   5  -4   14.45    4.86
   3  -5   4  608.21   26.89
   3  -5   4  568.32   25.47
   3  -5   4  549.78   27.59
   4  -5   4    5.94    7.29
   4  -5   4    8.12    3.61
   5  -5   4   14.34    9.78
   6  -5   4  326.11   32.31
   7  -5   4    8.00   16.00
  -7  -4   4    9.24   11.82
   7   4  -4    6.06   13.99
  -7  -4   4    7.18   12.49
  -6  -4   4   12.36   11.35
  -6  -4   4   41.24   15.50
   6   4  -4   32.49   16.57
   6   4  -4   24.74   14.68
  -6  -4   4   43.25   15.57
   5   4  -4  229.11   27.81
  -5  -4   4  181.68   24.23
  -5  -4   4  208.06   26.83
  -5  -4   4  274.09   32.16
  -5  -4   4  235.35   27.32
   5   4  -4  271.83   32.31
  -5  -4   4  206.49   24.66
   5   4  -4  266.11   29.22
  -4  -4   4    2.52    8.22
  -4  -4   4   -1.19    6.94
  -4  -4   4   13.23   10.06
  -4  -4   4   -4.83    7.12
   4   4  -4   16.57    9.07
   4   4  -4   -7.32    6.29
  -4  -4   4    1.87    9.40
   4   4  -4   11.60    8.74
   3   4  -4  234.26   23.93
  -3  -4   4  246.01   26.96
   3   4  -4  307.86   26.90
  -3  -4   4  252.83   25.39
  -3  -4   4  237.79   24.23
  -3  -4   4  278.81   25.84
  -3  -4   4  364.92   29.17
   3   4  -4  177.36   23.16
  -3  -4   4  305.87   26.43
  -2  -4   4   -2.52    4.98
   2   4  -4    5.13    6.33
  -2  -4   4   -7.21    4.57
   2   4  -4    8.48    7.04
  -2  -4   4    1.09    6.18
  -2  -4   4   -2.11    5.52
   2   4  -4    0.54    5.86
  -2  -4   4   -2.07    6.02
   1   4  -4   62.05   11.73
  -1  -4   4   66.23   11.92
  -1  -4   4   57.57   11.58
  -1  -4   4   87.36   13.74
   1   4  -4   76.77   13.04
  -1  -4   4   70.77   12.18
   1   4  -4   72.05   11.94
   1   4  -4   75.96   12.01
  -1  -4   4   59.13   12.87
   0  -4   4  273.93   19.92
   0   4  -4  269.57   19.58
   0  -4   4  283.71   20.18
   0  -4   4  273.07   21.42
   0   4  -4  224.79   18.21
   0  -4   4  219.66   18.57
   0   4  -4  242.84   17.60
   0   4  -4  264.14   18.43
   0  -4   4  264.52   20.56
  -1   4  -4   -0.16    2.58
   1  -4   4    4.41    5.96
  -1   4  -4    2.84    4.10
   1  -4   4    0.83    4.60
   1  -4   4   -0.48    4.34
  -1   4  -4    5.61    3.40
  -1   4  -4    2.66    2.79
  -1   4  -4    6.20    3.66
   1  -4   4    6.25    4.81
   2  -4   4  428.41   22.52
  -2   4  -4  468.37   20.79
   2  -4   4  464.26   22.89
   2  -4   4  438.56   23.09
   2  -4   4  421.69   23.73
   3  -4   4  200.66   11.70
   3  -4   4  175.00   11.89
   3  -4   4  233.86   17.19
   3  -4   4  198.54   11.97
   3  -4   4  200.87   12.67
   4  -4   4  242.62   20.92
   5  -4   4  104.98   17.33
   6  -4   4  198.41   25.96
   7  -4   4  119.21   11.66
   7  -4   4  128.34   25.84
   7  -4   4  101.12   11.96
  -7  -3   4    9.46   11.84
  -7  -3   4    0.15   10.47
   7   3  -4    3.32   12.96
   7   3  -4    8.51   11.47
  -6  -3   4  179.10   24.71
  -6  -3   4  189.87   28.33
  -6  -3   4  226.18   28.37
  -6  -3   4  226.04   25.92
   6   3  -4  207.62   30.77
   6   3  -4  193.15   27.48
  -6  -3   4  248.89   25.87
   5   3  -4   27.92   11.81
  -5  -3   4   35.30   12.09
  -5  -3   4   30.46   12.60
   5   3  -4   25.78   12.63
  -5  -3   4   32.42   12.93
  -5  -3   4   35.30   14.91
  -5  -3   4   26.22   11.98
   5   3  -4   54.42   14.65
   4   3  -4  287.33   30.10
  -4  -3   4  340.72   28.95
  -4  -3   4  331.42   26.38
  -4  -3   4  240.81   27.21
   4   3  -4  269.64   26.26
   4   3  -4  335.57   29.15
  -4  -3   4  266.41   25.30
  -4  -3   4  310.18   28.13
   3   3  -4   48.60   13.12
  -3  -3   4   46.84   13.27
   3   3  -4   47.61   12.43
  -3  -3   4   38.08   12.18
  -3  -3   4   40.58   11.13
  -3  -3   4   48.66   11.57
  -3  -3   4   51.24   12.31
   3   3  -4   35.62   10.41
   2   3  -4    3.52    4.95
  -2  -3   4    7.73    6.38
  -2  -3   4    3.11    6.50
  -2  -3   4    8.88    6.77
   2   3  -4   -7.11    3.89
   2   3  -4   12.58    6.72
  -2  -3   4    3.51    6.12
  -2  -3   4    0.65    5.28
  -1  -3   4  142.08   16.72
  -1  -3   4  117.40   14.00
   1   3  -4  153.10   15.51
  -1  -3   4  122.94   14.08
  -1  -3   4  118.84   14.79
   1   3  -4  153.53   16.33
   1   3  -4  132.48   14.03
  -1  -3   4  125.77   14.27
   1   3  -4  117.36   14.32
   0  -3   4   98.61   12.81
   0   3  -4   90.17   11.22
   0   3  -4   69.93   10.00
   0  -3   4  101.80   11.58
   0   3  -4   90.35   10.77
   0   3  -4   90.15   10.27
   0  -3   4   78.04   10.73
   0  -3   4  101.59   11.57
   1  -3   4  645.25   32.44
  -1   3  -4  632.75   26.46
   1  -3   4  652.63   31.01
   1  -3   4  670.38   30.98
  -1   3  -4  645.43   27.90
  -1   3  -4  685.74   28.33
   1  -3   4  650.19   30.43
   1  -3   4  677.35   31.79
  -1   3  -4  692.56   30.39
  -1   3  -4  666.66   26.77
   2  -3   4  927.56   38.25
  -2   3  -4  934.25   34.91
   2  -3   4  920.69   36.59
  -2   3  -4  892.40   35.07
   2  -3   4  871.67   36.67
   2  -3   4  900.74   35.97
   2  -3   4  934.71   36.20
   2  -3   4  861.62   37.13
   3  -3   4   43.83    5.01
   3  -3   4   65.60    5.76
   3  -3   4   61.10    6.38
   3  -3   4   47.39    8.67
   3  -3   4   45.96    5.69
   3  -3   4   45.19    5.93
   4  -3   4  579.71   23.53
   4  -3   4  588.80   33.49
   5  -3   4   15.97    4.84
   5  -3   4   15.78    4.30
   5  -3   4   16.42    4.31
   5  -3   4   23.30    9.10
   5  -3   4   23.04    4.26
   6  -3   4   14.13    6.26
   6  -3   4   21.71    6.07
   6  -3   4   11.33    5.71
   6  -3   4   15.31    5.77
   6  -3   4    2.68    9.06
   7  -3   4  228.46   19.18
   7  -3   4  214.33   17.21
   7  -3   4  212.87   18.29
   7  -3   4  212.12   30.03
  -7  -2   4  116.04   18.73
   7   2  -4  103.00   23.26
   7   2  -4  105.52   25.47
  -7  -2   4   98.68   20.13
  -6  -2   4   62.07   17.65
  -6  -2   4   54.25   14.72
   6   2  -4   30.30   14.39
  -6  -2   4   77.25   15.81
   6   2  -4   79.65   19.09
   6   2  -4   77.06   17.90
  -6  -2   4   84.39   17.83
  -5  -2   4  187.06   22.72
   5   2  -4  204.30   23.98
  -5  -2   4  174.34   20.58
   5   2  -4  185.85   25.27
  -5  -2   4  209.41   24.08
  -5  -2   4  232.78   23.14
   5   2  -4  176.03   22.76
  -5  -2   4  173.38   23.84
  -4  -2   4   32.14   10.42
   4   2  -4   22.43    9.52
   4   2  -4   19.34    9.48
   4   2  -4   40.36   11.90
  -4  -2   4   31.42   10.26
   4   2  -4   15.23    9.06
  -4  -2   4   18.28    8.88
  -4  -2   4   18.59    9.37
  -4  -2   4   28.31   11.47
   3   2  -4   30.35    9.47
  -3  -2   4   35.58    9.99
   3   2  -4   32.29   11.08
   3   2  -4   26.44    8.97
  -3  -2   4   10.42    7.43
  -3  -2   4   21.13    9.57
  -3  -2   4   19.38    8.56
   3   2  -4   20.98    8.86
  -3  -2   4   37.86   10.96
   2   2  -4 1610.68   68.59
   2   2  -4 1737.56   69.60
   2   2  -4 1625.34   67.94
  -2  -2   4 1636.53   68.77
  -2  -2   4 1584.00   68.78
  -2  -2   4 1593.69   67.19
  -2  -2   4 1659.13   72.28
  -2  -2   4 1648.80   70.79
  -1  -2   4  542.43   29.52
  -1  -2   4  522.06   29.63
  -1  -2   4  513.67   28.65
  -1  -2   4  543.92   31.76
   1   2  -4  528.65   28.93
   1   2  -4  581.32   30.47
   1   2  -4  553.20   31.34
   1   2  -4  530.90   29.34
   0   2  -4  748.95   35.00
   0   2  -4  709.96   34.17
   0  -2   4  723.33   33.73
   0  -2   4  695.75   35.90
   0   2  -4  737.95   33.98
   0  -2   4  744.67   35.01
   0   2  -4  704.41   32.81
   0   2  -4  744.29   34.46
   0  -2   4  752.90   34.44
   1  -2   4    6.57    4.36
   1  -2   4    3.65    4.13
  -1   2  -4    9.57    4.52
  -1   2  -4    3.26    3.15
   1  -2   4    6.11    4.69
   1  -2   4    2.16    4.05
   1  -2   4    5.72    4.34
  -1   2  -4    2.64    3.17
  -1   2  -4    3.99    3.55
  -1   2  -4    5.06    3.57
  -2   2  -4  386.97   17.59
   2  -2   4  352.18   18.95
  -2   2  -4  360.05   17.74
   2  -2   4  365.38   19.38
   2  -2   4  390.04   19.52
   2  -2   4  389.40   18.11
   2  -2   4  325.13   18.64
   2  -2   4  383.93   18.34
   3  -2   4  251.17   14.58
   3  -2   4  268.50   14.47
   3  -2   4  266.76   14.18
   3  -2   4  248.69   12.89
   3  -2   4  278.05   13.43
   4  -2   4  287.05   14.58
   4  -2   4  311.70   16.96
   4  -2   4  328.43   16.37
   4  -2   4  308.16   15.25
   4  -2   4  322.10   16.15
   5  -2   4  207.49   15.65
   5  -2   4  237.16   14.26
   5  -2   4  252.77   15.51
   5  -2   4  251.62   15.20
   5  -2   4  266.91   15.19
   6  -2   4  153.81   14.64
   6  -2   4  132.99   14.26
   6  -2   4  170.82   12.46
   6  -2   4  158.10   13.74
   6  -2   4  145.48   13.92
   7  -2   4  133.69   12.58
   7  -2   4  145.62   15.95
   7  -2   4  125.35   16.39
   7  -2   4  126.30   16.23
   8  -2   4   29.16   11.95
   8  -2   4    5.81    9.65
  -7  -1   4   75.79   16.68
   7   1  -4   71.38   21.18
   7   1  -4   78.74   20.28
  -7  -1   4   78.33   15.69
  -6  -1   4  236.85   23.61
   6   1  -4  229.35   26.86
  -6  -1   4  223.98   22.16
   6   1  -4  244.33   29.68
  -6  -1   4  192.06   25.05
   6   1  -4  227.96   26.88
  -6  -1   4  216.07   24.00
  -5  -1   4  195.65   23.17
  -5  -1   4  212.02   21.23
   5   1  -4  230.39   26.75
  -5  -1   4  135.29   20.17
   5   1  -4  311.22   27.57
   5   1  -4  177.40   22.38
  -5  -1   4  250.97   24.04
   5   1  -4  190.58   23.18
  -5  -1   4  212.18   21.21
   4   1  -4    8.21    7.22
  -4  -1   4    0.61    3.64
  -4  -1   4   -2.48    5.62
   4   1  -4   10.11    7.77
  -4  -1   4    7.73    6.85
   4   1  -4    3.21    6.37
  -4  -1   4    4.54    7.14
  -4  -1   4    5.93    7.89
   4   1  -4   16.48    9.08
  -4  -1   4    6.10    8.19
  -3  -1   4   27.07    8.73
   3   1  -4   11.01    6.91
  -3  -1   4   30.12    8.61
  -3  -1   4   13.10    6.93
   3   1  -4   20.44    8.48
  -3  -1   4   28.11    9.08
  -3  -1   4   24.31    8.96
   3   1  -4   10.76    6.95
   3   1  -4   31.31    9.13
   2   1  -4 1148.74   54.20
   2   1  -4 1158.31   55.70
  -2  -1   4 1312.10   53.60
  -2  -1   4 1215.90   53.17
  -2  -1   4 1148.64   54.28
  -2  -1   4 1204.62   56.03
  -2  -1   4 1212.81   54.50
   2   1  -4 1226.12   53.96
   2   1  -4 1272.85   53.22
   1   1  -4 2384.53   85.55
   1   1  -4 2242.81   90.70
   1   1  -4 2307.99   89.90
  -1  -1   4 2460.97   89.17
  -1  -1   4 2287.79   87.21
   1   1  -4 2400.29   88.71
   1   1  -4 2404.11   87.44
  -1  -1   4 2336.61   89.18
   1   1  -4 2438.65   88.88
   0  -1   4  925.83   42.25
   0   1  -4  958.43   40.36
   0   1  -4  889.12   40.22
   0   1  -4  906.01   41.04
   0  -1   4  964.61   39.71
   0   1  -4  982.34   41.67
   0   1  -4  900.05   39.13
   0  -1   4  928.06   40.01
   0  -1   4  958.19   41.18
   0  -1   4  917.55   41.31
   0   1  -4  921.61   38.70
  -1   1  -4   85.79    7.52
   1  -1   4   81.75    8.61
  -1   1  -4  108.25    9.72
   1  -1   4   82.24    9.43
  -1   1  -4   89.42    8.87
   1  -1   4   93.63    8.97
   1  -1   4   87.30    9.88
  -1   1  -4   85.05    7.62
   1  -1   4   88.58    9.72
   1  -1   4   94.81   10.13
  -1   1  -4   97.77    8.76
   2  -1   4  401.50   18.92
   2  -1   4  385.98   20.78
  -2   1  -4  354.06   18.66
   2  -1   4  369.39   19.82
  -2   1  -4  393.99   18.96
   2  -1   4  391.11   18.54
   2  -1   4  375.59   19.86
   3  -1   4 1227.07   47.75
  -3   1  -4 1242.42   45.19
   3  -1   4 1302.78   46.07
   3  -1   4 1304.08   46.93
  -3   1  -4 1244.09   45.32
   3  -1   4 1149.35   47.15
   3  -1   4 1216.70   49.20
   3  -1   4 1230.55   48.28
   4  -1   4  128.97   10.46
   4  -1   4  120.10   10.56
  -4   1  -4  120.56    7.61
   4  -1   4  125.42   10.92
   4  -1   4  108.90    9.62
   4  -1   4  118.58   10.73
   4  -1   4  118.00   11.53
  -4   1  -4  117.49    7.79
   5  -1   4  714.36   34.23
   5  -1   4  703.40   32.76
   5  -1   4  711.76   35.80
   5  -1   4  756.10   33.80
   5  -1   4  757.70   34.31
   6  -1   4  687.43   35.37
   6  -1   4  647.37   35.20
   6  -1   4  692.90   34.66
   6  -1   4  649.93   36.83
   6  -1   4  674.43   33.33
   7  -1   4   28.42   11.06
   7  -1   4   23.15   10.28
   7  -1   4   28.69    9.13
   8  -1   4  173.03   23.44
   8  -1   4  182.24   21.67
  -7   0   4   21.82   13.14
  -7   0   4   50.94   12.18
  -7   0   4   43.78   12.84
   7   0  -4   41.19   16.96
   7   0  -4   23.66   13.86
  -6   0   4  125.48   18.02
   6   0  -4  122.36   21.83
  -6   0   4  158.61   18.57
   6   0  -4  119.60   20.75
   6   0  -4  112.34   22.63
  -6   0   4  159.03   22.05
  -6   0   4  118.37   15.96
   6   0  -4  123.53   20.50
   5   0  -4    0.33    6.74
  -5   0   4    8.58    8.75
  -5   0   4   -7.82    4.88
   5   0  -4   -3.48    6.60
  -5   0   4   -4.63    7.22
  -5   0   4   -0.87    6.11
  -5   0   4   -0.78    7.33
   5   0  -4   13.98    8.84
   5   0  -4   -6.05    5.96
  -4   0   4  183.44   20.22
   4   0  -4  199.27   22.50
   4   0  -4  169.10   19.05
  -4   0   4  215.19   20.72
  -4   0   4  212.86   19.42
   4   0  -4  205.88   20.78
  -4   0   4  245.53   22.37
  -4   0   4  191.32   17.88
   4   0  -4  195.38   20.23
  -3   0   4  259.91   20.09
   3   0  -4  294.90   23.55
   3   0  -4  315.29   22.74
   3   0  -4  249.19   21.07
   3   0  -4  300.52   24.07
  -3   0   4  300.39   20.94
  -3   0   4  259.77   22.42
   3   0  -4  270.99   22.25
   3   0  -4  287.80   21.79
  -3   0   4  260.56   21.12
   2   0  -4  245.70   18.78
   2   0  -4  202.58   17.56
   2   0  -4  174.09   18.08
  -2   0   4  222.27   17.56
  -2   0   4  219.58   19.03
  -2   0   4  204.40   18.22
   2   0  -4  217.53   18.06
   2   0  -4  243.64   18.52
  -2   0   4  243.70   18.28
   2   0  -4  206.76   18.65
  -1   0   4 1167.27   51.12
   1   0  -4 1284.08   50.31
   1   0  -4 1163.51   48.22
   1   0  -4 1162.69   51.09
   1   0  -4 1228.97   50.88
  -1   0   4 1144.53   48.78
  -1   0   4 1200.41   52.09
   1   0  -4 1242.83   49.30
  -1   0   4 1168.34   49.41
  -1   0   4 1157.58   50.42
   0   0  -4  502.89   26.17
   0   0  -4  529.16   24.55
   0   0   4  468.01   24.18
   0   0  -4  506.21   25.90
   0   0  -4  435.07   25.40
   0   0  -4  464.48   23.97
   0   0   4  512.05   22.28
   0   0  -4  439.39   25.40
   0   0   4  521.55   25.08
   0   0   4  489.84   26.38
   0   0   4  490.10   26.15
   0   0   4  504.86   26.70
  -1   0  -4    3.88    3.66
   1   0   4    1.66    3.34
  -1   0  -4    1.22    3.43
  -1   0  -4   -0.93    2.75
   1   0   4    4.25    4.28
  -1   0  -4    3.29    3.18
   1   0   4    3.83    4.31
   1   0   4    4.43    3.81
  -1   0  -4    5.78    3.64
  -1   0  -4    3.26    3.61
  -1   0  -4    0.12    3.34
   1   0   4    0.21    3.29
  -2   0  -4 1354.44   50.37
   2   0   4 1350.68   53.41
  -2   0  -4 1269.45   51.60
  -2   0  -4 1418.49   52.22
   2   0   4 1371.33   52.84
  -2   0  -4 1339.08   48.78
   2   0   4 1366.58   50.96
   2   0   4 1409.31   52.11
   2   0   4 1358.19   53.72
   2   0   4 1317.12   54.40
  -2   0  -4 1373.79   48.47
  -2   0  -4 1354.53   49.89
  -2   0  -4 1346.86   47.55
   3   0   4  185.94   13.02
  -3   0  -4  175.15   12.49
   3   0   4  178.94   13.50
   3   0   4  176.79   12.68
   3   0   4  193.79   14.07
   3   0   4  187.85   14.82
   3   0   4  156.73   13.03
   4   0   4  525.79   27.01
   4   0   4  510.99   27.12
   4   0   4  529.85   26.47
  -4   0  -4  517.99   24.52
   4   0   4  535.88   25.84
   4   0   4  476.44   28.02
   5   0   4   98.42   12.10
   5   0   4  110.40   13.26
   5   0   4  114.64   12.96
   5   0   4   89.12   13.11
   5   0   4   98.45   12.69
  -5   0  -4   92.42    9.56
   6   0   4    9.07    8.24
   6   0   4   17.68    7.78
  -6   0  -4   20.12    6.10
   6   0   4   14.80    8.69
   6   0   4   14.88    9.19
   6   0   4   27.64    9.26
   7   0   4  339.50   26.46
  -7   0  -4  380.36   20.46
   7   0   4  373.54   28.03
   7   0   4  344.32   30.54
   8   0   4   23.69   12.06
   8   0   4   20.97   11.89
   8   0   4    8.81   10.79
   7  -1  -4   82.90   20.27
  -7   1   4   44.43   15.51
   7  -1  -4   87.72   20.03
  -7   1   4  103.02   14.34
  -6   1   4   49.11   13.37
   6  -1  -4   14.77   10.70
  -6   1   4   17.17    9.65
   6  -1  -4   25.75   12.15
   6  -1  -4   42.97   13.67
  -6   1   4   13.64    8.06
   6  -1  -4   30.60   12.64
   6  -1  -4    4.09   11.18
  -6   1   4   21.23    8.55
   5  -1  -4   45.95   12.95
  -5   1   4   54.26   12.23
   5  -1  -4   28.30   12.66
   5  -1  -4   67.53   14.42
  -5   1   4   32.56   10.91
  -5   1   4   63.57   11.41
  -5   1   4   53.20   13.11
   5  -1  -4   37.73   12.96
  -5   1   4   57.67   13.19
  -5   1   4   46.16   10.57
   5  -1  -4   53.71   13.42
   4  -1  -4  434.26   29.43
   4  -1  -4  401.93   28.02
  -4   1   4  448.11   29.77
   4  -1  -4  405.42   31.82
  -4   1   4  413.74   25.76
   4  -1  -4  414.05   28.37
  -4   1   4  386.34   27.15
   4  -1  -4  416.77   30.24
   4  -1  -4  438.54   31.35
  -4   1   4  484.93   30.12
  -4   1   4  428.29   27.15
  -3   1   4   90.22   12.95
   3  -1  -4   71.21   13.47
  -3   1   4   68.51   12.01
   3  -1  -4   76.65   11.78
   3  -1  -4   72.09   13.16
  -3   1   4   82.93   11.23
   3  -1  -4   89.62   12.52
  -3   1   4   64.89   11.86
   3  -1  -4   80.46   13.07
  -3   1   4   83.39   11.64
   3  -1  -4   93.00   13.23
   2  -1  -4 1073.04   48.06
  -2   1   4  912.42   45.48
   2  -1  -4 1038.97   47.53
   2  -1  -4 1007.62   48.02
  -2   1   4  977.00   44.77
  -2   1   4 1015.18   43.99
  -2   1   4 1045.22   47.53
   2  -1  -4 1036.49   45.29
   2  -1  -4 1026.22   45.33
   2  -1  -4  988.17   46.05
  -1   1   4  449.08   26.36
  -1   1   4  418.09   25.62
   1  -1  -4  426.37   24.39
  -1   1   4  490.45   25.55
  -1   1   4  516.95   25.97
   1  -1  -4  491.80   27.57
   1  -1  -4  465.77   26.94
   1  -1  -4  441.59   26.08
   1  -1  -4  487.48   25.92
  -1   1   4  450.26   26.07
   1  -1  -4  463.52   24.64
   1  -1  -4  480.19   26.32
  -1   1   4  445.87   24.26
   0   1   4   21.92    6.26
   0   1   4   36.67    7.89
   0  -1  -4   35.52    7.38
   0   1   4   23.42    6.54
   0  -1  -4   16.07    5.63
   0  -1  -4   17.99    5.54
   0  -1  -4   16.71    6.14
   0   1   4   23.33    6.86
   0   1   4   31.23    6.42
   0  -1  -4   22.03    5.92
   0   1   4   21.53    5.73
   0  -1  -4   27.28    7.44
  -1  -1  -4  170.50   13.87
  -1  -1  -4  189.57   14.96
  -1  -1  -4  188.18   14.13
   1   1   4  195.47   13.86
   1   1   4  190.29   13.42
  -1  -1  -4  194.52   14.24
   1   1   4  180.38   14.80
   1   1   4  202.83   14.85
  -1  -1  -4  201.62   12.89
  -1  -1  -4  191.58   14.31
  -1  -1  -4  192.74   13.09
   1   1   4  177.87   15.39
   2   1   4  367.54   21.84
  -2  -1  -4  399.93   19.34
   2   1   4  453.37   22.10
  -2  -1  -4  429.23   22.52
  -2  -1  -4  429.94   21.67
   2   1   4  409.42   21.80
   2   1   4  390.61   22.41
  -2  -1  -4  386.33   21.85
  -2  -1  -4  386.99   20.57
   2   1   4  377.42   23.62
   2   1   4  427.85   23.57
  -2  -1  -4  386.98   19.71
  -3  -1  -4 1745.66   66.72
   3   1   4 1735.84   66.38
   3   1   4 1693.50   67.72
   3   1   4 1715.14   68.77
  -3  -1  -4 1784.20   62.60
  -3  -1  -4 1791.88   61.26
   3   1   4 1809.55   68.27
   3   1   4 1710.63   70.98
  -3  -1  -4 1758.24   64.45
  -3  -1  -4 1686.68   64.71
  -3  -1  -4 1793.34   63.04
  -4  -1  -4  604.83   23.53
   4   1   4  590.31   31.55
  -4  -1  -4  592.66   23.30
   4   1   4  586.73   30.73
  -4  -1  -4  509.54   28.20
   4   1   4  576.60   32.95
   4   1   4  545.17   30.04
   4   1   4  535.89   29.21
   5   1   4   -1.28    6.64
  -5  -1  -4   -5.03    3.90
   5   1   4    4.25    7.06
   5   1   4   15.49    7.67
   5   1   4    0.13    5.65
   5   1   4    5.00    6.06
   6   1   4  831.38   44.67
  -6  -1  -4  730.46   37.52
   6   1   4  757.89   45.43
   6   1   4  762.66   42.03
   6   1   4  827.47   44.91
   6   1   4  812.34   43.02
   7   1   4  256.13   25.31
   7   1   4  179.64   21.93
   7   1   4  264.12   26.65
  -7  -1  -4  238.78   19.79
   7   1   4  262.93   27.61
   8   1   4  108.11   20.81
   8   1   4   65.02   18.20
  -8  -1  -4   97.18   13.78
   7  -2  -4  130.53   23.53
   7  -2  -4  124.47   22.29
  -7   2   4  132.39   12.35
  -7   2   4  134.66   21.15
  -6   2   4   44.70    9.33
  -6   2   4   56.96   10.81
  -6   2   4   35.16   12.61
   6  -2  -4   65.21   16.26
   6  -2  -4   35.78   13.13
   6  -2  -4   54.85   14.41
   6  -2  -4   31.34   15.35
   6  -2  -4   49.97   14.00
   5  -2  -4  349.41   30.00
   5  -2  -4  352.40   27.61
  -5   2   4  332.44   24.04
  -5   2   4  364.89   23.63
   5  -2  -4  334.03   27.04
   5  -2  -4  343.47   27.09
   5  -2  -4  334.77   29.17
  -5   2   4  329.11   23.65
   5  -2  -4  333.87   32.75
  -5   2   4  316.56   24.58
  -5   2   4  342.93   22.41
  -5   2   4  316.72   27.21
   4  -2  -4   67.35   13.51
  -4   2   4   84.98   12.95
   4  -2  -4   76.46   13.09
   4  -2  -4   82.18   15.22
  -4   2   4  118.38   14.27
   4  -2  -4   72.05   13.03
   4  -2  -4   94.10   17.50
  -4   2   4   88.92   14.24
  -4   2   4   70.94   10.85
  -4   2   4   72.81   11.23
   4  -2  -4  102.07   14.31
   3  -2  -4  534.93   31.99
   3  -2  -4  469.28   30.98
   3  -2  -4  460.95   32.37
   3  -2  -4  504.27   29.44
  -3   2   4  541.51   30.56
  -3   2   4  513.72   29.92
  -3   2   4  524.39   31.00
   3  -2  -4  492.63   30.03
   3  -2  -4  498.10   28.93
  -3   2   4  498.80   27.28
  -3   2   4  550.19   28.89
  -2   2   4  655.07   33.73
  -2   2   4  555.29   32.54
   2  -2  -4  618.59   34.24
  -2   2   4  695.93   32.56
   2  -2  -4  659.22   32.21
   2  -2  -4  610.60   31.84
   2  -2  -4  669.82   35.87
   2  -2  -4  603.01   33.06
  -2   2   4  607.00   30.74
  -2   2   4  626.06   35.03
   2  -2  -4  577.57   33.38
   2  -2  -4  693.22   35.14
  -1   2   4  226.23   17.45
  -1   2   4  252.28   17.10
   1  -2  -4  267.46   18.96
   1  -2  -4  267.93   19.02
   1  -2  -4  223.71   16.67
   1  -2  -4  245.65   16.58
  -1   2   4  221.44   15.99
  -1   2   4  231.38   17.82
  -1   2   4  237.22   17.53
   1  -2  -4  223.92   17.53
   1  -2  -4  182.04   16.97
   0   2   4  215.01   15.07
   0   2   4  184.00   13.94
   0  -2  -4  197.36   15.49
   0  -2  -4  165.30   14.90
   0  -2  -4  152.55   13.41
   0  -2  -4  168.43   15.16
   0  -2  -4  162.63   15.23
   0   2   4  159.78   15.13
   0   2   4  158.69   14.89
   0  -2  -4  211.69   14.18
  -1  -2  -4 1358.49   51.23
   1   2   4 1265.69   51.67
  -1  -2  -4 1296.35   53.84
   1   2   4 1331.53   54.44
   1   2   4 1331.65   54.04
   1   2   4 1294.83   56.09
  -1  -2  -4 1308.50   53.70
   1   2   4 1229.29   54.16
  -1  -2  -4 1247.35   54.89
   1   2   4 1370.71   53.52
  -1  -2  -4 1256.11   51.60
  -2  -2  -4  270.65   18.35
  -2  -2  -4  299.01   19.67
  -2  -2  -4  298.17   17.79
   2   2   4  305.31   20.48
   2   2   4  312.45   19.91
   2   2   4  262.50   18.37
  -2  -2  -4  324.25   20.84
  -2  -2  -4  276.81   18.52
   2   2   4  327.43   22.40
  -2  -2  -4  294.49   17.45
   2   2   4  276.58   19.50
   3   2   4  701.95   34.82
   3   2   4  704.60   34.34
  -3  -2  -4  673.02   31.80
  -3  -2  -4  654.99   33.38
  -3  -2  -4  655.49   33.38
  -3  -2  -4  645.15   31.89
   3   2   4  665.34   37.12
  -3  -2  -4  656.69   29.85
   3   2   4  654.87   33.26
   3   2   4  697.39   35.65
  -3  -2  -4  662.45   30.67
  -4  -2  -4    4.41    4.61
  -4  -2  -4    5.77    4.29
   4   2   4   14.35    6.61
  -4  -2  -4    0.04    2.39
  -4  -2  -4    6.54    4.79
   4   2   4    8.46    7.09
  -4  -2  -4    9.78    5.65
  -4  -2  -4    4.27    4.08
   4   2   4    2.67    6.27
   4   2   4    0.01    5.58
   4   2   4    3.28    5.00
  -5  -2  -4  121.50   11.71
   5   2   4  106.82   16.17
  -5  -2  -4  133.88    9.72
   5   2   4  156.78   18.09
  -5  -2  -4  128.06    9.97
   5   2   4   97.22   15.00
   5   2   4  128.13   16.16
  -5  -2  -4  122.81   11.25
  -5  -2  -4  128.58   10.08
   5   2   4  132.38   18.41
  -5  -2  -4  106.10    9.20
  -5  -2  -4  109.05   13.89
   6   2   4  136.99   20.56
  -6  -2  -4  139.44   16.15
   6   2   4  111.28   16.94
   6   2   4  120.00   18.30
   6   2   4  130.64   19.21
   6   2   4  120.77   17.81
   7   2   4   49.07   15.28
   7   2   4   86.31   19.30
   7   2   4   59.46   15.06
   7   2   4   59.35   16.60
  -7  -2  -4   44.00   11.46
  -8  -2  -4   84.52   15.50
   8   2   4   80.80   20.95
   8   2   4   97.02   20.67
   7  -3  -4   18.57   11.89
   7  -3  -4   23.89   12.56
   6  -3  -4  101.68   24.12
   6  -3  -4  100.46   19.00
   6  -3  -4  109.93   18.31
   6  -3  -4  124.23   18.65
   6  -3  -4   88.76   17.18
  -6   3   4  103.98    9.94
  -6   3   4  105.38   10.53
  -6   3   4  104.03   10.72
  -6   3   4  124.13   11.50
  -5   3   4   24.41    8.24
  -5   3   4   36.48    8.68
   5  -3  -4   16.81    8.75
   5  -3  -4   29.75   10.73
   5  -3  -4   37.47   12.46
  -5   3   4   26.64    7.37
   5  -3  -4   27.84   10.30
   5  -3  -4   21.39    9.63
   5  -3  -4   16.73   11.22
  -4   3   4  352.48   23.53
  -4   3   4  363.41   23.04
  -4   3   4  411.29   23.18
   4  -3  -4  381.28   25.89
   4  -3  -4  406.39   32.69
   4  -3  -4  355.51   26.24
   4  -3  -4  343.54   27.53
  -4   3   4  357.08   24.38
   4  -3  -4  345.36   25.37
   4  -3  -4  364.66   27.97
  -3   3   4 1521.58   62.22
   3  -3  -4 1500.66   67.15
   3  -3  -4 1494.29   71.03
   3  -3  -4 1531.96   67.09
   3  -3  -4 1368.76   63.03
   3  -3  -4 1617.52   63.32
   3  -3  -4 1568.57   67.25
   3  -3  -4 1541.01   65.57
  -3   3   4 1608.31   61.38
  -3   3   4 1509.98   63.78
   2  -3  -4   58.93   10.59
  -2   3   4   56.52    9.38
   2  -3  -4   49.20   10.15
   2  -3  -4   57.58    9.83
   2  -3  -4   46.78   10.49
   2  -3  -4   65.42   11.64
  -2   3   4   68.32    9.61
  -2   3   4   65.06   10.64
   2  -3  -4   71.66   10.19
  -2   3   4   65.40   12.41
  -2   3   4   54.79    9.97
   2  -3  -4   64.07   12.71
   1  -3  -4  507.45   28.50
   1  -3  -4  530.00   31.25
   1  -3  -4  550.41   30.75
  -1   3   4  586.95   29.65
   1  -3  -4  524.61   29.99
  -1   3   4  502.88   29.84
  -1   3   4  580.96   32.62
   1  -3  -4  602.74   31.73
   1  -3  -4  616.33   29.38
   1  -3  -4  576.12   31.56
  -1   3   4  584.76   30.74
  -1   3   4  583.25   31.21
  -1   3   4  562.40   28.62
   0   3   4  898.35   42.12
   0  -3  -4  912.17   43.13
   0  -3  -4  980.40   40.62
   0  -3  -4  848.84   41.20
   0  -3  -4  908.55   40.86
   0   3   4  936.99   40.56
   0   3   4  878.16   42.92
   0  -3  -4  914.37   44.03
  -1  -3  -4  692.91   37.49
  -1  -3  -4  681.12   35.08
  -1  -3  -4  705.20   35.91
   1   3   4  771.15   34.80
  -1  -3  -4  728.73   36.22
   1   3   4  749.32   37.58
  -1  -3  -4  736.73   33.79
   1   3   4  715.72   35.20
   1   3   4  760.37   38.80
   1   3   4  758.11   36.52
  -1  -3  -4  679.81   33.89
  -2  -3  -4  279.75   20.34
   2   3   4  311.74   21.05
   2   3   4  344.43   22.80
   2   3   4  315.37   23.90
   2   3   4  295.57   22.28
   2   3   4  326.69   21.74
  -2  -3  -4  306.14   21.68
  -2  -3  -4  305.22   20.05
  -2  -3  -4  356.69   24.03
  -2  -3  -4  294.84   20.99
  -2  -3  -4  352.91   20.60
  -3  -3  -4   -0.99    4.29
   3   3   4    0.65    4.75
  -3  -3  -4   -4.58    3.68
   3   3   4    5.46    5.33
  -3  -3  -4    1.07    4.58
  -3  -3  -4    1.91    3.65
  -3  -3  -4    3.74    4.61
  -3  -3  -4   10.05    6.24
   3   3   4    4.09    6.13
   3   3   4    2.95    5.49
   3   3   4    0.71    4.66
  -4  -3  -4  152.18   14.17
  -4  -3  -4  149.17   16.45
   4   3   4  146.68   17.25
   4   3   4  110.42   16.12
   4   3   4  136.52   17.13
   4   3   4  165.63   19.90
  -4  -3  -4  132.23   14.10
  -4  -3  -4  174.52   14.86
  -4  -3  -4  189.94   16.70
   4   3   4  120.31   16.19
  -4  -3  -4  161.91   16.87
   5   3   4  749.22   46.82
  -5  -3  -4  809.36   38.80
  -5  -3  -4  782.00   35.58
  -5  -3  -4  697.22   39.95
  -5  -3  -4  780.65   37.08
   5   3   4  711.28   42.40
  -5  -3  -4  747.92   39.46
   5   3   4  750.23   42.89
  -5  -3  -4  751.05   36.01
  -5  -3  -4  677.98   34.86
   5   3   4  813.44   45.08
   5   3   4  801.43   45.19
  -6  -3  -4    0.78    6.56
  -6  -3  -4    1.65    5.13
  -6  -3  -4    3.56    4.72
   6   3   4   -2.70    6.78
  -6  -3  -4    0.76    3.78
   6   3   4    5.87    8.40
  -6  -3  -4   -2.13    4.55
   6   3   4   -1.85    8.02
   6   3   4  -10.53    6.45
   7   3   4  454.77   38.39
   7   3   4  403.43   39.02
  -7  -3  -4  488.93   34.05
   7   3   4  439.32   35.54
  -8  -3  -4  116.45   19.90
   8   3   4  130.96   24.71
   8   3   4  114.28   25.07
   7  -4  -4  181.39   26.46
   6  -4  -4   98.03   16.79
   6  -4  -4   88.49   16.44
   6  -4  -4   67.10   16.51
   6  -4  -4   59.83   14.59
   6  -4  -4   90.60   22.89
  -5   4   4  199.90   14.53
   5  -4  -4  195.65   22.75
  -5   4   4  199.85   15.08
   5  -4  -4  224.81   28.77
  -5   4   4  210.69   14.71
   5  -4  -4  217.08   21.37
   5  -4  -4  248.65   22.51
   5  -4  -4  235.80   24.26
   5  -4  -4  206.48   21.19
  -5   4   4  214.25   14.18
  -4   4   4 1311.33   54.20
   4  -4  -4 1312.86   62.13
   4  -4  -4 1289.84   61.59
   4  -4  -4 1321.95   62.32
  -4   4   4 1352.23   52.33
   4  -4  -4 1246.83   59.21
  -4   4   4 1275.19   52.87
   4  -4  -4 1254.49   56.82
   4  -4  -4 1256.05   58.50
   4  -4  -4 1251.93   67.74
   3  -4  -4   22.29   10.92
   3  -4  -4   32.51    9.78
   3  -4  -4   53.79   11.70
   3  -4  -4   45.25    9.97
  -3   4   4   25.51    7.76
   3  -4  -4   42.01   10.24
   3  -4  -4   50.05   11.71
   3  -4  -4   54.97   10.38
  -3   4   4   44.49    8.42
  -3   4   4   52.04   13.54
  -2   4   4  264.07   20.14
   2  -4  -4  312.97   23.37
   2  -4  -4  313.05   22.47
   2  -4  -4  268.62   19.82
  -2   4   4  267.15   18.90
  -2   4   4  309.12   20.29
   2  -4  -4  304.09   21.97
   2  -4  -4  283.29   21.73
   2  -4  -4  322.52   23.94
   2  -4  -4  304.88   20.95
  -2   4   4  284.35   24.85
   1  -4  -4 1047.58   47.40
  -1   4   4 1068.96   45.91
  -1   4   4  996.11   47.53
   1  -4  -4 1008.24   49.05
   1  -4  -4  908.00   44.80
  -1   4   4 1003.85   50.63
  -1   4   4  995.71   46.73
   1  -4  -4 1052.60   48.16
  -1   4   4  980.32   44.08
   1  -4  -4 1084.65   45.59
   1  -4  -4 1019.66   48.21
   0  -4  -4  200.48   18.86
   0  -4  -4  180.61   17.16
   0  -4  -4  201.36   16.36
   0   4   4  202.45   18.09
   0   4   4  189.63   16.29
   0  -4  -4  207.60   17.95
   0  -4  -4  212.68   18.83
   0   4   4  180.06   17.84
   0  -4  -4  201.45   16.64
   0   4   4  201.33   16.91
   0   4   4  188.03   17.87
   1   4   4 1199.06   56.07
  -1  -4  -4 1189.25   54.41
   1   4   4 1276.27   58.22
  -1  -4  -4 1262.58   56.01
  -1  -4  -4 1291.12   58.43
  -1  -4  -4 1306.41   53.12
   1   4   4 1172.37   54.47
  -1  -4  -4 1228.60   53.71
   1   4   4 1211.59   53.07
   2   4   4  879.94   47.44
  -2  -4  -4  802.05   41.61
   2   4   4  857.82   42.67
  -2  -4  -4  870.40   43.82
  -2  -4  -4 1002.05   42.94
   2   4   4  966.49   45.23
  -2  -4  -4  918.75   44.75
   2   4   4  845.43   44.99
  -2  -4  -4  883.64   46.39
   2   4   4  955.92   45.53
  -2  -4  -4  861.09   43.49
   3   4   4  205.18   19.32
   3   4   4  229.43   22.79
   3   4   4  151.32   17.77
   3   4   4  181.04   19.14
  -3  -4  -4  188.88   19.86
   3   4   4  183.03   19.72
  -3  -4  -4  150.63   16.76
  -3  -4  -4  132.48   14.92
  -3  -4  -4  198.59   17.10
  -3  -4  -4  195.38   18.56
  -3  -4  -4  158.70   16.91
  -4  -4  -4 1734.36   78.18
  -4  -4  -4 1829.97   77.18
  -4  -4  -4 1800.10   72.52
   4   4   4 1804.00   78.74
  -4  -4  -4 1624.55   72.71
   4   4   4 1764.85   79.84
   4   4   4 1800.06   83.11
   4   4   4 1950.31   80.84
  -4  -4  -4 1736.54   75.63
  -4  -4  -4 1953.05   76.44
   4   4   4 1742.33   77.12
  -5  -4  -4   -6.27    5.70
   5   4   4   -3.17    6.43
  -5  -4  -4   -2.30    5.03
   5   4   4    8.95    9.55
  -5  -4  -4    2.06    6.46
   5   4   4   -7.23    7.14
   5   4   4    0.68    8.79
  -5  -4  -4    5.52    6.26
   5   4   4    1.33    6.90
  -5  -4  -4    7.05    7.55
  -6  -4  -4   77.24   12.27
  -6  -4  -4  104.66   17.24
  -6  -4  -4   80.21   13.08
   6   4   4   70.23   17.35
   6   4   4   92.91   18.56
   6   4   4   72.55   17.88
   6   4   4   73.23   18.59
  -6  -4  -4   76.70   12.29
   7   4   4  165.67   28.33
   7   4   4  234.94   28.20
  -7  -4  -4  208.79   24.17
   7   4   4  161.05   26.06
  -7  -4  -4  188.31   16.84
   7  -5  -4   14.02   11.73
   6  -5  -4   43.22   14.46
   6  -5  -4   46.05   12.67
   6  -5  -4   16.84   10.53
   6  -5  -4   55.70   15.99
   5  -5  -4  160.05   26.36
   5  -5  -4  155.73   20.61
   5  -5  -4  182.38   21.08
   5  -5  -4  184.97   22.99
   5  -5  -4  133.33   20.16
   5  -5  -4  181.19   19.67
   5  -5  -4  199.72   20.57
   5  -5  -4  201.03   20.91
  -4   5   4  161.54   13.55
   4  -5  -4  144.33   23.38
   4  -5  -4  147.50   19.33
   4  -5  -4  153.50   18.24
   4  -5  -4  125.44   17.72
  -4   5   4  128.62   12.20
   4  -5  -4  152.63   17.02
   4  -5  -4  124.74   16.88
   4  -5  -4  152.33   19.22
   4  -5  -4  130.79   16.54
  -3   5   4  171.19   22.01
   3  -5  -4  143.94   17.75
   3  -5  -4  153.00   18.53
   3  -5  -4  200.73   19.57
   3  -5  -4  168.58   17.03
   3  -5  -4  163.19   17.89
   3  -5  -4  172.75   19.47
  -3   5   4  148.36   13.84
   3  -5  -4  174.10   17.44
  -3   5   4  192.05   15.57
   2  -5  -4  844.96   42.61
   2  -5  -4  888.72   45.42
  -2   5   4  863.22   39.81
   2  -5  -4  769.61   42.09
   2  -5  -4  919.13   45.34
  -2   5   4  834.02   41.88
  -2   5   4  863.37   40.79
   2  -5  -4  931.23   45.54
  -2   5   4  874.07   49.14
   2  -5  -4  920.37   42.37
   2  -5  -4  856.10   45.67
   1  -5  -4  147.18   17.74
  -1   5   4  154.23   16.54
   1  -5  -4  174.15   18.10
   1  -5  -4  136.50   15.92
  -1   5   4  165.22   15.65
   1  -5  -4  121.08   15.23
  -1   5   4  141.53   15.71
   1  -5  -4  190.39   16.82
  -1   5   4  138.60   14.57
  -1   5   4  156.71   19.41
   1  -5  -4  148.57   15.52
   0  -5  -4 1468.25   61.59
   0   5   4 1410.35   62.23
   0   5   4 1423.77   62.84
   0  -5  -4 1419.75   61.71
   0   5   4 1497.06   64.88
   0  -5  -4 1406.17   65.28
   0   5   4 1378.91   60.73
   0  -5  -4 1437.39   62.72
   0  -5  -4 1332.04   62.61
   0  -5  -4 1385.31   59.54
  -1  -5  -4  161.81   17.92
   1   5   4  154.65   17.43
  -1  -5  -4  139.94   16.01
   1   5   4  170.79   17.38
  -1  -5  -4  204.41   19.30
  -1  -5  -4  189.01   18.58
  -1  -5  -4  170.24   19.66
  -1  -5  -4  180.17   17.42
   1   5   4  211.57   20.30
  -2  -5  -4   68.58   14.01
   2   5   4   76.49   14.20
   2   5   4   70.63   12.90
  -2  -5  -4   79.64   13.39
   2   5   4   65.88   12.85
  -2  -5  -4   95.81   13.86
  -2  -5  -4   62.17   12.41
  -2  -5  -4   67.81   12.26
   2   5   4   69.74   13.15
   2   5   4   65.55   14.13
  -3  -5  -4  582.78   38.14
   3   5   4  539.09   36.63
   3   5   4  608.18   40.62
  -3  -5  -4  597.24   34.95
  -3  -5  -4  571.43   35.06
   3   5   4  636.77   39.00
   3   5   4  585.31   36.19
   3   5   4  563.95   36.55
  -3  -5  -4  626.78   36.92
   4   5   4   31.41   12.25
  -4  -5  -4   41.98   12.32
   4   5   4   63.70   14.83
  -4  -5  -4   64.90   15.54
   4   5   4   82.61   18.20
   4   5   4   76.68   15.93
  -4  -5  -4   46.65   12.85
  -4  -5  -4   67.13   13.51
   4   5   4   37.41   12.90
  -5  -5  -4  511.92   36.09
  -5  -5  -4  467.99   32.58
   5   5   4  465.78   40.40
   5   5   4  482.99   36.94
   5   5   4  550.64   38.56
  -5  -5  -4  514.79   34.82
  -5  -5  -4  509.51   37.05
  -5  -5  -4  439.76   31.49
   5   5   4  538.01   37.74
   5   5   4  535.06   39.48
   6   5   4  265.63   32.97
  -6  -5  -4  292.38   28.80
   6   5   4  330.53   33.42
  -6  -5  -4  288.85   25.68
   6   5   4  256.30   29.33
  -6  -5  -4  277.95   24.59
  -6  -5  -4  272.81   24.00
   6   5   4  362.49   33.44
  -6  -5  -4  267.30   26.13
   7   5   4   16.92   14.60
  -7  -5  -4   20.05    9.37
   7   5   4   19.18   14.29
   7   5   4   25.29   15.49
   7  -6  -4   15.91   12.73
   7  -6  -4   32.55   16.26
   6  -6  -4  169.23   23.73
   6  -6  -4  187.16   22.08
   6  -6  -4  222.98   24.14
   6  -6  -4  178.73   24.83
   5  -6  -4  124.10   18.31
   5  -6  -4  105.84   23.99
   5  -6  -4  145.56   18.87
   5  -6  -4  159.87   19.53
   5  -6  -4  113.74   19.27
   5  -6  -4  151.41   20.67
   5  -6  -4  112.54   16.91
  -4   6   4  273.46   15.73
   4  -6  -4  227.93   22.73
  -4   6   4  267.55   14.83
   4  -6  -4  218.01   22.24
   4  -6  -4  226.46   24.36
   4  -6  -4  283.75   23.70
   4  -6  -4  258.24   25.31
   4  -6  -4  232.31   24.02
  -4   6   4  280.68   16.12
   4  -6  -4  253.62   22.58
   3  -6  -4 1032.14   52.50
   3  -6  -4 1005.00   49.49
   3  -6  -4 1021.76   51.40
   3  -6  -4  995.12   49.76
   3  -6  -4  964.87   50.43
  -3   6   4  846.64   54.96
   3  -6  -4  958.24   52.42
  -3   6   4  956.80   43.72
  -3   6   4 1062.56   43.61
   3  -6  -4 1089.82   49.31
  -2   6   4  195.27   18.08
  -2   6   4  170.63   22.33
  -2   6   4  192.90   16.70
   2  -6  -4  197.05   21.70
   2  -6  -4  169.72   19.23
   2  -6  -4  181.48   18.09
  -2   6   4  189.73   17.03
   2  -6  -4  213.33   20.44
   2  -6  -4  193.42   19.71
   2  -6  -4  165.35   17.58
   1  -6  -4  103.57   15.45
  -1   6   4   70.65   15.85
   1  -6  -4   73.44   12.60
  -1   6   4   72.00   12.83
   1  -6  -4   99.75   13.46
  -1   6   4   84.47   13.81
  -1   6   4   79.77   13.68
   1  -6  -4   74.97   14.29
  -1   6   4   66.45   11.95
  -1   6   4   97.43   12.92
   1  -6  -4   86.72   13.68
   1  -6  -4   70.69   13.05
   0   6   4  299.87   24.10
   0  -6  -4  325.11   24.24
   0  -6  -4  304.60   24.18
   0  -6  -4  334.46   25.84
   0  -6  -4  311.63   24.05
   0   6   4  324.56   25.83
   0  -6  -4  287.28   23.35
   0  -6  -4  360.63   27.74
   0   6   4  307.23   24.16
   0   6   4  284.51   22.55
   0   6   4  312.59   23.95
  -1  -6  -4   -4.99    5.69
  -1  -6  -4    1.16    5.63
   1   6   4    4.98    6.97
   1   6   4    4.06    7.09
  -1  -6  -4    0.97    5.06
   1   6   4   -2.31    4.75
   1   6   4    2.66    5.42
   1   6   4   -4.70    5.77
  -1  -6  -4    6.40    6.62
  -1  -6  -4    0.68    4.95
   2   6   4  943.93   52.46
   2   6   4 1071.02   54.42
  -2  -6  -4 1016.73   52.27
  -2  -6  -4 1060.88   57.25
   2   6   4 1027.43   52.84
  -2  -6  -4 1122.91   55.70
   2   6   4 1180.08   59.86
  -2  -6  -4 1037.37   53.40
   2   6   4 1014.62   55.32
  -2  -6  -4 1121.84   52.51
   3   6   4  243.77   25.20
  -3  -6  -4  269.31   27.23
   3   6   4  298.75   27.61
  -3  -6  -4  301.39   26.53
   3   6   4  294.34   26.15
  -3  -6  -4  238.71   24.06
   3   6   4  285.43   29.04
   3   6   4  238.77   25.37
  -3  -6  -4  231.28   22.89
  -4  -6  -4  112.34   17.38
  -4  -6  -4  109.48   18.19
   4   6   4  112.58   19.11
  -4  -6  -4  151.47   22.80
   4   6   4  139.44   21.65
   4   6   4  163.09   22.29
   4   6   4   99.69   20.88
   4   6   4   91.98   18.38
  -5  -6  -4  762.64   48.98
   5   6   4  885.35   58.22
   5   6   4  767.52   49.68
   5   6   4  835.82   52.12
  -5  -6  -4  847.50   53.05
  -5  -6  -4  844.12   48.18
   5   6   4  849.37   54.01
  -5  -6  -4  812.18   47.88
  -6  -6  -4    7.89    8.84
   6   6   4   12.78   11.22
  -6  -6  -4   14.62   10.30
   6   6   4   15.67   11.64
  -6  -6  -4   15.00   11.72
   6   6   4    5.75   10.91
  -6  -6  -4   18.79   11.21
   7   6   4   84.98   21.61
   7   6   4   67.16   21.37
  -7  -6  -4   71.12   15.90
   7   6   4   66.12   20.92
   6  -7  -4  125.25   21.28
   6  -7  -4  109.87   20.86
   5  -7  -4    1.64    7.89
   5  -7  -4   10.32    8.88
   5  -7  -4   -1.80    7.84
   5  -7  -4   16.79   10.34
   5  -7  -4    6.88    9.14
   5  -7  -4   27.54   12.06
   4  -7  -4  187.39   22.00
   4  -7  -4  192.62   20.80
   4  -7  -4  206.21   24.29
   4  -7  -4  201.99   24.10
  -4   7   4  194.03   27.83
   4  -7  -4  220.38   21.80
   4  -7  -4  238.04   23.17
   4  -7  -4  201.91   21.80
  -3   7   4   13.09    6.40
  -3   7   4    5.91    5.47
   3  -7  -4   -5.18    6.73
   3  -7  -4   14.42    8.23
   3  -7  -4   10.59    7.44
   3  -7  -4   15.48    8.98
  -3   7   4   17.14   10.72
   3  -7  -4   21.22   10.36
   3  -7  -4   20.85    9.28
   3  -7  -4    9.72    8.65
   2  -7  -4    3.88    6.49
   2  -7  -4   -2.05    5.90
  -2   7   4   -4.47    5.45
   2  -7  -4    2.39    6.20
   2  -7  -4   12.82    7.55
  -2   7   4    6.66    6.34
   2  -7  -4    1.78    6.88
  -2   7   4    4.46    6.52
  -2   7   4    0.64    7.10
   2  -7  -4   -2.73    5.25
  -1   7   4 1062.40   52.19
  -1   7   4  920.60   49.10
   1  -7  -4 1010.77   51.53
   1  -7  -4 1013.89   55.11
   1  -7  -4 1026.82   49.98
  -1   7   4  985.55   47.69
  -1   7   4 1092.30   52.73
  -1   7   4 1034.04   49.54
  -1   7   4  993.44   57.99
   1  -7  -4  927.24   51.23
   1  -7  -4 1040.71   51.35
   1  -7  -4  938.53   52.16
   0  -7  -4   -1.53    6.37
   0  -7  -4    1.71    5.44
   0   7   4    2.88    6.62
   0   7   4    1.15    5.85
   0  -7  -4    9.36    7.23
   0   7   4    0.28    6.46
   0   7   4    4.03    7.85
   0   7   4   -3.51    7.03
   0  -7  -4    7.84    7.06
   0  -7  -4   11.45    7.82
  -1  -7  -4 1027.42   55.97
  -1  -7  -4  929.46   48.49
   1   7   4  814.06   47.08
   1   7   4  843.31   49.89
  -1  -7  -4  907.48   51.45
   1   7   4  955.54   50.44
  -1  -7  -4  901.44   49.53
  -1  -7  -4  940.92   49.37
   1   7   4  945.00   51.29
   1   7   4  982.81   53.79
   2   7   4   11.07    9.25
   2   7   4   -0.09    4.49
  -2  -7  -4   16.91    9.92
   2   7   4    1.10    6.88
  -2  -7  -4    5.12    7.90
  -2  -7  -4    3.84    7.74
   2   7   4   13.54   10.15
   2   7   4    8.67    9.02
  -2  -7  -4    1.24    8.36
  -2  -7  -4   21.22    9.61
   3   7   4   37.69   13.50
  -3  -7  -4   46.30   14.99
  -3  -7  -4   44.68   13.27
  -3  -7  -4   42.30   12.33
   3   7   4   41.10   13.69
   3   7   4   60.37   15.56
   3   7   4   93.78   17.76
   3   7   4   50.98   14.96
  -3  -7  -4   39.79   13.18
  -4  -7  -4  289.44   31.97
   4   7   4  257.25   28.70
  -4  -7  -4  254.69   25.93
   4   7   4  264.33   30.17
   4   7   4  337.29   32.56
   4   7   4  278.67   32.25
  -4  -7  -4  265.22   28.19
   4   7   4  283.18   28.46
  -4  -7  -4  260.64   28.02
  -5  -7  -4  352.54   31.38
   5   7   4  340.95   35.83
   5   7   4  378.16   35.71
   5   7   4  328.57   37.89
   5   7   4  374.39   35.00
  -5  -7  -4  396.35   38.48
  -5  -7  -4  334.75   32.13
  -6  -7  -4   39.88   14.44
   6   7   4   65.11   21.23
   6   7   4   43.18   17.54
  -6  -7  -4   61.52   16.39
   6   7   4   67.05   20.35
   7   7   4   64.26   21.30
   6  -8  -4    5.59   11.57
   6  -8  -4    3.85    9.67
   5  -8  -4  470.95   37.26
   5  -8  -4  465.24   35.07
   5  -8  -4  601.35   42.34
   5  -8  -4  490.47   36.14
   4  -8  -4  195.31   23.65
  -4   8   4  216.21   30.99
   4  -8  -4  275.50   26.62
   4  -8  -4  234.51   23.92
   4  -8  -4  222.94   23.62
   4  -8  -4  222.14   23.45
   4  -8  -4  246.14   27.61
   3  -8  -4  125.27   20.45
   3  -8  -4  205.75   22.90
   3  -8  -4  213.64   24.99
  -3   8   4  187.60   27.09
   3  -8  -4  186.45   21.12
  -3   8   4  184.51   14.74
   3  -8  -4  198.30   21.66
   3  -8  -4  159.40   20.17
  -2   8   4  208.52   18.33
   2  -8  -4  216.63   22.71
  -2   8   4  237.73   20.68
  -2   8   4  171.38   25.84
   2  -8  -4  233.89   22.91
   2  -8  -4  163.46   21.02
  -2   8   4  226.67   19.23
   2  -8  -4  255.75   26.74
   2  -8  -4  246.11   25.71
   2  -8  -4  226.35   22.83
   1  -8  -4  145.64   20.41
  -1   8   4  155.50   17.55
   1  -8  -4  164.82   22.49
  -1   8   4  155.72   18.22
   1  -8  -4  170.67   20.52
  -1   8   4  165.47   20.76
  -1   8   4  147.87   19.35
   1  -8  -4  133.39   19.01
  -1   8   4  141.73   23.32
  -1   8   4  141.00   18.34
   1  -8  -4  142.52   19.39
   0  -8  -4  408.80   33.35
   0   8   4  456.08   32.76
   0  -8  -4  350.23   29.63
   0   8   4  506.33   33.22
   0  -8  -4  487.51   32.84
   0   8   4  363.21   28.66
   0  -8  -4  401.37   31.44
   0  -8  -4  459.37   36.88
   0   8   4  387.63   32.16
   0   8   4  446.92   32.78
   1   8   4  783.72   46.25
   1   8   4  738.34   44.24
   1   8   4  716.72   46.75
  -1  -8  -4  843.97   47.08
  -1  -8  -4  741.86   45.77
   1   8   4  800.56   50.24
  -1  -8  -4  858.13   49.99
  -1  -8  -4  764.96   50.86
   1   8   4  817.86   48.69
  -1  -8  -4  787.10   46.65
  -2  -8  -4   46.41   13.59
   2   8   4   57.72   16.19
   2   8   4   79.82   17.79
   2   8   4   81.47   16.90
  -2  -8  -4   80.26   17.09
   2   8   4   64.51   16.24
  -2  -8  -4   42.78   15.43
  -2  -8  -4   66.83   17.40
   2   8   4   99.79   18.34
   3   8   4  568.50   45.06
  -3  -8  -4  542.54   43.50
   3   8   4  475.04   37.63
  -3  -8  -4  593.68   40.38
  -3  -8  -4  604.71   42.70
   3   8   4  554.92   41.16
  -3  -8  -4  505.95   39.18
   3   8   4  578.60   43.18
   3   8   4  525.85   40.45
   4   8   4  159.30   25.48
   4   8   4  121.32   25.33
   4   8   4  128.88   24.28
  -4  -8  -4  118.73   22.24
   4   8   4  143.91   23.11
  -4  -8  -4  155.67   27.42
  -4  -8  -4  123.86   22.51
   4   8   4  106.59   21.45
  -4  -8  -4  129.20   21.09
  -5  -8  -4   22.29   13.06
   5   8   4   16.28   13.27
   5   8   4    7.56   11.88
  -5  -8  -4   -2.27    8.75
  -5  -8  -4   11.36   12.77
   5   8   4   20.54   14.40
  -6  -8  -4  159.99   24.51
   6   8   4  137.48   26.90
   6   8   4   73.83   22.68
   5  -9  -4   35.21   14.92
   5  -9  -4   52.01   16.46
   4  -9  -4   12.49   11.48
   4  -9  -4    8.68   10.13
   4  -9  -4    9.91    9.18
   4  -9  -4   -8.80    8.50
  -4   9   4   19.68   13.63
   3  -9  -4  528.45   37.68
  -3   9   4  563.52   25.29
   3  -9  -4  600.39   38.73
   3  -9  -4  545.66   38.02
   3  -9  -4  563.78   39.98
   3  -9  -4  537.20   41.19
  -3   9   4  554.28   26.44
  -3   9   4  523.26   46.82
  -2   9   4   67.60   12.06
   2  -9  -4   39.73   12.95
   2  -9  -4   73.40   16.19
   2  -9  -4   62.21   15.04
  -2   9   4   87.92   21.32
   2  -9  -4   62.31   14.94
   2  -9  -4   39.68   14.16
  -2   9   4   54.48   10.85
  -2   9   4   48.50   11.89
  -1   9   4   86.01   15.65
   1  -9  -4   86.08   19.23
  -1   9   4   28.55   13.69
   1  -9  -4   78.29   16.92
   1  -9  -4  131.26   20.27
  -1   9   4   90.72   15.21
  -1   9   4  118.02   19.02
  -1   9   4   80.55   13.84
   1  -9  -4   61.26   15.48
   1  -9  -4   96.18   18.91
  -1   9   4  107.75   17.57
   0  -9  -4  157.58   21.65
   0   9   4  160.45   22.00
   0  -9  -4  119.31   22.03
   0   9   4  165.18   20.85
   0   9   4  183.56   23.72
   0   9   4  131.93   18.59
   0  -9  -4  194.94   23.03
   0   9   4  178.44   22.20
   0  -9  -4  142.37   22.52
   0  -9  -4  145.52   20.86
  -1  -9  -4   -1.85    6.64
   1   9   4   -1.20    9.03
  -1  -9  -4    5.91    9.62
   1   9   4   11.45    9.53
   1   9   4    5.23    9.55
   1   9   4   -5.46    6.43
  -1  -9  -4    7.52    8.33
  -1  -9  -4    3.81    9.68
   1   9   4   -6.20    6.48
   2   9   4  950.19   57.47
  -2  -9  -4  953.25   57.06
   2   9   4  934.62   56.41
   2   9   4 1005.37   61.74
  -2  -9  -4 1020.46   59.73
   2   9   4  998.76   55.36
   2   9   4  967.88   58.89
  -2  -9  -4  850.38   59.75
   3   9   4  795.46   55.84
   3   9   4  706.40   49.48
   3   9   4  634.18   48.59
  -3  -9  -4  714.53   49.19
  -3  -9  -4  810.58   52.39
   3   9   4  641.83   45.80
  -3  -9  -4  646.83   51.58
   3   9   4  721.31   49.28
  -3  -9  -4  629.23   45.86
   4   9   4   -0.50   11.91
   4   9   4    5.83   10.83
  -4  -9  -4    7.37   10.85
  -4  -9  -4    0.51   12.20
  -4  -9  -4   -4.04    8.43
   4   9   4   10.10   10.95
   4   9   4    2.99   11.14
  -5  -9  -4   63.92   21.55
   5   9   4   97.48   23.91
  -5  -9  -4   62.25   18.23
   5   9   4   54.03   18.70
   5 -10  -4    9.80   11.06
   5 -10  -4   -4.58   11.84
   4 -10  -4  127.84   22.42
   4 -10  -4  113.63   23.31
   3 -10  -4   60.14   16.68
   3 -10  -4   76.30   17.71
   3 -10  -4   62.54   16.88
   3 -10  -4  108.38   22.20
  -3  10   4   76.57   22.16
   2 -10  -4  529.59   38.86
  -2  10   4  520.72   32.67
   2 -10  -4  562.79   44.16
  -2  10   4  504.56   29.58
   2 -10  -4  529.54   40.21
   2 -10  -4  495.98   38.16
  -2  10   4  456.64   44.53
  -1  10   4  228.85   22.67
  -1  10   4  228.19   26.96
  -1  10   4  212.62   23.52
  -1  10   4  211.18   31.38
  -1  10   4  207.28   21.58
   1 -10  -4  246.78   27.04
   1 -10  -4  298.21   29.55
   1 -10  -4  206.64   29.45
  -1  10   4  234.97   25.75
   0  10   4   67.15   15.60
   0 -10  -4   37.02   13.87
   0  10   4   12.25   11.62
   0  10   4   80.63   18.67
   0 -10  -4   75.50   17.77
   0 -10  -4  103.35   22.47
   0  10   4   51.50   14.85
   0  10   4   75.59   16.20
  -1 -10  -4  226.36   28.17
   1  10   4  297.80   29.91
   1  10   4  259.09   31.44
   1  10   4  220.79   28.90
   1  10   4  256.21   27.07
  -1 -10  -4  236.79   28.35
  -1 -10  -4  249.47   32.55
   1  10   4  258.66   28.97
  -2 -10  -4  346.75   34.59
   2  10   4  287.94   35.39
   2  10   4  381.04   35.53
   2  10   4  366.76   36.43
  -2 -10  -4  399.35   36.85
   2  10   4  406.57   38.72
   2  10   4  387.03   34.55
   3  10   4   -0.54   10.93
  -3 -10  -4    7.12   10.74
   3  10   4    1.68   10.99
   3  10   4   -5.38   12.33
  -3 -10  -4   -2.51    9.27
   3  10   4   -0.69    9.46
   4  10   4  180.63   28.25
   4  10   4  212.79   32.69
  -4 -10  -4  113.55   23.83
   5  10   4  144.17   30.33
   5  10   4   91.68   24.78
   4 -11  -4   76.34   19.71
   4 -11  -4   74.77   21.62
   3 -11  -4    0.23   12.27
   3 -11  -4   15.75   12.64
  -2  11   4   66.00   21.82
   2 -11  -4   74.61   18.84
  -2  11   4   83.72   13.96
   2 -11  -4   80.62   22.05
   2 -11  -4   67.83   17.74
   2 -11  -4   73.80   19.05
   1 -11  -4  109.14   24.17
   1 -11  -4   72.58   19.09
  -1  11   4   71.01   14.05
  -1  11   4   54.42   16.67
   1 -11  -4   49.56   15.98
  -1  11   4   61.65   21.05
  -1  11   4   48.97   13.89
   0  11   4  278.85   31.32
   0  11   4  255.22   30.48
   0  11   4  201.74   26.21
   0 -11  -4  180.56   26.81
   0  11   4  263.19   26.14
   0 -11  -4  254.21   29.90
   0  11   4  170.34   23.69
   1  11   4  417.89   37.00
   1  11   4  296.05   35.14
  -1 -11  -4  333.18   35.37
   1  11   4  394.88   34.05
   1  11   4  383.66   35.88
  -1 -11  -4  264.89   32.40
   2  11   4   18.31   14.51
  -2 -11  -4   15.28   12.26
   2  11   4   -5.83   12.40
   2  11   4   -8.47    8.35
   2  11   4    0.67   10.30
  -2 -11  -4   -3.52    9.70
   3  11   4   33.07   15.88
  -3 -11  -4   11.72   12.64
   3  11   4   42.64   18.58
   3  11   4   25.94   16.04
   4  11   4   94.76   25.52
   4  11   4   70.39   22.31
  -4 -11  -4   59.97   21.14
   2 -12  -4   10.21   12.62
  -2  12   4    4.63    7.89
  -1  12   4    7.37   10.45
   1 -12  -4   -2.18   11.96
  -1  12   4    0.69   11.99
   0  12   4  447.51   41.60
   0  12   4  420.56   35.17
   0  12   4  418.23   37.85
   0 -12  -4  477.93   42.44
   0 -12  -4  453.14   42.45
   1  12   4    6.24   13.28
   1  12   4   10.29   11.64
  -1 -12  -4    6.27   14.46
   1  12   4    8.00   12.08
  -1 -12  -4    5.43   12.38
   2  12   4   36.13   17.71
  -2 -12  -4   43.44   18.98
   2  12   4   88.13   24.30
   2  12   4   68.69   20.06
  -2 -10   5   39.30   19.96
   2  10  -5   18.10   12.29
   2  10  -5   38.71   17.16
  -2 -10   5   38.02   18.55
  -2 -10   5   23.38   15.45
   1  10  -5  103.41   18.35
  -1 -10   5  138.54   27.08
  -1 -10   5   92.25   22.17
   0 -10   5    2.81   10.87
   0  10  -5    3.61    7.26
   0 -10   5   -6.02   11.03
   1 -10   5   85.11   21.61
   2 -10   5    3.00   12.48
   3   9  -5   -2.82   11.44
   3   9  -5   11.58   12.51
  -3  -9   5   15.31   13.10
  -3  -9   5   25.03   16.51
  -3  -9   5   25.30   16.94
  -2  -9   5  245.07   32.31
  -2  -9   5  128.50   25.04
  -2  -9   5  207.80   30.16
   2   9  -5  190.54   25.82
   2   9  -5  215.25   28.86
  -1  -9   5   -1.53    8.09
  -1  -9   5   -3.76   10.53
  -1  -9   5   -0.50   10.91
   1   9  -5    0.93    7.83
   1   9  -5   -7.51    8.38
   0   9  -5   42.46   10.74
   0   9  -5   22.56   11.25
   0  -9   5   19.73   13.61
   0  -9   5   20.55   12.84
   0   9  -5   23.37    9.16
   0  -9   5   17.38   11.15
   0   9  -5   25.15    9.84
   0  -9   5   24.91   13.33
   1  -9   5   48.35   16.07
  -1   9  -5   54.12   10.36
  -1   9  -5   48.04   12.59
   1  -9   5   44.55   15.75
   2  -9   5   -1.37    9.54
   3  -9   5  168.83   21.98
   4  -9   5   43.81   13.20
  -4  -8   5   -9.77    9.13
   4   8  -5    5.93   11.21
  -4  -8   5   -2.25   12.73
   4   8  -5    0.61   13.00
  -3  -8   5  227.21   31.51
   3   8  -5  227.71   28.67
  -3  -8   5  200.88   28.93
  -3  -8   5  230.87   31.57
   3   8  -5  197.05   28.14
  -2  -8   5   32.53   15.62
   2   8  -5   34.25   14.20
  -2  -8   5   45.63   15.04
   2   8  -5    5.11    8.55
  -2  -8   5   57.15   17.47
  -2  -8   5   60.40   17.97
   2   8  -5   43.70   16.09
   2   8  -5   38.29   16.50
  -1  -8   5   85.45   19.39
  -1  -8   5   87.74   19.18
   1   8  -5  113.53   17.45
  -1  -8   5   50.08   17.32
   1   8  -5  107.89   18.93
   1   8  -5   72.01   15.49
  -1  -8   5   66.25   16.60
   1   8  -5   92.25   20.04
   0   8  -5   64.04   11.44
   0  -8   5   59.51   16.01
   0   8  -5   74.92   11.39
   0  -8   5   77.97   18.92
   0  -8   5   37.65   13.30
   0   8  -5   41.87   12.31
   0  -8   5   51.60   16.80
   0  -8   5   44.49   13.56
  -1   8  -5   64.85    9.36
   1  -8   5   31.39   13.14
   1  -8   5   47.66   14.85
   1  -8   5   47.96   13.78
   1  -8   5   51.42   13.27
  -1   8  -5   51.79   12.07
   2  -8   5  206.69   22.42
   2  -8   5  221.68   20.98
   2  -8   5  203.13   23.92
  -2   8  -5  245.04   18.50
   3  -8   5   13.35    8.07
   4  -8   5   18.66    8.94
   5  -8   5   59.17   10.90
  -5  -7   5    6.53   12.67
  -5  -7   5    5.37   13.82
   5   7  -5   27.42   16.10
   4   7  -5  278.92   32.80
   4   7  -5  272.71   33.39
  -4  -7   5  244.91   32.54
  -4  -7   5  219.83   30.46
  -4  -7   5  340.65   36.59
  -3  -7   5  223.91   29.70
   3   7  -5  232.07   28.10
  -3  -7   5  157.19   25.96
   3   7  -5  210.73   27.75
  -3  -7   5  212.51   27.79
   3   7  -5  163.83   27.40
   2   7  -5   54.33   15.58
  -2  -7   5   31.08   13.63
  -2  -7   5   64.58   17.13
   2   7  -5   46.77   16.52
  -2  -7   5   64.87   17.41
   2   7  -5   52.33   15.19
  -2  -7   5   50.80   16.56
   2   7  -5   71.95   16.02
  -1  -7   5   66.95   15.90
  -1  -7   5   61.41   17.26
   1   7  -5   50.94   14.69
   1   7  -5   69.44   14.67
   1   7  -5   73.73   16.05
  -1  -7   5   97.33   19.46
  -1  -7   5   46.22   14.11
   1   7  -5   56.65   13.38
  -1  -7   5   72.94   17.60
   0   7  -5   13.28    7.59
   0  -7   5    6.49    8.72
   0   7  -5   27.07   10.03
   0  -7   5   11.80    9.95
   0  -7   5   39.00   11.67
   0   7  -5   33.07   10.96
   0  -7   5   15.57    9.84
   0  -7   5   33.54   12.30
   0   7  -5   14.98    7.63
  -1   7  -5  224.50   14.31
  -1   7  -5  212.78   20.00
   1  -7   5  234.93   21.83
   1  -7   5  244.22   23.12
   1  -7   5  174.84   22.75
   1  -7   5  261.87   24.45
   1  -7   5  250.58   22.73
   2  -7   5  333.66   26.65
   2  -7   5  344.31   25.55
  -2   7  -5  298.28   19.91
   2  -7   5  274.67   22.07
   2  -7   5  288.07   24.21
   3  -7   5   17.28    8.57
   3  -7   5   20.77    8.95
   3  -7   5    9.88    8.07
   3  -7   5   19.01    7.25
   4  -7   5  210.46   16.93
   4  -7   5  152.40   16.24
   5  -7   5  155.73   13.81
  -6  -6   5   10.91   14.11
  -5  -6   5   99.64   23.54
   5   6  -5  141.06   26.81
  -5  -6   5  171.79   26.92
   4   6  -5  119.47   22.84
   4   6  -5  149.24   26.95
  -4  -6   5  155.67   25.55
   4   6  -5  176.22   26.17
  -4  -6   5  169.05   27.26
  -4  -6   5  133.06   23.64
  -3  -6   5   16.31   12.03
  -3  -6   5    1.69    8.72
  -3  -6   5    2.66    9.75
   3   6  -5    0.47    9.32
   3   6  -5    4.05    8.91
  -3  -6   5    3.39    8.51
   3   6  -5    5.02    8.50
  -3  -6   5    3.41    9.37
  -2  -6   5  139.52   20.39
  -2  -6   5  105.05   19.49
   2   6  -5  128.61   21.04
  -2  -6   5  123.84   22.65
   2   6  -5  149.98   20.04
   2   6  -5  130.08   19.87
  -2  -6   5  115.24   20.85
   2   6  -5  150.89   20.99
  -2  -6   5  117.76   20.35
  -1  -6   5    5.02    8.31
  -1  -6   5   -8.98    7.31
  -1  -6   5   -5.28    5.66
   1   6  -5   -3.95    6.88
  -1  -6   5    2.40    7.78
   1   6  -5   10.33    7.19
  -1  -6   5   -5.30    7.33
   1   6  -5    1.33    7.64
   1   6  -5    2.94    6.80
   0   6  -5  121.08   14.28
   0  -6   5  148.71   18.40
   0  -6   5  185.90   19.91
   0   6  -5  121.44   16.64
   0   6  -5  151.80   15.92
   0   6  -5  134.43   16.94
   0  -6   5  148.71   18.88
   0  -6   5  146.24   19.62
   0  -6   5  140.62   19.93
  -1   6  -5  419.38   27.23
   1  -6   5  480.37   31.06
   1  -6   5  470.27   29.84
   1  -6   5  450.61   29.61
   1  -6   5  541.11   32.78
   1  -6   5  432.22   31.48
   2  -6   5   51.55   10.28
   2  -6   5   67.46   12.12
   2  -6   5   59.22   10.76
   2  -6   5   55.40   11.92
  -2   6  -5   60.87    8.75
   2  -6   5   58.94   11.07
   3  -6   5  278.58   21.09
   3  -6   5  262.53   19.44
   3  -6   5  294.51   18.81
   4  -6   5   85.28   10.87
   4  -6   5  101.71   11.06
   5  -6   5   25.45    6.02
   5  -6   5   23.67    5.99
   6   5  -5  139.96   28.01
  -6  -5   5  110.20   24.86
  -6  -5   5  174.44   26.77
  -5  -5   5   99.06   22.04
  -5  -5   5   88.42   20.14
   5   5  -5   79.45   20.15
   5   5  -5   51.06   17.47
  -5  -5   5   69.30   19.55
  -5  -5   5   82.27   20.70
   4   5  -5    7.96    9.08
  -4  -5   5   -6.60   10.84
  -4  -5   5   -0.85    8.00
   4   5  -5   17.26   11.28
   4   5  -5    6.46   10.15
  -4  -5   5    5.36    9.59
  -4  -5   5    5.38    9.58
  -4  -5   5    7.43    9.63
  -3  -5   5  458.20   35.21
   3   5  -5  425.51   37.06
  -3  -5   5  432.61   37.66
   3   5  -5  428.29   33.83
  -3  -5   5  401.58   34.02
   3   5  -5  331.02   31.52
  -3  -5   5  383.03   34.46
  -2  -5   5   74.85   15.99
   2   5  -5   86.24   16.21
  -2  -5   5   55.21   15.56
  -2  -5   5   73.01   15.96
   2   5  -5   52.94   14.13
   2   5  -5   71.95   14.64
  -2  -5   5   65.14   14.81
   2   5  -5   57.53   14.69
  -2  -5   5   49.73   14.10
  -1  -5   5  339.05   27.76
  -1  -5   5  360.16   28.06
   1   5  -5  340.77   25.50
   1   5  -5  323.83   25.69
   1   5  -5  360.64   26.87
   1   5  -5  289.94   26.25
  -1  -5   5  307.06   27.57
  -1  -5   5  309.18   29.13
  -1  -5   5  333.28   26.23
   0  -5   5  226.72   20.93
   0   5  -5  210.76   19.29
   0   5  -5  257.57   19.02
   0  -5   5  214.41   21.83
   0   5  -5  205.91   19.02
   0   5  -5  206.62   18.27
   0  -5   5  229.56   22.98
   0  -5   5  199.29   19.94
   0   5  -5  252.95   20.70
   0  -5   5  207.33   20.08
   1  -5   5   13.25    7.99
  -1   5  -5   19.66    5.48
  -1   5  -5   13.26    4.93
  -1   5  -5    5.47    3.57
   1  -5   5   -0.37    5.57
   1  -5   5   23.49    9.13
  -1   5  -5    8.54    3.78
   1  -5   5   13.68    7.04
  -1   5  -5    0.27    4.66
   1  -5   5   18.05    7.56
  -2   5  -5  368.28   20.78
   2  -5   5  349.26   22.84
   2  -5   5  424.22   24.79
   2  -5   5  376.96   23.56
   2  -5   5  403.01   25.74
   3  -5   5  188.20   14.16
   3  -5   5  195.50   15.97
   3  -5   5  189.95   15.01
   3  -5   5  181.43   14.37
   4  -5   5   13.35    5.48
   4  -5   5    8.08    4.90
   4  -5   5    5.46    4.37
   4  -5   5   17.13    5.26
   5  -5   5  663.60   29.09
   5  -5   5  720.67   42.16
   5  -5   5  701.96   29.35
   6  -5   5   28.92   13.95
  -6  -4   5  208.74   28.83
  -6  -4   5  220.85   28.00
  -6  -4   5  250.66   31.15
   6   4  -5  191.96   29.46
  -5  -4   5   11.31   14.09
   5   4  -5   36.91   15.37
  -5  -4   5   57.58   16.29
  -5  -4   5   22.24   14.39
  -5  -4   5   60.02   17.23
  -5  -4   5   53.12   15.85
   5   4  -5   20.10   13.07
   5   4  -5   27.93   13.66
  -4  -4   5    6.09   10.63
  -4  -4   5   28.67   12.48
  -4  -4   5   39.71   14.07
   4   4  -5   54.60   14.71
  -4  -4   5   35.70   14.63
   4   4  -5   38.98   13.48
  -4  -4   5   28.16   11.69
   4   4  -5   25.27   13.15
  -3  -4   5   91.49   16.99
   3   4  -5   62.51   15.49
   3   4  -5   44.75   13.75
  -3  -4   5   84.01   17.34
   3   4  -5   69.64   15.50
  -3  -4   5   98.05   17.37
  -3  -4   5   50.72   14.80
  -3  -4   5   79.90   18.21
   2   4  -5    0.55    6.15
   2   4  -5    1.38    6.66
  -2  -4   5   -0.52    5.64
  -2  -4   5   -0.54    6.55
  -2  -4   5    6.46    7.73
   2   4  -5    8.12    8.02
   2   4  -5   -0.41    6.26
  -2  -4   5    1.45    6.68
  -2  -4   5   -1.27    6.80
   1   4  -5  207.74   20.31
  -1  -4   5  228.72   21.21
   1   4  -5  235.55   20.44
  -1  -4   5  247.17   23.99
  -1  -4   5  229.58   21.49
  -1  -4   5  170.05   20.37
  -1  -4   5  233.49   21.39
   1   4  -5  205.79   21.26
   1   4  -5  218.52   20.93
   0   4  -5  136.84   15.30
   0  -4   5  131.95   15.10
   0   4  -5  121.83   14.25
   0   4  -5  144.71   14.90
   0   4  -5  122.37   13.38
   0  -4   5  149.43   16.13
   0  -4   5  159.90   18.34
   0  -4   5  135.90   15.68
   0   4  -5  113.07   13.78
  -1   4  -5  428.43   24.31
   1  -4   5  367.47   23.96
   1  -4   5  389.99   24.88
   1  -4   5  396.45   25.21
  -1   4  -5  402.16   21.09
  -1   4  -5  419.54   21.37
  -1   4  -5  410.55   19.93
   1  -4   5  415.39   27.29
  -1   4  -5  416.78   19.75
   2  -4   5  313.81   20.06
   2  -4   5  305.15   21.21
   2  -4   5  321.79   20.87
   2  -4   5  318.59   20.00
  -2   4  -5  305.97   17.59
   2  -4   5  275.83   18.65
   3  -4   5  140.97   11.77
   3  -4   5  135.55   12.30
   3  -4   5  144.04   12.01
   3  -4   5  170.29   12.21
   3  -4   5  139.71   12.89
   4  -4   5   24.40    5.86
   4  -4   5   45.21    6.20
   4  -4   5   24.43    5.80
   4  -4   5   33.90    5.53
   4  -4   5   21.62    8.35
   4  -4   5   33.90    6.32
   5  -4   5  155.71   19.42
   5  -4   5  172.35   11.58
   5  -4   5  154.36   10.29
   5  -4   5  177.20   12.08
   5  -4   5  170.05   10.90
   5  -4   5  147.51   11.65
   6  -4   5   98.84    9.97
   6  -4   5  128.68   21.47
   6  -4   5   94.04    9.48
   7  -4   5   50.46   18.46
   7  -4   5   49.10    9.38
   7  -4   5   40.57    8.77
  -7  -3   5  112.62   23.71
  -7  -3   5  170.93   25.31
   7   3  -5  136.81   28.50
  -6  -3   5   16.92   13.38
  -6  -3   5   -0.72    9.10
   6   3  -5    2.01    9.81
   6   3  -5   16.09   14.47
  -6  -3   5   30.32   14.17
  -5  -3   5  105.79   19.06
   5   3  -5  104.35   20.68
   5   3  -5  129.68   22.44
  -5  -3   5  102.74   20.42
  -5  -3   5  124.88   23.42
   5   3  -5  117.62   23.46
  -5  -3   5  116.41   21.07
  -5  -3   5   85.96   18.28
  -4  -3   5  459.71   37.56
  -4  -3   5  405.46   32.77
   4   3  -5  438.05   34.41
   4   3  -5  493.23   38.69
   4   3  -5  469.42   35.34
  -4  -3   5  402.89   34.76
  -4  -3   5  455.45   33.30
  -4  -3   5  449.09   35.26
   3   3  -5   68.85   14.80
  -3  -3   5   84.51   17.65
   3   3  -5   48.22   13.05
  -3  -3   5   74.62   14.72
  -3  -3   5   41.54   12.67
  -3  -3   5   99.39   16.26
  -3  -3   5   55.43   14.81
   2   3  -5  529.15   32.87
  -2  -3   5  451.50   32.49
  -2  -3   5  574.78   34.67
   2   3  -5  457.82   32.45
   2   3  -5  533.43   33.53
   2   3  -5  515.48   34.85
  -2  -3   5  443.53   30.83
  -2  -3   5  507.10   34.39
  -2  -3   5  477.14   34.90
   1   3  -5   96.76   14.24
  -1  -3   5   75.34   14.39
  -1  -3   5  103.33   14.55
  -1  -3   5   83.42   13.20
   1   3  -5  133.33   16.52
  -1  -3   5  109.78   14.58
   1   3  -5   80.29   12.33
   1   3  -5   98.39   13.79
  -1  -3   5   96.24   15.09
   0  -3   5  470.10   29.14
   0   3  -5  549.59   28.30
   0  -3   5  486.34   31.13
   0   3  -5  487.77   28.73
   0   3  -5  475.44   28.94
   0   3  -5  484.82   28.67
   0  -3   5  524.96   29.34
   0   3  -5  513.63   28.58
   0  -3   5  512.92   29.61
   1  -3   5 1321.24   54.50
  -1   3  -5 1235.70   48.79
  -1   3  -5 1384.40   51.90
   1  -3   5 1322.36   56.96
  -1   3  -5 1349.37   51.49
   1  -3   5 1297.98   54.66
  -1   3  -5 1228.91   49.35
   1  -3   5 1211.15   54.64
   1  -3   5 1300.09   53.66
  -1   3  -5 1272.81   52.71
   2  -3   5  448.41   25.49
   2  -3   5  509.81   25.82
  -2   3  -5  468.39   23.18
   2  -3   5  500.72   27.01
  -2   3  -5  480.10   23.96
   2  -3   5  460.34   24.19
   2  -3   5  487.77   25.04
   3  -3   5  175.92   12.56
   3  -3   5  178.20   12.77
   3  -3   5  222.87   14.92
   3  -3   5  210.25   14.56
   3  -3   5  173.40   13.79
   3  -3   5  186.31   14.04
   4  -3   5   92.91    9.42
   4  -3   5   96.93    8.65
   4  -3   5  105.62   13.68
   4  -3   5   84.75    9.61
   4  -3   5   88.47    9.31
   4  -3   5   92.76    8.48
   5  -3   5    8.40    4.41
   5  -3   5    8.94    5.07
   5  -3   5    7.48    4.65
   5  -3   5    4.20    4.58
   5  -3   5   13.31    4.51
   5  -3   5    3.17    7.29
   6  -3   5  371.04   33.17
   6  -3   5  375.75   20.68
   6  -3   5  389.61   21.84
   6  -3   5  384.61   23.50
   7  -3   5   19.49    8.75
   7  -3   5   43.69   17.87
   7  -3   5   29.16    9.16
   7   2  -5   82.29   22.46
  -7  -2   5  102.88   19.57
  -7  -2   5   50.26   17.02
  -6  -2   5   89.67   17.41
  -6  -2   5   86.08   18.29
   6   2  -5   72.38   21.72
  -6  -2   5   63.82   18.19
   6   2  -5  104.41   22.07
  -6  -2   5   93.76   19.45
  -5  -2   5  204.01   24.62
  -5  -2   5  171.69   21.67
   5   2  -5  230.43   26.66
   5   2  -5  161.56   25.92
  -5  -2   5  235.48   24.83
  -5  -2   5  188.04   26.53
   5   2  -5  230.75   26.68
  -5  -2   5  179.61   24.56
   4   2  -5   35.69   11.87
  -4  -2   5   36.56   11.94
  -4  -2   5   55.77   14.42
  -4  -2   5   30.38   12.88
   4   2  -5   22.76   11.05
  -4  -2   5   33.44   11.63
   4   2  -5   34.06   10.83
  -4  -2   5   32.85   12.61
  -3  -2   5  875.16   51.27
  -3  -2   5  906.48   47.75
   3   2  -5  880.46   48.55
   3   2  -5  989.18   51.78
  -3  -2   5  929.46   48.76
   3   2  -5  944.00   49.92
   3   2  -5  967.25   53.25
  -3  -2   5  892.71   50.00
  -3  -2   5  881.38   49.67
   3   2  -5  904.94   48.55
  -2  -2   5  345.26   27.62
   2   2  -5  333.62   26.97
  -2  -2   5  281.40   24.80
   2   2  -5  342.06   25.59
  -2  -2   5  343.39   25.19
   2   2  -5  309.91   24.20
   2   2  -5  346.64   26.50
   2   2  -5  326.34   24.42
  -2  -2   5  341.07   24.81
   1   2  -5  150.56   15.93
  -1  -2   5  121.01   14.66
  -1  -2   5  136.42   15.18
   1   2  -5  126.85   15.26
   1   2  -5  126.51   14.53
  -1  -2   5  101.95   14.55
   1   2  -5  141.05   11.43
   1   2  -5  125.79   15.95
  -1  -2   5  103.40   15.38
   1   2  -5  120.49   14.21
   0   2  -5  335.67   22.64
   0  -2   5  315.68   23.65
   0  -2   5  334.92   22.21
   0   2  -5  339.24   22.44
   0  -2   5  303.83   21.02
   0   2  -5  357.40   23.29
   0   2  -5  327.42   22.09
   0  -2   5  347.76   23.45
   0   2  -5  325.86   20.88
  -1   2  -5  829.66   36.21
   1  -2   5  885.16   38.56
   1  -2   5  799.28   38.40
  -1   2  -5  745.84   33.31
   1  -2   5  815.44   39.52
  -1   2  -5  838.85   35.80
  -1   2  -5  780.80   36.32
   1  -2   5  822.32   37.13
   1  -2   5  778.67   35.97
   2  -2   5  832.65   36.53
   2  -2   5  795.06   33.92
  -2   2  -5  716.84   33.20
   2  -2   5  812.27   34.64
   2  -2   5  763.78   35.51
   2  -2   5  800.39   36.60
   2  -2   5  774.73   30.20
   2  -2   5  752.73   36.14
  -2   2  -5  774.50   33.42
   3  -2   5  944.74   38.71
   3  -2   5  986.85   40.92
  -3   2  -5  985.90   36.40
  -3   2  -5  955.14   36.72
   3  -2   5  991.25   41.31
   3  -2   5  963.44   39.33
   3  -2   5  952.63   41.83
   4  -2   5   57.29    7.25
   4  -2   5   57.36    7.55
   4  -2   5   48.86    8.46
   4  -2   5   60.82    8.26
   4  -2   5   42.41    7.60
   5  -2   5    6.50    5.25
   5  -2   5   -2.51    4.24
   5  -2   5   10.30    5.11
   5  -2   5    1.74    4.70
   5  -2   5    3.01    4.64
   6  -2   5  116.84   13.43
   6  -2   5  123.84   14.58
   6  -2   5  115.72   12.46
   6  -2   5  146.97   14.42
   7  -2   5   47.26   12.11
   7  -2   5   36.21   10.53
  -7  -1   5   20.51   12.96
   7   1  -5   53.10   18.27
  -7  -1   5   30.20   13.26
   7   1  -5   69.37   21.71
  -6  -1   5  218.36   24.72
  -6  -1   5  207.33   25.18
  -6  -1   5  209.12   27.52
   6   1  -5  206.74   29.73
  -6  -1   5  175.53   21.75
   6   1  -5  207.09   27.39
   6   1  -5  202.93   29.67
   6   1  -5  247.96   28.73
  -5  -1   5   17.96   10.24
  -5  -1   5    7.11    9.59
  -5  -1   5    4.55    7.46
  -5  -1   5   12.21    9.25
   5   1  -5    8.88   10.14
  -5  -1   5   10.61    9.51
   5   1  -5    8.42    9.08
   5   1  -5    8.36    9.58
  -4  -1   5   68.32   15.17
  -4  -1   5   39.47   12.15
   4   1  -5   68.37   15.64
   4   1  -5   76.44   15.44
  -4  -1   5   46.23   11.96
  -4  -1   5   51.38   12.64
   4   1  -5   87.15   16.31
   4   1  -5   37.46   13.02
  -4  -1   5   44.64   13.69
   3   1  -5  848.91   45.53
  -3  -1   5  870.11   44.22
   3   1  -5  872.53   45.97
  -3  -1   5  871.57   46.98
  -3  -1   5  802.22   44.12
   3   1  -5  835.64   44.64
  -3  -1   5  877.12   48.60
  -3  -1   5  775.44   45.25
   3   1  -5  817.79   47.75
   3   1  -5  855.93   47.12
   3   1  -5  825.21   44.16
   2   1  -5 1737.31   72.96
  -2  -1   5 1747.68   71.93
   2   1  -5 1766.63   71.94
  -2  -1   5 1748.61   72.62
   2   1  -5 1692.62   74.65
   2   1  -5 1749.93   70.67
  -2  -1   5 1724.15   74.09
   2   1  -5 1646.99   72.54
  -2  -1   5 1711.74   76.14
  -1  -1   5 2228.80   87.59
  -1  -1   5 2345.00   89.44
   1   1  -5 2328.15   89.79
  -1  -1   5 2285.96   91.53
   1   1  -5 2221.97   90.28
  -1  -1   5 2367.22   87.40
   1   1  -5 2146.41   85.40
   1   1  -5 2244.98   83.13
   1   1  -5 2184.80   86.77
   0   1  -5  612.37   32.29
   0   1  -5  619.96   33.46
   0  -1   5  628.15   34.74
   0   1  -5  657.85   33.50
   0   1  -5  632.20   31.63
   0  -1   5  665.90   32.57
   0  -1   5  677.93   33.93
   0  -1   5  701.04   35.05
   0   1  -5  680.43   31.60
   0   1  -5  603.94   33.16
   0  -1   5  671.78   32.98
   1  -1   5  314.83   13.68
  -1   1  -5  308.13   17.12
   1  -1   5  302.78   19.25
  -1   1  -5  292.38   18.27
  -1   1  -5  286.06   18.42
   1  -1   5  297.15   20.44
   1  -1   5  327.99   20.82
   1  -1   5  339.92   19.40
   1  -1   5  315.57   20.96
  -1   1  -5  263.29   18.40
  -1   1  -5  302.34   19.43
   1  -1   5  299.66   20.56
  -1   1  -5  309.13   17.41
   2  -1   5 1216.49   50.07
   2  -1   5 1169.14   49.82
  -2   1  -5 1228.58   43.28
  -2   1  -5 1167.43   47.58
  -2   1  -5 1180.43   41.84
  -2   1  -5 1179.77   47.54
   2  -1   5 1236.80   48.28
   2  -1   5 1136.77   46.87
  -2   1  -5 1182.40   43.43
   2  -1   5 1186.74   50.66
   3  -1   5  249.75   16.04
   3  -1   5  259.22   16.72
   3  -1   5  290.00   18.47
   3  -1   5  286.04   19.15
  -3   1  -5  280.76   16.03
  -3   1  -5  287.83   16.29
   3  -1   5  283.84   18.52
   4  -1   5  418.80   23.39
   4  -1   5  426.27   23.59
  -4   1  -5  407.55   19.06
   4  -1   5  380.47   21.37
   4  -1   5  446.68   22.87
   4  -1   5  423.19   24.89
  -4   1  -5  420.98   19.31
   5  -1   5  727.70   38.64
   5  -1   5  804.10   36.09
   5  -1   5  736.92   35.14
   5  -1   5  791.36   36.44
   5  -1   5  749.36   36.86
   6  -1   5   53.80   11.60
   6  -1   5   31.35   10.08
   6  -1   5   31.87    8.83
   6  -1   5   28.92    9.27
   6  -1   5   51.89   11.15
   7  -1   5  207.75   18.78
   7  -1   5  225.29   21.39
   7  -1   5  203.62   22.35
   7   0  -5  134.22   25.27
  -7   0   5  166.17   22.07
   7   0  -5  112.85   25.58
   6   0  -5   39.65   15.75
  -6   0   5   32.14   12.26
   6   0  -5   35.96   14.68
  -6   0   5   28.61   11.76
  -6   0   5   21.23   11.73
   6   0  -5   31.07   14.44
   6   0  -5   46.66   14.41
  -6   0   5   30.40   11.40
  -5   0   5  490.71   32.98
   5   0  -5  403.23   36.34
  -5   0   5  403.32   29.42
   5   0  -5  428.41   34.12
  -5   0   5  469.35   35.22
   5   0  -5  420.47   36.19
  -5   0   5  428.77   32.19
   5   0  -5  422.86   37.15
  -5   0   5  500.60   36.41
   5   0  -5  473.77   34.73
   4   0  -5  151.92   21.74
  -4   0   5  123.40   16.06
   4   0  -5  139.21   18.71
   4   0  -5   93.19   17.86
  -4   0   5  121.19   17.89
   4   0  -5  129.91   19.22
  -4   0   5  126.11   18.77
   4   0  -5  114.93   17.50
   4   0  -5  114.51   17.37
  -4   0   5  106.96   15.97
   3   0  -5  248.45   22.34
  -3   0   5  337.79   26.20
  -3   0   5  312.58   23.43
   3   0  -5  275.97   24.76
   3   0  -5  238.01   22.53
   3   0  -5  227.74   21.87
   3   0  -5  236.02   23.91
  -3   0   5  275.82   24.17
  -3   0   5  262.78   20.87
   3   0  -5  292.17   23.30
  -3   0   5  288.59   24.21
   2   0  -5  808.25   41.61
  -2   0   5  803.95   43.74
   2   0  -5  866.58   45.21
  -2   0   5  901.08   42.30
   2   0  -5  768.38   41.33
  -2   0   5  810.47   42.77
   2   0  -5  841.71   41.40
  -2   0   5  831.88   40.58
   2   0  -5  806.35   40.86
   2   0  -5  853.93   44.16
  -1   0   5  766.81   39.07
   1   0  -5  809.46   40.14
  -1   0   5  722.16   39.03
  -1   0   5  724.99   37.88
   1   0  -5  757.46   38.87
   1   0  -5  712.61   35.73
  -1   0   5  791.58   37.43
   1   0  -5  694.54   36.98
   1   0  -5  711.49   36.27
  -1   0   5  709.64   35.81
   1   0  -5  746.99   38.81
   1   0  -5  724.66   34.73
   0   0  -5  144.89   12.83
   0   0  -5  109.78   13.05
   0   0   5  127.58   12.54
   0   0  -5  124.79   12.16
   0   0  -5  148.68   14.14
   0   0   5  122.35   10.12
   0   0   5  142.66   14.46
   0   0   5  130.92   14.43
   0   0  -5  150.52   14.73
   0   0   5  114.97   13.63
   0   0   5  137.76   13.31
   0   0  -5  150.20   14.73
  -1   0  -5 2303.70   84.56
   1   0   5 2070.51   84.84
  -1   0  -5 2150.27   82.89
   1   0   5 2199.34   81.18
   1   0   5 2254.05   83.24
  -1   0  -5 2345.58   83.49
  -1   0  -5 2320.55   79.99
  -1   0  -5 2266.41   83.14
   1   0   5 2289.50   85.38
  -1   0  -5 2077.10   80.04
   1   0   5 2221.87   85.32
  -1   0  -5 2050.81   81.89
  -2   0  -5  310.18   18.09
  -2   0  -5  303.33   17.57
   2   0   5  318.11   19.27
  -2   0  -5  306.86   19.13
  -2   0  -5  319.07   16.16
   2   0   5  270.27   20.13
   2   0   5  300.33   20.07
  -2   0  -5  316.56   15.84
  -2   0  -5  367.85   20.45
   2   0   5  304.13   20.50
   2   0   5  300.88   18.49
  -3   0  -5    8.32    4.70
  -3   0  -5    8.63    4.49
   3   0   5   12.23    5.54
   3   0   5    4.03    4.66
   3   0   5    1.79    4.87
   3   0   5   10.15    5.18
   3   0   5    4.99    4.94
   3   0   5    8.32    4.95
   4   0   5  229.48   17.17
   4   0   5  228.95   16.70
  -4   0  -5  235.14   15.77
   4   0   5  220.77   19.15
   4   0   5  267.31   19.14
   4   0   5  253.93   18.20
  -4   0  -5  200.64   15.31
   4   0   5  225.15   17.74
   5   0   5   54.73   10.58
   5   0   5   69.56   12.76
  -5   0  -5   58.69    8.19
   5   0   5   69.26   11.08
   5   0   5   54.83   10.49
   5   0   5   59.46   11.09
   6   0   5  957.13   47.44
   6   0   5  941.02   45.05
  -6   0  -5  922.31   37.47
   6   0   5  862.10   45.61
   6   0   5  865.53   44.46
   6   0   5  871.87   48.27
   7   0   5   92.29   15.78
   7   0   5   80.21   14.78
   7   0   5   97.25   18.13
  -7   0  -5   66.71    7.55
   8   0   5   -3.62   10.63
   8   0   5   -6.75    9.45
   7  -1  -5   73.13   19.85
  -7   1   5   67.61   14.62
   7  -1  -5   59.61   19.28
   6  -1  -5   63.94   16.92
  -6   1   5   97.57   19.11
   6  -1  -5   57.77   17.97
   6  -1  -5   73.83   21.09
  -6   1   5   76.17   14.23
  -6   1   5   69.40   14.93
   6  -1  -5   65.85   17.13
  -6   1   5   54.60   13.39
  -5   1   5  144.41   20.05
  -5   1   5  124.65   17.91
  -5   1   5  187.60   22.47
  -5   1   5  132.80   17.37
   5  -1  -5  162.50   22.58
  -5   1   5  131.91   16.75
   5  -1  -5  148.26   20.22
   5  -1  -5  126.03   21.85
   5  -1  -5  137.51   20.48
   5  -1  -5  129.61   19.89
   5  -1  -5  170.41   24.79
   4  -1  -5    3.06    7.27
  -4   1   5   -0.07    5.92
  -4   1   5    4.79    6.81
   4  -1  -5  -10.13    5.77
   4  -1  -5    4.93    7.22
   4  -1  -5   -1.03    5.47
  -4   1   5    0.46    5.97
  -4   1   5   -7.56    4.91
   4  -1  -5   -2.13    6.56
  -4   1   5   -1.49    6.95
   4  -1  -5   -1.55    6.20
   3  -1  -5  178.80   18.17
  -3   1   5  159.06   18.53
   3  -1  -5  151.13   17.23
   3  -1  -5  164.29   19.43
   3  -1  -5  138.55   18.59
   3  -1  -5  189.08   20.69
  -3   1   5  138.06   17.22
  -3   1   5  173.08   16.98
   3  -1  -5  160.97   18.02
  -3   1   5  166.05   17.15
   2  -1  -5 1548.60   65.50
   2  -1  -5 1558.05   63.26
  -2   1   5 1565.15   62.62
   2  -1  -5 1454.34   66.21
   2  -1  -5 1462.91   66.72
   2  -1  -5 1459.12   64.34
   2  -1  -5 1442.63   63.13
  -2   1   5 1505.27   66.17
  -2   1   5 1491.45   65.41
   2  -1  -5 1402.56   65.12
  -2   1   5 1488.74   63.62
  -1   1   5  698.89   36.44
   1  -1  -5  650.98   33.33
   1  -1  -5  629.17   33.42
  -1   1   5  714.96   34.08
   1  -1  -5  647.20   36.17
   1  -1  -5  601.08   34.29
  -1   1   5  704.57   34.90
  -1   1   5  706.90   36.51
  -1   1   5  664.73   36.32
   1  -1  -5  645.49   35.51
  -1   1   5  656.66   33.39
   0   1   5  791.28   37.39
   0   1   5  710.61   38.23
   0  -1  -5  780.38   39.27
   0  -1  -5  797.94   38.64
   0   1   5  770.95   36.39
   0  -1  -5  878.00   37.05
   0   1   5  777.81   39.40
   0   1   5  798.01   36.19
   0  -1  -5  789.47   37.94
   0  -1  -5  740.74   38.31
   0  -1  -5  752.91   36.25
  -1  -1  -5  531.76   26.36
  -1  -1  -5  523.55   29.26
   1   1   5  523.67   29.03
  -1  -1  -5  521.94   28.26
   1   1   5  592.73   28.77
  -1  -1  -5  564.55   29.02
   1   1   5  554.19   30.79
  -1  -1  -5  510.72   28.21
  -1  -1  -5  489.75   26.05
  -1  -1  -5  535.57   28.66
   1   1   5  482.49   26.41
   1   1   5  503.97   29.24
  -2  -1  -5  951.33   43.39
   2   1   5  989.09   42.10
  -2  -1  -5  949.75   43.06
   2   1   5  974.86   44.56
  -2  -1  -5  983.19   41.80
   2   1   5 1021.14   44.42
   2   1   5  903.27   45.45
  -2  -1  -5  910.73   39.75
  -2  -1  -5  978.89   42.28
   2   1   5 1049.33   43.76
   2   1   5  981.66   45.24
  -2  -1  -5 1010.91   43.43
  -2  -1  -5  964.68   39.54
  -3  -1  -5  740.29   34.90
   3   1   5  705.45   34.02
  -3  -1  -5  681.79   29.62
   3   1   5  724.11   38.22
  -3  -1  -5  650.38   29.98
  -3  -1  -5  699.42   32.25
   3   1   5  721.98   35.90
   3   1   5  759.64   36.49
   3   1   5  752.30   37.19
   3   1   5  723.84   35.15
  -3  -1  -5  731.19   31.90
  -3  -1  -5  738.12   29.45
   4   1   5  108.28   14.00
   4   1   5   80.92   11.61
  -4  -1  -5   87.36   11.07
   4   1   5   92.35   12.54
   4   1   5   82.55   11.94
   4   1   5   94.10   14.51
  -4  -1  -5   91.19    6.67
  -5  -1  -5   30.05    7.98
   5   1   5   69.36   12.26
   5   1   5   43.67   10.86
   5   1   5   55.05   12.02
   5   1   5   50.07   12.77
   5   1   5   54.34   11.92
   6   1   5  507.67   32.48
   6   1   5  452.09   30.96
   6   1   5  412.02   33.18
   6   1   5  498.39   33.99
   6   1   5  506.71   33.94
  -6  -1  -5  442.84   26.62
   7   1   5  131.73   21.53
  -7  -1  -5  117.75   13.59
   7   1   5  114.44   17.65
   7   1   5  108.42   17.92
   8   1   5  171.79   24.02
   8   1   5  200.83   28.39
  -7   2   5   20.53   13.47
   7  -2  -5    6.64   12.60
  -7   2   5    1.74    8.32
   7  -2  -5   19.36   12.48
   6  -2  -5  195.70   30.06
  -6   2   5  273.24   22.45
   6  -2  -5  249.59   29.82
  -6   2   5  206.47   19.62
   6  -2  -5  205.81   25.08
   6  -2  -5  237.93   26.84
  -6   2   5  253.20   22.60
  -6   2   5  233.09   26.51
   5  -2  -5  104.57   19.47
   5  -2  -5   85.32   16.51
   5  -2  -5   93.74   17.03
   5  -2  -5   88.48   19.51
  -5   2   5   89.38   14.82
   5  -2  -5  100.56   19.25
  -5   2   5  100.31   17.72
   5  -2  -5   72.84   15.79
  -5   2   5  131.86   16.01
  -5   2   5   82.34   13.44
  -5   2   5   74.37   14.98
   4  -2  -5  110.02   18.16
  -4   2   5   95.10   15.37
   4  -2  -5  116.93   16.55
  -4   2   5  133.38   18.62
   4  -2  -5  129.11   17.40
  -4   2   5  112.26   14.27
  -4   2   5  134.01   15.90
   4  -2  -5   93.06   17.39
   4  -2  -5  136.89   20.35
  -4   2   5   91.84   15.02
   4  -2  -5  118.41   16.57
  -3   2   5 1085.31   49.91
  -3   2   5 1134.22   54.69
   3  -2  -5 1131.63   56.43
   3  -2  -5 1145.86   57.54
   3  -2  -5 1149.26   54.39
   3  -2  -5 1070.84   52.07
   3  -2  -5 1132.10   55.58
  -3   2   5 1147.31   54.15
  -3   2   5  993.04   49.96
   3  -2  -5 1155.67   52.72
   2  -2  -5  272.36   20.88
  -2   2   5  297.04   23.25
  -2   2   5  268.31   21.74
   2  -2  -5  272.29   23.24
   2  -2  -5  253.26   22.25
   2  -2  -5  251.01   22.13
  -2   2   5  299.65   22.84
   2  -2  -5  290.58   23.17
   2  -2  -5  270.89   21.70
  -2   2   5  276.05   20.10
  -2   2   5  275.64   20.74
   2  -2  -5  261.56   20.34
  -1   2   5  556.60   29.23
  -1   2   5  463.13   29.34
  -1   2   5  501.83   29.72
   1  -2  -5  488.44   27.75
   1  -2  -5  481.62   29.82
   1  -2  -5  469.23   27.00
  -1   2   5  503.49   29.13
  -1   2   5  477.38   27.17
   1  -2  -5  482.58   29.74
   1  -2  -5  484.39   30.62
   0   2   5 3689.88  132.63
   0  -2  -5 3554.58  130.09
   0   2   5 3569.55  127.80
   0  -2  -5 3640.03  129.41
   0  -2  -5 3547.39  132.02
   0   2   5 3696.83  132.68
   0  -2  -5 3574.09  133.42
   0  -2  -5 3651.92  130.32
   0  -2  -5 3555.66  131.22
   0   2   5 3538.52  133.12
   0  -2  -5 3663.60  127.26
  -1  -2  -5 1193.21   50.23
  -1  -2  -5 1292.56   54.37
  -1  -2  -5 1295.04   56.01
   1   2   5 1244.90   51.81
   1   2   5 1241.47   56.09
  -1  -2  -5 1234.80   54.04
   1   2   5 1270.13   54.64
   1   2   5 1258.15   54.38
  -1  -2  -5 1220.56   51.66
   1   2   5 1144.84   52.03
   1   2   5 1256.07   55.22
  -1  -2  -5 1213.66   53.12
  -2  -2  -5 2137.24   75.93
   2   2   5 1947.96   77.38
  -2  -2  -5 1991.65   78.64
  -2  -2  -5 2092.10   81.37
  -2  -2  -5 1882.85   78.31
  -2  -2  -5 1991.44   76.73
   2   2   5 2209.43   81.25
   2   2   5 2071.83   80.90
   2   2   5 2028.32   83.28
   2   2   5 1855.91   80.83
  -2  -2  -5 2104.78   79.57
   2   2   5 2107.11   79.89
   3   2   5  121.48   15.77
  -3  -2  -5  111.86   13.17
  -3  -2  -5  123.29   11.53
   3   2   5  111.47   13.12
  -3  -2  -5  101.57   11.34
  -3  -2  -5  103.94   10.62
  -3  -2  -5   96.19   11.51
   3   2   5  123.48   14.96
  -3  -2  -5  104.12   12.87
   3   2   5  116.06   14.26
   3   2   5  102.79   13.06
   4   2   5   33.01    9.77
   4   2   5   57.38   11.64
   4   2   5   38.36   10.99
  -4  -2  -5   51.69    9.30
  -4  -2  -5   53.51    7.55
   4   2   5   41.81   11.81
  -4  -2  -5   14.43    4.90
   4   2   5   57.91   11.52
  -4  -2  -5   41.46    9.51
  -4  -2  -5   46.29    7.08
  -4  -2  -5   43.37    8.01
  -5  -2  -5  410.78   18.69
  -5  -2  -5  424.37   18.56
   5   2   5  400.71   28.68
   5   2   5  358.28   30.72
   5   2   5  410.72   29.97
  -5  -2  -5  384.04   17.31
   5   2   5  412.72   28.89
   5   2   5  456.74   30.54
  -5  -2  -5  442.79   27.48
  -6  -2  -5   56.78   11.45
   6   2   5   63.14   15.38
   6   2   5   93.84   16.28
   6   2   5   81.72   16.16
   6   2   5   87.95   17.86
  -7  -2  -5  344.50   26.29
   7   2   5  428.65   37.53
   7   2   5  439.32   35.92
   7   2   5  339.26   30.66
   7   2   5  363.05   31.91
   8   2   5   42.82   16.89
   7  -3  -5  177.95   27.69
  -7   3   5  130.30   12.71
   7  -3  -5  119.82   23.24
  -6   3   5    3.96    7.39
   6  -3  -5    2.44   10.30
   6  -3  -5   14.35   10.35
  -6   3   5    2.23    6.40
  -6   3   5    1.40    5.26
   6  -3  -5    0.97   10.86
   6  -3  -5    2.92    9.33
   6  -3  -5   -7.01    8.22
  -5   3   5    2.10    6.36
   5  -3  -5    1.73    8.92
   5  -3  -5    3.99    8.20
  -5   3   5    2.88    6.27
   5  -3  -5   -0.12    7.97
  -5   3   5   -1.73    5.94
   5  -3  -5    7.10    7.67
   5  -3  -5    5.10    7.52
   5  -3  -5    2.52    9.94
  -4   3   5  889.05   45.01
   4  -3  -5  862.72   48.32
   4  -3  -5  891.47   47.63
  -4   3   5  907.80   46.84
   4  -3  -5  981.84   53.14
   4  -3  -5  874.55   54.23
   4  -3  -5  959.04   48.88
  -4   3   5  897.65   44.03
   4  -3  -5 1029.66   52.94
  -4   3   5 1004.16   48.62
   3  -3  -5   12.09    8.41
   3  -3  -5    3.85    6.16
   3  -3  -5   12.84    7.29
   3  -3  -5    9.91    8.13
  -3   3   5    3.44    6.32
   3  -3  -5    3.25    6.96
  -3   3   5    8.92    6.46
   3  -3  -5   24.04    8.60
   3  -3  -5   18.20    9.39
  -3   3   5    4.45    6.39
   2  -3  -5 1822.72   71.77
  -2   3   5 1718.05   71.74
  -2   3   5 1736.35   70.57
   2  -3  -5 1727.65   72.78
   2  -3  -5 1995.17   77.74
  -2   3   5 1698.15   73.75
  -2   3   5 1798.68   74.18
   2  -3  -5 1750.68   73.70
  -2   3   5 1689.48   76.47
   2  -3  -5 1734.51   75.63
   2  -3  -5 1748.16   76.26
   1  -3  -5  114.29   14.80
  -1   3   5  137.51   16.20
  -1   3   5  128.05   15.30
   1  -3  -5   96.86   13.65
   1  -3  -5  126.19   13.65
   1  -3  -5  119.81   13.55
  -1   3   5  128.99   14.14
   1  -3  -5  136.56   15.64
  -1   3   5  116.33   15.05
   1  -3  -5  110.16   14.48
   1  -3  -5  122.33   15.80
  -1   3   5   92.35   12.37
  -1   3   5  133.74   15.20
   0  -3  -5  857.53   42.84
   0   3   5  946.74   44.53
   0  -3  -5  969.53   42.95
   0  -3  -5  952.88   47.79
   0  -3  -5  891.49   44.50
   0   3   5 1017.11   46.70
   0   3   5  908.40   42.84
   0  -3  -5  981.82   46.78
   0   3   5 1018.80   48.23
   0   3   5  936.94   46.34
  -1  -3  -5 2097.36   83.21
  -1  -3  -5 2182.51   82.33
  -1  -3  -5 2290.90   86.79
   1   3   5 2251.20   89.83
  -1  -3  -5 2236.49   89.02
  -1  -3  -5 2128.11   85.14
   1   3   5 2111.16   87.22
   1   3   5 2115.31   83.23
   1   3   5 2326.45   87.74
   1   3   5 2000.32   84.99
   1   3   5 2207.73   85.45
  -1  -3  -5 2231.75   87.01
  -2  -3  -5  343.51   21.91
  -2  -3  -5  385.37   24.47
  -2  -3  -5  350.85   24.00
   2   3   5  362.19   25.92
   2   3   5  344.63   26.23
   2   3   5  401.89   24.93
   2   3   5  378.37   23.60
  -2  -3  -5  365.24   24.51
  -2  -3  -5  334.16   22.05
  -2  -3  -5  349.22   25.41
   2   3   5  319.02   23.99
  -3  -3  -5  318.59   20.99
  -3  -3  -5  367.81   25.52
   3   3   5  337.08   24.99
   3   3   5  388.11   25.78
   3   3   5  375.96   26.68
  -3  -3  -5  338.65   23.02
   3   3   5  313.69   26.71
  -3  -3  -5  298.52   21.11
  -3  -3  -5  357.60   23.78
   3   3   5  339.82   23.80
  -3  -3  -5  330.89   23.58
   4   3   5  560.71   36.42
  -4  -3  -5  599.60   34.54
  -4  -3  -5  591.63   30.63
   4   3   5  550.56   37.89
  -4  -3  -5  601.58   30.21
  -4  -3  -5  550.01   33.65
  -4  -3  -5  622.18   32.27
   4   3   5  560.90   34.58
   4   3   5  590.00   35.70
   4   3   5  541.69   35.01
  -4  -3  -5  598.98   32.58
  -5  -3  -5   79.08   14.13
   5   3   5   85.31   16.71
  -5  -3  -5   96.04   11.13
  -5  -3  -5   91.97   11.08
   5   3   5   85.34   15.71
   5   3   5   91.13   15.83
   5   3   5   72.85   16.68
  -5  -3  -5   89.86   12.44
  -5  -3  -5   97.76   11.17
   5   3   5   93.11   16.77
   6   3   5  271.22   28.67
   6   3   5  308.28   28.47
   6   3   5  266.92   30.10
  -6  -3  -5  282.04   16.87
  -6  -3  -5  301.42   17.41
  -6  -3  -5  302.82   17.77
  -6  -3  -5  302.42   25.65
  -6  -3  -5  308.64   16.83
   6   3   5  289.87   28.48
   7   3   5  234.56   30.44
   7   3   5  234.82   27.33
   7   3   5  213.27   28.51
  -7  -3  -5  265.57   24.97
   7  -4  -5   91.74   22.51
  -6   4   5   20.69    8.05
   6  -4  -5   37.70   13.51
  -6   4   5   12.69    6.71
   6  -4  -5   23.32   12.06
   6  -4  -5   25.99   13.11
   6  -4  -5   30.92   12.72
  -6   4   5   37.46    7.98
  -6   4   5   20.44    7.87
  -5   4   5  174.78   17.46
   5  -4  -5  155.24   26.28
   5  -4  -5  196.82   24.27
  -5   4   5  194.58   17.76
   5  -4  -5  191.14   22.01
   5  -4  -5  176.85   21.68
  -5   4   5  187.90   16.23
  -5   4   5  176.29   16.60
   5  -4  -5  193.69   24.56
   5  -4  -5  201.07   22.06
  -4   4   5  103.86   13.79
  -4   4   5  122.08   14.58
   4  -4  -5  120.04   18.34
  -4   4   5  118.06   15.47
   4  -4  -5  119.48   18.94
   4  -4  -5   88.08   19.29
   4  -4  -5  137.56   17.24
   4  -4  -5  124.99   19.25
   4  -4  -5   93.40   16.09
  -4   4   5  105.80   15.20
   4  -4  -5   74.05   14.32
   3  -4  -5  579.94   33.88
  -3   4   5  531.07   32.32
  -3   4   5  513.74   37.00
   3  -4  -5  478.04   32.88
   3  -4  -5  566.40   36.29
   3  -4  -5  563.31   39.76
   3  -4  -5  524.98   35.05
   3  -4  -5  559.60   36.31
  -3   4   5  503.69   30.57
  -3   4   5  496.73   29.58
   3  -4  -5  573.83   32.92
   2  -4  -5 1140.43   57.21
   2  -4  -5 1336.70   61.54
   2  -4  -5 1294.24   59.92
  -2   4   5 1252.42   57.71
  -2   4   5 1226.33   54.43
   2  -4  -5 1339.94   61.31
   2  -4  -5 1291.57   55.96
   2  -4  -5 1250.60   57.21
   2  -4  -5 1336.50   59.36
  -2   4   5 1186.12   56.91
  -2   4   5 1281.27   56.33
  -2   4   5 1299.96   62.97
   1  -4  -5    0.42    5.62
  -1   4   5   17.03    8.58
   1  -4  -5    7.04    6.01
  -1   4   5   12.95    7.20
   1  -4  -5   26.35    8.65
   1  -4  -5   11.69    6.81
  -1   4   5    4.39    6.17
  -1   4   5   25.66    8.22
  -1   4   5    0.72    5.34
   1  -4  -5    4.84    5.74
  -1   4   5    7.50    6.14
   1  -4  -5   11.84    7.31
   1  -4  -5    3.30    6.22
   0  -4  -5  938.47   47.05
   0  -4  -5  900.40   48.58
   0  -4  -5  959.84   48.27
   0  -4  -5  944.03   45.61
   0  -4  -5 1049.34   45.34
   0   4   5  991.39   46.52
   0   4   5  958.07   45.02
   0   4   5  958.56   48.29
   0   4   5  935.98   47.40
   0  -4  -5  958.01   46.95
  -1  -4  -5 1153.22   52.77
   1   4   5 1090.69   54.83
   1   4   5 1181.34   53.36
  -1  -4  -5 1152.26   53.03
   1   4   5 1040.64   52.64
  -1  -4  -5 1180.56   52.70
  -1  -4  -5 1069.71   48.85
  -1  -4  -5 1053.45   54.16
  -1  -4  -5 1075.43   49.90
   1   4   5 1078.29   49.81
   1   4   5 1039.54   50.70
   2   4   5  263.42   23.80
  -2  -4  -5  283.37   20.71
  -2  -4  -5  238.94   23.10
   2   4   5  288.09   22.96
  -2  -4  -5  282.73   21.04
  -2  -4  -5  307.37   23.39
   2   4   5  278.89   22.17
  -2  -4  -5  284.90   22.43
   2   4   5  286.40   21.98
   2   4   5  292.28   25.54
  -3  -4  -5  596.34   35.08
   3   4   5  658.05   37.50
   3   4   5  601.99   36.72
   3   4   5  634.81   40.32
   3   4   5  595.08   37.78
  -3  -4  -5  564.71   32.84
  -3  -4  -5  606.02   32.80
  -3  -4  -5  551.06   36.46
  -3  -4  -5  571.19   34.82
  -3  -4  -5  628.15   35.47
   3   4   5  573.74   35.00
  -4  -4  -5  964.65   50.88
  -4  -4  -5  986.80   47.51
  -4  -4  -5  966.11   46.27
   4   4   5 1018.10   53.33
  -4  -4  -5 1052.82   50.41
   4   4   5  994.74   56.83
   4   4   5 1047.95   52.31
   4   4   5  990.74   54.20
  -4  -4  -5  974.49   49.24
  -4  -4  -5  991.91   52.07
   4   4   5 1020.46   52.77
   5   4   5  437.08   32.62
  -5  -4  -5  423.54   27.23
  -5  -4  -5  351.55   24.89
   5   4   5  399.53   35.34
  -5  -4  -5  423.38   30.71
   5   4   5  410.30   33.08
  -5  -4  -5  325.86   26.26
   5   4   5  408.75   32.94
   5   4   5  381.86   30.73
  -6  -4  -5  408.78   31.65
   6   4   5  492.05   38.51
  -6  -4  -5  380.15   25.97
   6   4   5  377.42   33.67
   6   4   5  400.58   34.57
   6   4   5  523.67   41.48
  -6  -4  -5  419.68   26.38
  -6  -4  -5  431.69   26.27
   7   4   5  -10.61    9.25
  -7  -4  -5    2.02    5.54
   7   4   5   -0.06   10.66
   7   4   5   -0.78   11.67
  -7  -4  -5   10.88    9.94
   7  -5  -5   21.45   14.34
   7  -5  -5  -11.29    8.31
   6  -5  -5   98.82   21.50
   6  -5  -5   68.10   18.28
   6  -5  -5   96.75   18.19
  -5   5   5    2.56    5.83
  -5   5   5    4.68    6.55
   5  -5  -5    2.97    8.38
   5  -5  -5   -2.42    7.48
   5  -5  -5   -3.33    6.92
   5  -5  -5    4.52   10.15
  -5   5   5    9.85    6.12
   5  -5  -5   -3.16    8.00
   5  -5  -5    0.75    7.55
  -5   5   5   -0.69    4.43
   4  -5  -5  147.91   21.24
   4  -5  -5  131.40   20.51
  -4   5   5  205.59   18.50
  -4   5   5  189.10   16.78
   4  -5  -5  178.16   21.02
   4  -5  -5  143.71   19.29
  -4   5   5  202.22   17.51
   4  -5  -5  176.80   26.29
   4  -5  -5  159.62   19.60
   4  -5  -5  197.01   20.29
   4  -5  -5  203.12   23.06
   3  -5  -5  518.70   34.73
  -3   5   5  594.66   32.58
   3  -5  -5  555.64   35.43
   3  -5  -5  594.64   34.23
   3  -5  -5  579.07   34.96
   3  -5  -5  543.04   36.83
  -3   5   5  519.08   38.95
   3  -5  -5  502.08   36.55
   3  -5  -5  560.01   36.71
  -3   5   5  554.94   31.10
  -2   5   5  211.28   20.38
  -2   5   5  216.90   19.04
   2  -5  -5  190.78   20.50
   2  -5  -5  212.46   21.29
   2  -5  -5  243.68   23.26
  -2   5   5  248.10   19.88
   2  -5  -5  234.19   20.43
   2  -5  -5  202.34   19.55
   2  -5  -5  251.06   22.76
  -2   5   5  188.70   22.83
   2  -5  -5  181.12   21.43
  -1   5   5  500.65   31.60
   1  -5  -5  426.82   27.97
   1  -5  -5  392.19   28.97
   1  -5  -5  453.40   29.57
  -1   5   5  384.33   26.27
   1  -5  -5  363.25   28.90
   1  -5  -5  418.30   30.81
   1  -5  -5  435.32   27.88
  -1   5   5  475.36   28.83
  -1   5   5  491.00   33.86
  -1   5   5  422.36   28.89
   0  -5  -5  359.75   27.20
   0   5   5  370.84   27.18
   0  -5  -5  347.46   26.27
   0   5   5  333.45   26.65
   0   5   5  372.91   27.48
   0   5   5  326.85   24.20
   0  -5  -5  390.93   27.07
   0  -5  -5  355.65   24.46
   0  -5  -5  349.76   27.61
   0   5   5  380.60   26.10
   0  -5  -5  373.52   25.36
  -1  -5  -5    5.45    5.79
  -1  -5  -5    1.92    4.80
   1   5   5    4.72    6.08
   1   5   5   13.46    7.76
   1   5   5   -3.77    4.81
   1   5   5    3.50    6.36
  -1  -5  -5   -1.26    5.89
   1   5   5    0.26    5.79
  -1  -5  -5    6.64    5.85
  -1  -5  -5    3.45    5.84
  -1  -5  -5   -0.87    3.97
   2   5   5  949.63   49.91
   2   5   5  966.67   48.81
  -2  -5  -5  917.55   47.50
  -2  -5  -5  971.94   50.47
  -2  -5  -5  992.05   50.41
  -2  -5  -5 1027.53   54.10
   2   5   5  911.50   52.47
   2   5   5 1014.30   51.42
   2   5   5  983.76   52.57
  -2  -5  -5  899.28   46.38
  -2  -5  -5 1050.58   51.15
   3   5   5   50.70   12.80
   3   5   5   30.54   11.27
   3   5   5   47.03   12.84
   3   5   5   32.13   11.01
  -3  -5  -5   37.39   10.47
  -3  -5  -5   13.63    8.42
  -3  -5  -5   43.54   13.56
   3   5   5   25.88   10.88
  -3  -5  -5   19.02    8.85
  -3  -5  -5   28.69   10.17
  -4  -5  -5  112.47   16.60
   4   5   5   78.15   17.01
   4   5   5   95.97   17.28
   4   5   5   72.56   17.58
   4   5   5   90.47   17.89
   4   5   5   66.63   15.67
  -4  -5  -5  131.93   16.30
  -4  -5  -5   95.61   16.56
  -4  -5  -5   83.11   15.20
  -4  -5  -5   72.03   16.72
  -5  -5  -5 1207.15   57.90
  -5  -5  -5 1111.20   55.09
  -5  -5  -5 1074.32   53.49
   5   5   5 1074.00   65.35
   5   5   5 1000.46   58.43
   5   5   5  949.23   57.01
  -5  -5  -5 1076.01   57.95
   5   5   5 1090.30   62.09
  -5  -5  -5 1130.14   59.98
  -6  -5  -5   12.38    8.94
  -6  -5  -5    8.18    7.78
   6   5   5    5.70   10.78
   6   5   5   31.45   15.52
  -6  -5  -5    3.77    8.43
   6   5   5   10.91   11.82
   6   5   5   23.33   13.20
  -6  -5  -5    7.55    8.52
   7   5   5   15.63   13.40
  -7  -5  -5   32.15   10.51
   7   5   5   37.00   17.22
   7   5   5    6.90   12.87
   6  -6  -5   49.06   15.22
   6  -6  -5   46.18   15.64
   6  -6  -5   84.52   20.91
   5  -6  -5    0.01    8.27
   5  -6  -5    2.06    8.95
  -5   6   5    6.13    4.95
  -5   6   5    3.60    4.85
   5  -6  -5    1.13    8.25
  -5   6   5   -4.21    3.92
   5  -6  -5    0.49   12.25
   5  -6  -5    5.64    8.18
   5  -6  -5   -0.39    7.73
   5  -6  -5   -4.91    8.29
  -4   6   5  242.30   18.41
   4  -6  -5  264.31   26.66
   4  -6  -5  252.93   23.76
   4  -6  -5  252.15   24.10
  -4   6   5  257.47   19.78
   4  -6  -5  228.95   26.17
   4  -6  -5  230.29   26.53
   4  -6  -5  217.36   23.69
   4  -6  -5  247.51   24.90
   3  -6  -5   52.12   13.73
   3  -6  -5   64.05   14.13
   3  -6  -5   39.31   13.24
   3  -6  -5   53.93   14.15
  -3   6   5   31.85   13.33
  -3   6   5   52.65   10.88
  -3   6   5   54.28   10.78
   3  -6  -5   60.69   14.48
   3  -6  -5   55.78   12.93
   3  -6  -5   49.39   12.31
   2  -6  -5   86.06   14.46
  -2   6   5  119.19   20.17
   2  -6  -5   98.82   17.69
   2  -6  -5  108.13   15.43
  -2   6   5  116.44   16.03
   2  -6  -5  110.32   17.21
   2  -6  -5  117.10   16.86
  -2   6   5   92.93   13.73
  -2   6   5  117.88   15.06
   2  -6  -5   75.05   15.01
   2  -6  -5  102.71   16.14
   1  -6  -5  335.73   25.47
  -1   6   5  307.21   25.40
   1  -6  -5  297.28   25.66
   1  -6  -5  310.50   27.52
  -1   6   5  323.11   30.32
  -1   6   5  341.36   24.96
  -1   6   5  391.77   26.66
  -1   6   5  340.98   27.32
   1  -6  -5  396.97   27.31
   1  -6  -5  349.65   29.81
   1  -6  -5  332.39   27.00
   0  -6  -5   33.72   10.27
   0   6   5   24.17    9.43
   0  -6  -5   28.93   10.09
   0   6   5   14.26    8.58
   0   6   5   20.05    9.10
   0   6   5   31.80   10.70
   0  -6  -5   54.72   13.32
   0   6   5   17.06    8.41
   0  -6  -5   15.82    8.11
   0  -6  -5   26.72    9.50
   0  -6  -5   21.26    8.56
  -1  -6  -5  824.80   43.77
   1   6   5  765.17   44.47
   1   6   5  788.45   43.85
  -1  -6  -5  824.27   49.46
  -1  -6  -5  803.91   45.57
  -1  -6  -5  830.10   44.56
   1   6   5  896.71   47.61
   1   6   5  884.13   48.16
  -1  -6  -5  804.09   46.50
  -2  -6  -5   79.53   15.12
   2   6   5   72.12   16.43
  -2  -6  -5   82.86   14.45
  -2  -6  -5   69.75   13.58
  -2  -6  -5   86.54   17.39
   2   6   5   59.23   13.67
  -2  -6  -5   62.16   14.82
   2   6   5   77.54   15.62
   2   6   5   63.45   14.70
  -2  -6  -5   73.78   14.56
   2   6   5   73.71   15.35
  -3  -6  -5  170.31   20.97
  -3  -6  -5  199.05   22.42
   3   6   5  107.56   20.56
  -3  -6  -5  161.11   19.36
   3   6   5  199.20   24.14
  -3  -6  -5  137.39   19.37
   3   6   5  183.84   23.20
  -3  -6  -5  154.27   22.67
   3   6   5  201.62   23.25
   3   6   5  149.02   20.82
  -4  -6  -5  556.59   37.69
   4   6   5  489.02   41.96
  -4  -6  -5  477.71   36.04
  -4  -6  -5  489.12   39.01
   4   6   5  505.43   38.59
  -4  -6  -5  478.70   33.80
   4   6   5  566.17   39.17
   4   6   5  564.19   39.98
   4   6   5  432.48   35.35
  -4  -6  -5  507.07   36.12
   5   6   5  366.24   34.27
   5   6   5  406.43   34.76
  -5  -6  -5  344.84   34.08
  -5  -6  -5  401.22   31.54
   5   6   5  394.72   37.21
  -5  -6  -5  279.25   30.06
  -5  -6  -5  385.47   32.19
   5   6   5  324.94   35.91
  -5  -6  -5  383.03   29.65
   6   6   5  215.96   30.33
  -6  -6  -5  127.59   18.63
   6   6   5  157.50   25.42
  -6  -6  -5  117.31   21.32
   6   6   5  143.08   28.10
  -6  -6  -5  113.84   20.68
  -6  -6  -5  169.33   20.64
   7   6   5  127.51   27.34
  -7  -6  -5   74.53   15.64
   7   6   5   87.73   22.68
   7   6   5   82.98   24.60
   6  -7  -5    7.61   11.04
   6  -7  -5   -3.33   10.81
   5  -7  -5  129.26   22.58
   5  -7  -5  174.58   22.67
   5  -7  -5  130.05   20.36
   5  -7  -5  108.88   19.87
   5  -7  -5  111.22   20.86
  -4   7   5  224.16   17.27
   4  -7  -5  186.36   22.65
   4  -7  -5  174.32   21.83
   4  -7  -5  146.80   22.96
  -4   7   5  170.43   15.11
   4  -7  -5  148.74   22.19
   4  -7  -5  206.54   22.77
   4  -7  -5  188.55   21.68
  -4   7   5  150.71   26.87
   3  -7  -5  141.12   18.67
   3  -7  -5  107.20   18.93
   3  -7  -5  108.51   17.62
   3  -7  -5  140.38   19.99
  -3   7   5  157.41   24.69
   3  -7  -5  138.09   21.49
   3  -7  -5  136.51   18.62
   3  -7  -5  117.57   19.00
  -3   7   5  131.91   15.53
  -3   7   5  117.03   14.44
  -2   7   5  168.47   17.98
  -2   7   5  133.39   17.69
  -2   7   5  150.87   17.01
   2  -7  -5  136.19   18.00
  -2   7   5  111.11   21.12
   2  -7  -5  137.13   20.31
   2  -7  -5  172.83   22.77
   2  -7  -5  126.31   18.13
   2  -7  -5  127.82   17.91
   2  -7  -5  162.91   20.64
  -1   7   5   83.75   15.34
   1  -7  -5  107.20   16.59
   1  -7  -5  118.44   17.64
  -1   7   5   81.95   14.64
   1  -7  -5   79.21   14.84
   1  -7  -5  101.22   18.45
   1  -7  -5   86.17   17.15
  -1   7   5   93.76   16.64
  -1   7   5   64.64   16.78
  -1   7   5   98.49   16.93
  -1   7   5  122.11   16.17
   1  -7  -5   80.25   15.05
   0  -7  -5  153.69   19.17
   0  -7  -5  149.77   19.39
   0   7   5  114.38   18.65
   0   7   5  126.80   19.78
   0  -7  -5  105.49   16.79
   0   7   5  180.19   21.23
   0  -7  -5  155.04   22.17
   0  -7  -5  141.24   19.22
   0   7   5  125.81   18.00
   0  -7  -5  129.87   19.34
   0   7   5  138.91   18.22
  -1  -7  -5  837.76   46.94
   1   7   5  758.26   49.36
  -1  -7  -5  798.51   48.14
  -1  -7  -5  863.21   48.37
   1   7   5  816.96   47.48
  -1  -7  -5  831.91   51.15
   1   7   5  829.07   48.56
  -1  -7  -5  802.22   47.98
  -1  -7  -5  866.15   46.32
   1   7   5  807.78   45.98
   2   7   5   43.63   13.48
  -2  -7  -5   49.58   14.65
  -2  -7  -5   36.60   12.51
  -2  -7  -5   31.68   11.22
   2   7   5   51.83   14.62
   2   7   5   41.11   13.35
   2   7   5   54.49   14.74
   2   7   5   34.87   12.65
  -2  -7  -5   85.41   17.43
   3   7   5  522.14   39.00
   3   7   5  471.63   38.07
  -3  -7  -5  483.61   35.71
  -3  -7  -5  581.14   42.40
   3   7   5  444.01   35.32
  -3  -7  -5  547.55   38.13
   3   7   5  462.97   40.07
  -3  -7  -5  507.17   37.90
   3   7   5  503.13   38.23
  -4  -7  -5   95.00   21.07
   4   7   5   84.75   20.55
   4   7   5  106.76   21.95
  -4  -7  -5  121.29   20.66
   4   7   5  117.42   20.61
   4   7   5  135.26   22.41
  -4  -7  -5  105.80   18.98
   4   7   5  112.73   21.91
  -4  -7  -5   91.44   17.68
  -4  -7  -5  119.00   20.54
  -5  -7  -5   18.71   12.26
  -5  -7  -5   27.47   12.83
   5   7   5   23.31   12.80
   5   7   5   13.71   12.61
   5   7   5   27.57   15.04
  -5  -7  -5   54.97   16.41
  -5  -7  -5   58.42   15.22
  -5  -7  -5    3.58   12.60
   5   7   5    7.22   11.44
  -6  -7  -5   62.33   15.75
   6   7   5   87.78   24.00
   6   7   5   73.10   22.47
   6   7   5   61.98   18.59
   6  -8  -5   26.28   16.74
   6  -8  -5   61.34   18.74
   5  -8  -5   77.02   19.56
   5  -8  -5   75.04   17.67
   5  -8  -5   88.56   20.04
   4  -8  -5   -4.48    8.30
  -4   8   5    2.96    5.19
  -4   8   5    8.78    5.25
   4  -8  -5   -1.63    7.78
  -4   8   5    5.28   10.79
   4  -8  -5   -1.60    7.77
   4  -8  -5   -3.05    7.14
   4  -8  -5    5.18    9.85
   4  -8  -5   -4.52    8.97
  -4   8   5   -4.37    4.87
   3  -8  -5  470.51   33.59
  -3   8   5  437.27   41.38
  -3   8   5  433.24   26.56
  -3   8   5  416.40   27.33
   3  -8  -5  458.89   33.94
   3  -8  -5  439.15   33.12
   3  -8  -5  430.25   34.59
   3  -8  -5  403.84   36.60
   3  -8  -5  415.50   33.96
  -2   8   5   90.88   21.18
   2  -8  -5   92.63   19.48
   2  -8  -5   92.42   17.44
   2  -8  -5   83.34   16.62
   2  -8  -5   97.88   19.75
   2  -8  -5   96.97   17.09
   2  -8  -5  105.18   17.25
  -2   8   5   97.46   14.58
  -2   8   5   77.10   14.01
  -2   8   5  111.16   16.56
   1  -8  -5  105.97   18.29
   1  -8  -5  116.99   18.31
  -1   8   5  130.26   17.78
  -1   8   5   86.39   16.51
   1  -8  -5  135.07   22.04
  -1   8   5   87.05   15.85
   1  -8  -5   96.88   17.50
  -1   8   5   99.50   18.14
   1  -8  -5   93.90   16.90
   1  -8  -5  115.66   19.77
  -1   8   5   81.52   16.65
  -1   8   5   92.02   20.64
   0  -8  -5  195.20   24.26
   0  -8  -5  177.60   21.77
   0   8   5  163.52   22.82
   0   8   5  181.27   22.25
   0  -8  -5  166.98   21.26
   0  -8  -5  220.64   23.96
   0  -8  -5  122.00   19.87
   0  -8  -5  181.13   25.41
   0   8   5  176.29   22.27
   0   8   5  203.24   23.93
   0   8   5  190.51   21.40
  -1  -8  -5   15.29   11.25
  -1  -8  -5   29.03   12.15
  -1  -8  -5   34.82   13.29
   1   8   5   48.24   14.47
   1   8   5   19.60   11.01
  -1  -8  -5   21.30   10.64
   1   8   5   24.24   12.45
   1   8   5    9.90    9.55
  -1  -8  -5   28.27   10.87
   1   8   5   54.30   14.69
  -2  -8  -5  495.10   37.88
   2   8   5  525.94   38.02
  -2  -8  -5  522.12   39.38
   2   8   5  474.01   39.86
  -2  -8  -5  526.96   42.10
   2   8   5  470.85   38.24
  -2  -8  -5  484.32   37.21
   2   8   5  578.49   43.75
   2   8   5  524.23   39.93
   3   8   5  129.78   22.53
   3   8   5  152.60   25.62
  -3  -8  -5  152.63   24.00
   3   8   5   93.41   20.72
   3   8   5  156.02   24.78
   3   8   5  147.10   22.65
  -3  -8  -5  107.33   22.31
  -3  -8  -5  111.33   20.46
  -3  -8  -5  125.41   21.30
   4   8   5    7.26   10.74
  -4  -8  -5    6.72   10.36
   4   8   5   -1.39    9.40
   4   8   5    5.58   10.37
  -4  -8  -5   10.30   10.21
  -4  -8  -5   -7.35   12.74
  -4  -8  -5    4.44    9.15
   4   8   5   -3.85    8.19
   5   8   5  208.12   29.38
  -5  -8  -5  148.61   23.79
   5   8   5  185.29   29.19
   5   8   5  143.00   29.44
  -5  -8  -5  181.45   27.00
  -6  -8  -5   64.25   17.67
   6   8   5   55.80   20.73
   6   8   5   52.19   19.35
   5  -9  -5    0.91   10.29
   5  -9  -5   -5.82   11.52
   4  -9  -5  106.78   20.56
  -4   9   5   93.61   24.52
   4  -9  -5  115.25   23.72
   4  -9  -5  131.36   20.83
   3  -9  -5   55.04   15.93
  -3   9   5   38.43    9.26
   3  -9  -5   45.97   14.66
  -3   9   5   36.41    9.63
  -3   9   5   43.00   17.57
   3  -9  -5   22.10   12.56
   3  -9  -5   59.01   16.94
   3  -9  -5   16.41   11.89
   3  -9  -5   29.90   12.54
  -2   9   5  208.14   20.63
   2  -9  -5  181.32   23.54
   2  -9  -5  206.35   24.48
   2  -9  -5  181.22   23.04
  -2   9   5  228.82   22.75
   2  -9  -5  165.81   26.15
  -2   9   5  185.02   29.28
  -2   9   5  220.80   20.57
   2  -9  -5  210.67   25.80
  -1   9   5  231.29   24.54
   1  -9  -5  246.52   27.18
  -1   9   5  206.20   29.98
  -1   9   5  226.56   23.04
  -1   9   5  250.36   27.06
  -1   9   5  242.58   24.50
   1  -9  -5  243.97   26.12
   1  -9  -5  230.05   26.16
   1  -9  -5  223.32   29.05
  -1   9   5  218.55   25.52
   0   9   5  114.51   18.40
   0   9   5  105.27   19.30
   0  -9  -5  131.27   20.96
   0  -9  -5  113.36   21.30
   0   9   5  143.37   22.53
   0  -9  -5  157.59   22.89
   0  -9  -5  147.01   21.72
   0   9   5  127.62   21.65
   0   9   5  103.09   19.26
   0  -9  -5  137.06   24.13
   1   9   5  325.51   30.69
   1   9   5  240.81   28.12
   1   9   5  272.30   30.04
   1   9   5  247.98   29.84
  -1  -9  -5  261.25   32.25
  -1  -9  -5  201.57   27.25
  -1  -9  -5  271.11   29.34
  -1  -9  -5  289.94   29.09
   1   9   5  290.17   28.37
   2   9   5  591.51   44.70
  -2  -9  -5  531.30   41.59
   2   9   5  607.59   47.56
   2   9   5  638.35   46.41
  -2  -9  -5  611.56   48.44
  -2  -9  -5  602.25   45.97
   2   9   5  635.25   42.77
   2   9   5  559.92   43.11
  -2  -9  -5  612.20   43.80
  -3  -9  -5   -6.13    7.93
   3   9   5    5.46   10.08
  -3  -9  -5   -5.77   10.56
  -3  -9  -5   -0.89   11.06
   3   9   5    1.45    9.37
  -3  -9  -5    2.98    9.28
   3   9   5    2.92    9.83
   3   9   5   -2.73    8.97
   3   9   5    0.59   11.87
   4   9   5  109.14   26.62
  -4  -9  -5  229.58   29.65
   4   9   5  215.51   30.69
  -4  -9  -5  174.33   25.65
   4   9   5  219.24   31.60
  -4  -9  -5  177.17   27.95
   4   9   5  189.05   27.57
   5   9   5  163.59   28.12
   5   9   5  182.57   31.27
  -5  -9  -5  142.71   25.26
  -5  -9  -5  139.35   26.89
   4 -10  -5   28.96   14.54
   4 -10  -5   24.29   15.83
   3 -10  -5   -4.14    9.36
   3 -10  -5   -5.83    9.57
  -3  10   5    7.99   13.35
   3 -10  -5    2.37    9.54
   3 -10  -5   12.10   12.27
  -2  10   5  246.62   23.97
   2 -10  -5  204.26   25.88
  -2  10   5  178.50   30.62
  -2  10   5  252.20   22.69
   2 -10  -5  231.88   27.78
   2 -10  -5  170.10   25.10
   2 -10  -5  166.28   27.79
  -2  10   5  219.17   21.04
  -1  10   5   23.66   11.56
   1 -10  -5   27.00   15.16
  -1  10   5   22.20   11.34
   1 -10  -5   15.58   10.89
  -1  10   5   30.18   13.67
   1 -10  -5   32.73   13.41
  -1  10   5   25.41   15.56
  -1  10   5   34.61   13.22
  -1  10   5   53.43   14.43
   1 -10  -5   29.39   13.08
   0  10   5  115.85   22.40
   0 -10  -5  129.20   25.42
   0 -10  -5  119.38   22.37
   0 -10  -5  131.47   22.74
   0 -10  -5  119.16   21.34
   0  10   5  161.36   23.74
   0  10   5  203.47   24.62
   0  10   5  141.98   23.98
   0  10   5  141.93   20.72
   1  10   5   97.04   21.29
   1  10   5   60.17   16.88
   1  10   5   69.94   18.15
   1  10   5   93.64   22.02
  -1 -10  -5   47.70   16.40
   1  10   5   92.26   19.96
  -1 -10  -5   83.36   19.66
  -1 -10  -5   48.47   17.45
   2  10   5   25.79   15.35
  -2 -10  -5   54.13   16.50
   2  10   5   93.33   21.60
   2  10   5   75.24   20.01
   2  10   5   18.38   12.73
   2  10   5   30.61   14.40
  -2 -10  -5   55.42   17.31
   3  10   5  140.37   26.79
   3  10   5  122.40   25.43
   3  10   5  131.76   24.31
  -3 -10  -5   79.41   21.04
  -3 -10  -5  183.62   27.01
   4  10   5   23.71   15.76
   4  10   5   10.49   13.92
  -4 -10  -5   66.10   19.96
   5  10   5  105.04   25.97
   5  10   5  109.45   27.07
   3 -11  -5  144.56   25.64
   2 -11  -5   86.75   20.78
   2 -11  -5   63.63   18.59
   2 -11  -5   53.09   17.86
  -2  11   5   55.52   14.43
  -1  11   5   68.36   16.20
   1 -11  -5  117.01   23.35
  -1  11   5   68.00   18.83
   1 -11  -5   78.34   19.98
   1 -11  -5   87.61   20.77
  -1  11   5   59.43   21.30
  -1  11   5   78.80   17.94
   0 -11  -5   46.07   16.68
   0  11   5   44.00   15.26
   0  11   5   33.79   15.84
   0 -11  -5    3.00   11.48
   0  11   5   46.83   15.88
  -1 -11  -5   25.40   14.05
   1  11   5   15.33   15.05
   1  11   5   10.74   12.37
   1  11   5   11.48   13.07
  -1 -11  -5    7.26   10.95
   1  11   5   13.56   13.06
   2  11   5  163.48   26.24
   2  11   5  139.87   26.27
  -2 -11  -5  145.59   26.49
  -2 -11  -5  156.30   27.11
   2  11   5  139.20   27.38
   2  11   5  222.38   32.11
  -3 -11  -5  225.15   31.81
   3  11   5  329.18   39.24
   3  11   5  291.59   34.77
   4  11   5   -1.25   13.17
   2 -12  -5    6.07   12.58
  -2  12   5   -5.10    8.88
   2 -12  -5    2.50   13.26
  -1  12   5   71.22   20.77
  -1  12   5   87.81   18.95
   1 -12  -5   61.05   20.21
   1 -12  -5   49.07   18.32
   0  12   5    2.81   12.21
   0  12   5   -1.57   10.73
   0 -12  -5   17.60   14.85
   0  12   5    4.01   11.22
   0 -12  -5   -2.00   12.18
   1  12   5   39.15   16.81
  -1 -12  -5   71.32   21.90
   1  12   5   46.55   20.50
   1  12   5   41.26   17.49
  -1 -12  -5   54.50   19.58
  -2 -12  -5   62.77   19.75
   2  12   5   55.80   20.25
   2  12   5   33.92   18.46
   0 -10   6    8.92   13.50
   2   9  -6   37.57   16.81
  -2  -9   6    9.75   14.47
  -2  -9   6   50.08   20.71
  -2  -9   6   44.09   16.44
   2   9  -6   34.32   14.89
  -1  -9   6   66.26   19.46
   1   9  -6   44.11   13.58
  -1  -9   6   45.83   16.55
   1   9  -6   77.56   19.17
  -1  -9   6   84.93   23.25
   0  -9   6   98.68   21.93
   0  -9   6  130.36   26.21
   0   9  -6   99.99   13.19
   0  -9   6  102.25   21.34
   1  -9   6   49.85   18.14
   1  -9   6   70.83   17.80
   2  -9   6  145.92   23.82
   2  -9   6  177.09   22.93
   3  -9   6   31.63   13.78
   3  -9   6   20.89   11.73
   3   8  -6   66.61   19.02
  -3  -8   6  101.97   24.35
  -3  -8   6   77.15   21.90
   3   8  -6  136.70   25.32
  -3  -8   6   60.90   20.91
  -2  -8   6   22.93   13.18
   2   8  -6    1.26   10.09
  -2  -8   6    7.84   13.18
  -2  -8   6   16.91   13.33
   2   8  -6   14.77   11.91
   1   8  -6  158.80   20.46
  -1  -8   6  126.07   22.27
  -1  -8   6  162.25   25.58
  -1  -8   6  188.21   25.66
  -1  -8   6  102.42   23.84
   1   8  -6  156.52   23.36
   0   8  -6   17.99    8.89
   0   8  -6    3.03    6.63
   0  -8   6   -2.22    9.32
   0  -8   6    3.84   11.79
   0  -8   6    7.51    9.51
   0   8  -6   -4.77    6.31
   0  -8   6    9.75   11.79
   0  -8   6   -0.43    9.48
   0   8  -6    4.00    4.55
   1  -8   6   32.29   14.11
  -1   8  -6   39.75   10.98
   1  -8   6   48.81   14.17
   1  -8   6   37.88   12.77
   1  -8   6   58.62   15.65
  -2   8  -6  162.06   16.07
   2  -8   6  160.66   20.50
   2  -8   6  146.38   22.08
   3  -8   6   18.25   11.11
   3  -8   6   38.42   11.89
   4  -8   6   98.64   15.10
   4  -8   6  105.07   16.66
  -4  -7   6  177.47   30.70
   4   7  -6  144.05   29.29
   4   7  -6  131.52   27.00
  -4  -7   6  160.13   27.68
   4   7  -6  132.50   25.37
  -3  -7   6    4.94   12.28
   3   7  -6   12.47   11.27
   3   7  -6   -0.36   12.61
   3   7  -6    5.22   10.51
  -3  -7   6    3.61   10.32
  -3  -7   6    6.12   11.45
   2   7  -6  452.85   36.95
   2   7  -6  433.87   38.01
  -2  -7   6  444.58   39.82
  -2  -7   6  446.85   39.03
  -2  -7   6  430.87   42.36
   2   7  -6  465.03   36.80
  -2  -7   6  537.08   40.35
   2   7  -6  487.38   41.46
   1   7  -6    6.87    8.58
   1   7  -6    9.99    8.92
  -1  -7   6   10.83   11.16
   1   7  -6    4.13   10.65
  -1  -7   6    6.25    8.31
  -1  -7   6   11.57   11.60
   1   7  -6    4.83    9.23
  -1  -7   6    6.23   11.39
   0   7  -6  108.17   17.43
   0  -7   6   97.31   18.26
   0  -7   6  113.79   19.18
   0  -7   6  129.30   21.23
   0  -7   6  121.57   22.03
   0   7  -6  113.93   14.57
   1  -7   6  210.22   21.79
   1  -7   6  147.56   22.28
   1  -7   6  165.79   20.53
  -1   7  -6  182.80   19.21
   1  -7   6  150.75   20.71
   2  -7   6   65.74   13.59
  -2   7  -6   61.91   10.68
   2  -7   6   48.02   12.79
   2  -7   6   44.04   13.48
   2  -7   6   59.94   14.17
   3  -7   6  416.59   29.79
   3  -7   6  357.05   26.17
   4  -7   6  204.38   18.00
   4  -7   6  218.17   20.40
   5  -7   6    0.82    6.48
   5  -7   6    3.43    6.79
  -5  -6   6    3.21   11.73
  -5  -6   6   23.47   15.13
   5   6  -6   15.16   14.42
   4   6  -6   10.00   11.94
  -4  -6   6    0.07    9.81
  -4  -6   6   15.55   12.96
   4   6  -6    3.43   10.13
   4   6  -6    0.17   15.16
  -4  -6   6   31.64   15.23
   3   6  -6  227.36   28.74
  -3  -6   6  160.02   26.39
  -3  -6   6  225.58   28.52
  -3  -6   6  278.44   31.13
   3   6  -6  164.35   26.86
   3   6  -6  248.66   28.35
   3   6  -6  239.12   29.21
  -2  -6   6  156.86   25.91
   2   6  -6  170.87   22.07
   2   6  -6  149.78   21.97
  -2  -6   6  105.44   21.82
   2   6  -6  137.32   22.87
   2   6  -6  149.56   21.83
  -2  -6   6  151.78   23.14
  -2  -6   6  229.65   26.79
   1   6  -6  206.17   22.30
   1   6  -6  204.21   21.76
   1   6  -6  216.45   23.47
  -1  -6   6  169.51   23.89
  -1  -6   6  216.90   24.62
   1   6  -6  234.53   25.09
  -1  -6   6  211.12   27.01
  -1  -6   6  207.81   23.91
   0  -6   6  128.31   18.42
   0  -6   6  145.06   20.09
   0  -6   6  164.01   21.81
   0  -6   6  156.28   19.92
   0   6  -6  158.04   18.96
   0   6  -6  130.10   15.63
   0  -6   6  138.58   21.55
   0   6  -6  167.53   16.68
   0   6  -6  174.96   19.29
   1  -6   6   46.20   12.77
   1  -6   6   54.34   12.80
  -1   6  -6   49.35   10.94
   1  -6   6   53.47   13.27
   1  -6   6   36.62   11.50
   1  -6   6   63.60   14.67
   2  -6   6  261.20   24.50
   2  -6   6  268.95   22.35
   2  -6   6  282.86   23.59
   2  -6   6  236.25   22.29
   2  -6   6  273.06   22.11
  -2   6  -6  269.57   18.90
   3  -6   6  111.98   13.77
   3  -6   6  125.04   15.82
   3  -6   6  110.52   14.52
   3  -6   6  122.96   13.79
   4  -6   6   12.75    7.52
   4  -6   6   21.35    8.07
   4  -6   6   16.40    7.29
   5  -6   6  215.67   16.84
   5  -6   6  204.13   16.36
   5  -6   6  219.11   15.46
   6  -6   6  126.65   11.53
  -5  -5   6   -2.04   10.37
  -5  -5   6   14.06   13.70
   5   5  -6   -9.04    9.95
   4   5  -6  237.76   31.43
   4   5  -6  216.71   31.52
  -4  -5   6  188.55   27.91
   4   5  -6  173.94   26.09
  -4  -5   6  199.93   28.15
   4   5  -6  203.27   27.92
  -4  -5   6  190.72   26.48
   3   5  -6  182.63   24.83
   3   5  -6  131.80   23.81
   3   5  -6  161.45   24.36
  -3  -5   6  165.55   24.56
  -3  -5   6  130.92   23.18
  -3  -5   6  150.12   23.58
  -3  -5   6  148.76   22.99
  -3  -5   6  141.72   25.39
   3   5  -6  168.72   23.57
  -2  -5   6   79.63   17.85
  -2  -5   6   60.78   15.92
   2   5  -6   97.05   17.76
   2   5  -6   80.95   17.62
   2   5  -6   73.41   15.60
  -2  -5   6   58.64   17.60
  -2  -5   6   77.92   16.63
  -2  -5   6   58.34   15.61
   2   5  -6   81.52   17.24
  -1  -5   6  242.68   24.98
  -1  -5   6  223.20   23.77
  -1  -5   6  201.05   24.11
   1   5  -6  231.81   24.13
   1   5  -6  204.32   21.13
  -1  -5   6  213.23   23.47
   1   5  -6  229.13   22.94
  -1  -5   6  195.14   24.96
   1   5  -6  232.26   23.53
   0  -5   6  151.65   19.03
   0   5  -6  170.16   18.73
   0   5  -6  135.84   15.52
   0  -5   6  156.41   19.09
   0  -5   6  166.54   19.98
   0   5  -6  167.12   18.59
   0   5  -6  160.59   16.82
   0  -5   6  152.50   20.44
   0  -5   6  203.92   23.43
   0   5  -6  199.64   19.28
   1  -5   6  401.31   30.29
  -1   5  -6  375.68   21.45
  -1   5  -6  358.21   18.96
   1  -5   6  384.12   27.56
  -1   5  -6  404.70   19.30
  -1   5  -6  366.47   24.86
   1  -5   6  344.04   25.83
   1  -5   6  415.08   28.07
   2  -5   6  493.06   29.63
   2  -5   6  540.50   32.60
  -2   5  -6  457.24   25.69
   2  -5   6  464.61   28.47
   2  -5   6  471.93   29.02
   3  -5   6   69.11   11.79
   3  -5   6   60.57   10.04
   3  -5   6   73.33   11.31
   3  -5   6   61.13   10.37
   4  -5   6  127.03   13.01
   4  -5   6  131.12   12.24
   4  -5   6  128.76   13.53
   4  -5   6  128.34   13.45
   5  -5   6  361.38   21.54
   5  -5   6  341.78   19.86
   5  -5   6  421.42   21.57
   5  -5   6  363.22   28.24
   6  -5   6    4.11    4.76
   6  -5   6    1.23    5.01
  -6  -4   6   54.86   19.96
   6   4  -6   33.59   17.62
  -6  -4   6    9.24   12.68
  -5  -4   6   75.73   20.29
  -5  -4   6  104.59   23.21
  -5  -4   6   44.02   15.75
   5   4  -6   89.34   21.48
  -5  -4   6   68.11   19.39
   5   4  -6   55.06   16.40
  -4  -4   6  267.16   32.78
  -4  -4   6  290.35   29.45
  -4  -4   6  245.78   29.65
   4   4  -6  234.64   30.68
   4   4  -6  236.44   28.10
  -4  -4   6  233.40   28.35
   4   4  -6  148.20   25.93
  -4  -4   6  246.41   30.04
   4   4  -6  290.56   31.02
   3   4  -6   50.71   14.31
  -3  -4   6   16.89   10.87
   3   4  -6   64.49   16.03
  -3  -4   6   33.85   13.87
   3   4  -6   26.25   13.77
  -3  -4   6   56.38   16.86
   3   4  -6   33.62   13.34
  -3  -4   6   15.74   10.14
  -3  -4   6   35.56   12.62
   2   4  -6   54.60   14.78
  -2  -4   6   91.77   17.46
   2   4  -6  103.29   17.99
  -2  -4   6   59.55   14.73
   2   4  -6   74.82   15.82
  -2  -4   6   68.66   16.87
  -2  -4   6   96.77   18.66
  -2  -4   6   61.31   15.17
   2   4  -6   66.92   14.26
  -1  -4   6  263.44   24.87
   1   4  -6  236.98   23.78
  -1  -4   6  233.70   24.54
   1   4  -6  237.85   23.06
  -1  -4   6  224.01   22.99
  -1  -4   6  219.03   24.69
   1   4  -6  262.33   22.68
   1   4  -6  278.29   24.16
  -1  -4   6  238.30   23.12
   1   4  -6  215.02   14.61
   0   4  -6   78.44   13.02
   0   4  -6   77.39   11.96
   0   4  -6   64.86   12.55
   0  -4   6   62.26   13.43
   0  -4   6   84.90   15.64
   0   4  -6   95.93   14.12
   0   4  -6   92.05   13.82
   0  -4   6   78.48   13.87
   0  -4   6   84.60   14.07
  -1   4  -6  644.64   30.64
   1  -4   6  658.61   35.68
  -1   4  -6  605.45   32.77
   1  -4   6  640.05   35.20
  -1   4  -6  562.42   27.33
  -1   4  -6  615.37   30.24
   1  -4   6  532.86   32.58
   1  -4   6  589.96   36.71
  -1   4  -6  603.01   28.34
   2  -4   6   -0.42    5.46
   2  -4   6   -1.41    5.34
   2  -4   6    5.96    6.78
  -2   4  -6   -2.40    4.36
   2  -4   6   -5.80    4.95
   2  -4   6    8.28    6.27
   3  -4   6  163.85   15.74
   3  -4   6  180.69   15.89
   3  -4   6  195.16   15.57
  -3   4  -6  189.86   11.11
   3  -4   6  201.91   17.08
   3  -4   6  187.33   15.16
  -3   4  -6  172.33   10.60
   4  -4   6  391.27   21.50
   4  -4   6  362.54   22.60
   4  -4   6  370.06   22.45
   4  -4   6  331.08   21.63
   4  -4   6  351.24   23.27
   4  -4   6  403.32   21.25
   5  -4   6    5.70    5.36
   5  -4   6    6.09    5.47
   5  -4   6    1.63    7.74
   5  -4   6    4.00    4.82
   5  -4   6   11.41    5.43
   5  -4   6    3.12    6.03
   6  -4   6  129.34   12.90
   6  -4   6  122.78   11.45
   6  -4   6  149.76   13.67
   6  -4   6  117.07   11.92
   6  -4   6   98.64   19.22
  -6  -3   6   73.55   20.21
  -6  -3   6  100.70   20.50
   6   3  -6  102.08   23.42
  -5  -3   6  220.65   28.50
  -5  -3   6  218.22   28.18
  -5  -3   6  240.69   30.60
   5   3  -6  216.06   28.96
   5   3  -6  149.96   28.09
   5   3  -6  217.91   27.93
  -5  -3   6  241.31   27.68
   4   3  -6   -5.57    6.49
  -4  -3   6    4.84    8.49
   4   3  -6   -6.35    7.62
   4   3  -6   -4.98    8.39
  -4  -3   6   12.57   10.76
  -4  -3   6    0.78    8.68
   4   3  -6   -3.14   10.73
  -4  -3   6   -4.69    7.81
  -4  -3   6   13.06   11.03
   3   3  -6  454.58   33.89
   3   3  -6  380.22   33.54
   3   3  -6  475.41   34.41
  -3  -3   6  441.04   33.60
  -3  -3   6  376.82   33.16
  -3  -3   6  369.17   32.79
  -3  -3   6  372.71   30.29
  -3  -3   6  365.98   34.56
   2   3  -6  467.95   34.70
   2   3  -6  481.32   32.81
  -2  -3   6  383.73   31.94
  -2  -3   6  441.76   33.08
   2   3  -6  497.59   34.72
  -2  -3   6  450.59   31.45
   2   3  -6  404.04   30.26
  -2  -3   6  375.45   33.17
  -2  -3   6  426.58   31.27
  -1  -3   6    4.64    7.23
  -1  -3   6    0.24    5.96
  -1  -3   6    0.90    5.86
   1   3  -6    1.89    6.43
  -1  -3   6   -0.35    5.72
   1   3  -6    5.21    6.97
   1   3  -6   -3.42    5.39
   1   3  -6    0.17    3.87
   1   3  -6    4.18    5.75
   0   3  -6  645.57   37.54
   0   3  -6  731.13   37.91
   0  -3   6  671.08   40.39
   0   3  -6  716.44   36.31
   0   3  -6  669.76   37.07
   0  -3   6  694.07   37.56
   0  -3   6  733.76   38.89
   0   3  -6  751.56   39.03
   0  -3   6  703.41   39.36
   1  -3   6   64.20   11.23
  -1   3  -6   54.60    9.05
  -1   3  -6   63.48    9.69
  -1   3  -6   68.04    8.68
  -1   3  -6   84.44   11.47
   1  -3   6   80.19   12.56
   1  -3   6   45.43   10.85
  -1   3  -6   45.79    7.78
   1  -3   6   74.19   12.77
   1  -3   6   70.21   11.29
  -2   3  -6  283.36   18.50
   2  -3   6  324.31   22.90
   2  -3   6  317.88   20.63
   2  -3   6  246.89   18.57
   2  -3   6  231.97   19.38
  -2   3  -6  329.61   20.14
   2  -3   6  286.10   21.20
   3  -3   6  741.08   34.71
  -3   3  -6  741.33   30.39
   3  -3   6  740.88   37.08
   3  -3   6  734.88   36.88
   3  -3   6  794.03   36.88
   3  -3   6  736.03   34.33
   3  -3   6  741.04   31.74
  -3   3  -6  732.68   30.77
   4  -3   6   19.36    6.93
   4  -3   6   24.67    8.12
   4  -3   6   13.77    6.22
   4  -3   6   12.05    6.19
   4  -3   6   24.97    6.51
   4  -3   6    5.39    5.73
   5  -3   6  164.31   19.36
   5  -3   6  119.84   11.42
   5  -3   6  138.20   12.65
   5  -3   6  121.39   13.28
   5  -3   6  109.00   12.90
   5  -3   6  133.69   12.80
   6  -3   6   90.24   11.21
   6  -3   6  105.26   18.88
   6  -3   6   73.41   11.74
   6  -3   6   77.68   11.62
   7  -3   6   -2.84    7.45
   7  -3   6   -0.67    7.67
  -6  -2   6  156.13   24.59
  -6  -2   6  153.16   25.64
  -6  -2   6  155.96   22.80
   6   2  -6  144.80   26.75
   6   2  -6  124.12   25.19
   6   2  -6  152.55   28.62
   5   2  -6   48.80   17.25
   5   2  -6   63.14   16.45
   5   2  -6   46.35   15.49
  -5  -2   6   21.99   12.38
  -5  -2   6   48.03   14.67
  -5  -2   6   32.78   13.52
   5   2  -6   25.04   12.29
  -5  -2   6   79.88   18.62
  -5  -2   6   13.69   13.22
   4   2  -6  125.07   21.69
  -4  -2   6  174.79   23.85
  -4  -2   6  162.75   24.34
   4   2  -6  162.18   21.11
  -4  -2   6  116.25   18.70
   4   2  -6   88.79   20.54
   4   2  -6  159.86   22.37
  -4  -2   6  156.29   21.77
  -4  -2   6  165.48   23.45
   4   2  -6  151.86   22.03
  -3  -2   6  584.05   39.71
   3   2  -6  533.44   34.90
   3   2  -6  498.37   35.90
  -3  -2   6  528.07   38.31
  -3  -2   6  574.72   40.65
  -3  -2   6  566.67   37.61
   3   2  -6  609.05   40.65
  -3  -2   6  561.45   36.80
   3   2  -6  556.07   37.84
   2   2  -6    4.71    5.58
  -2  -2   6   -1.79    6.43
   2   2  -6    0.06    6.52
   2   2  -6    9.77    7.68
  -2  -2   6    2.69    7.74
   2   2  -6   10.33    8.04
  -2  -2   6    4.90    7.66
  -2  -2   6   -2.90    5.97
   2   2  -6    5.32    7.48
  -2  -2   6   22.70    9.13
   2   2  -6    1.14    6.39
  -1  -2   6  504.18   32.06
   1   2  -6  493.23   33.34
  -1  -2   6  545.05   34.58
   1   2  -6  512.43   33.54
   1   2  -6  542.39   33.95
  -1  -2   6  560.14   36.46
   1   2  -6  511.00   31.82
  -1  -2   6  510.56   32.39
   1   2  -6  603.54   33.11
   1   2  -6  567.27   33.79
   1   2  -6  548.99   26.50
   0  -2   6   30.30    8.55
   0  -2   6   22.56    8.80
   0  -2   6   29.93    9.36
   0   2  -6   22.25    7.33
   0   2  -6   10.51    6.24
   0   2  -6   20.17    8.09
   0   2  -6   12.15    7.05
   0  -2   6   29.28    8.48
   0   2  -6   34.69    9.09
   0  -2   6   47.98   11.38
  -1   2  -6  337.91   21.43
   1  -2   6  326.78   24.68
   1  -2   6  401.23   24.32
  -1   2  -6  394.51   21.14
   1  -2   6  342.04   24.76
  -1   2  -6  384.47   23.87
   1  -2   6  371.10   23.77
  -1   2  -6  369.50   22.40
   1  -2   6  371.25   24.85
  -1   2  -6  363.00   23.13
   2  -2   6 1473.53   59.93
   2  -2   6 1395.33   58.51
   2  -2   6 1437.74   62.42
   2  -2   6 1480.11   61.38
   2  -2   6 1533.38   62.29
   2  -2   6 1487.05   62.41
  -2   2  -6 1465.83   58.92
  -2   2  -6 1463.89   58.04
  -3   2  -6  596.31   28.20
   3  -2   6  611.85   32.88
   3  -2   6  630.79   32.75
  -3   2  -6  661.50   28.53
   3  -2   6  610.75   30.03
   3  -2   6  642.19   32.99
   3  -2   6  607.02   30.54
   4  -2   6  176.09   14.13
   4  -2   6  204.49   15.46
   4  -2   6  178.60   15.88
   4  -2   6  168.29   15.76
   4  -2   6  195.79   17.10
   5  -2   6  395.41   25.70
   5  -2   6  474.13   25.09
   5  -2   6  385.94   24.72
   5  -2   6  388.51   24.08
   5  -2   6  367.56   22.04
   6  -2   6    6.91    6.84
   6  -2   6   17.10    8.45
   6  -2   6    5.82    7.67
   7  -2   6  209.12   19.46
   7  -2   6  174.57   20.57
  -7  -1   6  122.10   23.34
   7   1  -6   86.30   22.50
  -6  -1   6   14.24    9.53
  -6  -1   6   18.10   13.09
   6   1  -6   -3.75   11.74
   6   1  -6   32.43   15.31
   6   1  -6   20.05   13.48
  -6  -1   6    7.16   11.18
  -5  -1   6   83.61   18.52
  -5  -1   6   95.48   17.13
  -5  -1   6  103.44   20.95
  -5  -1   6  103.46   18.58
   5   1  -6   93.36   20.74
   5   1  -6   84.84   19.31
   5   1  -6  109.40   21.08
   5   1  -6  114.77   21.26
  -4  -1   6  299.71   29.82
  -4  -1   6  264.92   28.19
  -4  -1   6  254.92   27.03
   4   1  -6  291.21   28.43
   4   1  -6  259.63   29.12
  -4  -1   6  249.37   24.90
  -4  -1   6  282.28   26.20
   4   1  -6  272.13   27.40
   4   1  -6  298.45   28.29
   4   1  -6  284.92   29.55
  -3  -1   6   24.24   11.23
  -3  -1   6   11.66    9.14
  -3  -1   6   17.08    9.29
   3   1  -6    7.35    7.25
   3   1  -6   13.45    8.96
   3   1  -6   -0.24    7.66
   3   1  -6    2.13    6.99
   3   1  -6    1.36    8.24
   3   1  -6    7.28    6.85
  -3  -1   6   16.05   10.41
  -3  -1   6    7.18    7.46
  -2  -1   6  240.02   22.36
   2   1  -6  240.95   22.46
   2   1  -6  238.69   23.01
   2   1  -6  244.38   24.24
  -2  -1   6  292.30   26.34
   2   1  -6  244.85   23.61
   2   1  -6  268.73   22.79
  -2  -1   6  265.12   24.57
   2   1  -6  256.63   20.41
  -2  -1   6  272.72   23.24
   1   1  -6  513.02   26.93
  -1  -1   6  457.90   32.69
  -1  -1   6  501.84   31.42
   1   1  -6  550.70   31.54
  -1  -1   6  544.50   31.66
   1   1  -6  524.65   33.01
   1   1  -6  487.30   32.56
   1   1  -6  572.87   31.48
   1   1  -6  473.99   32.30
   1   1  -6  522.50   32.05
  -1  -1   6  560.80   33.72
   0   1  -6  265.66   19.28
   0  -1   6  279.45   20.51
   0   1  -6  283.35   21.61
   0  -1   6  263.90   22.54
   0  -1   6  278.75   22.15
   0   1  -6  261.17   20.60
   0   1  -6  232.32   18.34
   0  -1   6  247.35   19.79
   0   1  -6  232.29   20.59
   0  -1   6  244.37   20.93
   0   1  -6  278.30   21.03
   1  -1   6 1784.78   69.82
   1  -1   6 1722.55   72.06
  -1   1  -6 1650.54   65.31
   1  -1   6 1874.15   73.61
  -1   1  -6 1756.44   70.45
  -1   1  -6 1707.43   69.15
   1  -1   6 1749.32   68.79
   1  -1   6 1733.67   60.79
  -1   1  -6 1621.61   65.89
   1  -1   6 1723.98   70.95
  -1   1  -6 1756.82   68.72
   1  -1   6 1647.85   71.70
  -1   1  -6 1782.12   69.59
  -2   1  -6  304.66   16.85
   2  -1   6  291.16   21.28
   2  -1   6  264.96   19.30
  -2   1  -6  298.00   17.19
   2  -1   6  331.04   22.45
  -2   1  -6  278.05   19.47
  -2   1  -6  282.08   14.86
   2  -1   6  297.45   21.83
   2  -1   6  288.14   19.17
  -2   1  -6  288.46   19.54
  -2   1  -6  292.12   15.54
  -3   1  -6  366.35   21.27
   3  -1   6  380.27   25.20
  -3   1  -6  415.50   22.04
   3  -1   6  384.29   24.38
   3  -1   6  373.25   21.84
   3  -1   6  378.96   22.77
   3  -1   6  317.11   22.64
  -4   1  -6  245.06   15.13
   4  -1   6  267.95   20.60
   4  -1   6  214.62   18.64
   4  -1   6  243.95   18.54
   4  -1   6  235.22   17.91
  -4   1  -6  247.89   15.09
   4  -1   6  205.06   16.45
   5  -1   6   15.24    7.41
   5  -1   6   13.91    7.62
   5  -1   6    6.49    7.11
   5  -1   6   15.29    7.47
   6  -1   6  196.91   20.81
   6  -1   6  180.12   17.50
   6  -1   6  191.22   19.10
   6  -1   6  172.77   18.29
   7  -1   6  223.22   22.25
   7  -1   6  269.18   21.32
   7  -1   6  231.17   24.98
   7   0  -6   39.37   17.40
  -7   0   6    8.40   11.66
   7   0  -6   38.73   20.27
  -6   0   6   12.30   11.75
   6   0  -6    1.97   11.84
   6   0  -6   20.00   13.22
   6   0  -6    1.41    9.92
  -6   0   6   38.09   13.37
  -6   0   6   24.73   12.34
  -6   0   6   17.84   11.46
  -5   0   6  342.57   31.90
   5   0  -6  413.17   38.25
  -5   0   6  373.19   29.85
   5   0  -6  406.79   35.07
  -5   0   6  402.32   35.24
   5   0  -6  347.04   32.78
  -5   0   6  422.14   36.10
   5   0  -6  430.63   38.34
  -5   0   6  433.14   32.78
   4   0  -6   99.27   18.72
   4   0  -6  107.51   19.65
   4   0  -6  113.12   20.59
   4   0  -6   70.14   15.88
  -4   0   6   71.52   16.21
  -4   0   6   97.85   16.75
  -4   0   6   73.64   16.60
  -4   0   6   72.21   14.53
   4   0  -6   80.93   15.93
  -4   0   6   81.24   17.41
   3   0  -6  113.06   18.65
   3   0  -6   98.62   17.72
  -3   0   6  135.29   19.05
   3   0  -6  135.01   17.84
  -3   0   6   94.53   17.29
  -3   0   6   91.48   17.12
   3   0  -6  103.89   16.52
  -3   0   6  108.14   16.40
   3   0  -6  124.13   17.25
   3   0  -6  142.63   18.15
  -3   0   6  115.63   16.05
   2   0  -6  136.52   18.62
  -2   0   6  193.12   18.88
  -2   0   6  138.84   18.09
   2   0  -6  171.44   20.10
   2   0  -6  139.16   18.68
   2   0  -6  115.44   16.18
   2   0  -6  127.00   16.30
   2   0  -6  162.10   16.84
  -2   0   6  130.89   16.00
   2   0  -6  157.13   17.52
  -2   0   6  113.22   17.04
  -1   0   6  201.61   20.39
  -1   0   6  247.91   22.45
  -1   0   6  234.62   20.36
   1   0  -6  232.87   19.49
   1   0  -6  193.38   20.48
   1   0  -6  217.74   20.18
   1   0  -6  239.88   22.20
   1   0  -6  225.26   21.30
  -1   0   6  246.90   22.17
  -1   0   6  225.58   19.09
   1   0  -6  206.09   18.69
   0   0  -6 1117.39   52.14
   0   0  -6 1077.38   47.73
   0   0  -6 1035.83   49.84
   0   0   6  938.52   49.80
   0   0  -6 1049.78   48.03
   0   0   6 1040.34   51.76
   0   0   6 1091.01   44.36
   0   0  -6 1190.11   51.92
   0   0   6 1132.75   50.52
   0   0   6 1112.26   48.72
   0   0  -6 1123.50   51.72
   0   0   6 1115.80   51.68
   1   0   6   95.21   12.45
  -1   0  -6  128.67   12.29
  -1   0  -6  134.74   14.08
  -1   0  -6  136.78   14.39
  -1   0  -6  125.72   12.16
   1   0   6  114.30   14.49
   1   0   6  121.67   14.84
   1   0   6  107.72   12.38
   1   0   6  149.81   16.46
  -1   0  -6  120.00   13.85
  -1   0  -6   97.95   12.48
  -1   0  -6  135.80   14.66
  -2   0  -6   -0.20    2.47
  -2   0  -6    4.89    5.01
  -2   0  -6   10.03    5.53
   2   0   6   13.82    6.82
   2   0   6    5.97    5.45
  -2   0  -6   14.52    4.96
  -2   0  -6    6.30    5.25
  -2   0  -6    4.85    3.92
  -2   0  -6    4.14    4.75
   2   0   6    5.03    5.26
   2   0   6   11.01    6.82
   2   0   6   23.44    7.63
   3   0   6 1033.26   48.82
  -3   0  -6  977.71   43.60
   3   0   6  970.55   43.39
   3   0   6 1006.76   47.32
   3   0   6  985.98   46.55
  -3   0  -6  992.71   36.78
   3   0   6  999.75   45.09
  -3   0  -6 1012.39   36.74
  -3   0  -6  940.95   43.19
   4   0   6   31.58    8.75
   4   0   6   27.19    8.26
   4   0   6   30.33    9.37
   4   0   6   19.90    7.89
   4   0   6   38.55    9.40
  -4   0  -6   30.75    7.62
   4   0   6   22.70    8.47
  -4   0  -6   28.30    7.50
   5   0   6  677.08   40.04
   5   0   6  746.06   38.05
  -5   0  -6  714.65   32.89
   5   0   6  691.51   36.03
   5   0   6  640.63   37.59
  -5   0  -6  665.50   31.76
   5   0   6  734.07   37.77
   6   0   6  522.95   32.10
   6   0   6  518.80   33.70
   6   0   6  495.05   33.33
  -6   0  -6  542.87   24.98
   6   0   6  518.06   32.22
   6   0   6  516.83   36.11
  -6   0  -6  505.87   25.17
   7   0   6  -10.10    7.54
   7   0   6  -13.71    7.21
   7   0   6   -4.04    8.48
   7  -1  -6    3.91   12.57
   7  -1  -6   -4.42   12.69
  -7   1   6    3.11   10.16
   6  -1  -6  329.32   32.45
  -6   1   6  184.23   21.52
  -6   1   6  173.91   25.88
  -6   1   6  188.55   22.45
   6  -1  -6  145.07   26.30
  -6   1   6  186.40   23.84
  -5   1   6   45.03   13.73
  -5   1   6   46.11   13.16
  -5   1   6   77.10   17.24
   5  -1  -6   61.11   16.82
   5  -1  -6   49.80   14.56
  -5   1   6   40.66   14.66
   5  -1  -6   45.63   15.78
   5  -1  -6   58.46   15.68
  -5   1   6   38.75   11.55
   4  -1  -6   27.45   12.17
  -4   1   6   16.35   10.00
  -4   1   6    1.22    5.81
   4  -1  -6   11.20    8.39
   4  -1  -6    9.85    8.96
   4  -1  -6   19.36   10.03
  -4   1   6   15.79    9.02
  -4   1   6   20.75   10.00
  -4   1   6   31.45   10.04
   4  -1  -6   19.01   10.12
   4  -1  -6   23.80   11.21
   3  -1  -6   51.14   13.37
   3  -1  -6   55.86   14.11
   3  -1  -6   44.51   13.11
   3  -1  -6   61.28   13.72
  -3   1   6   73.81   13.77
   3  -1  -6   41.48   11.51
   3  -1  -6   65.42   13.44
  -3   1   6   71.75   13.23
  -3   1   6   80.80   15.59
  -3   1   6   56.58   13.80
   2  -1  -6   27.58    9.43
   2  -1  -6   12.14    9.40
  -2   1   6   22.78    8.44
   2  -1  -6   29.88   10.42
   2  -1  -6   19.90    8.58
   2  -1  -6    8.11    7.65
   2  -1  -6   30.59    8.82
   2  -1  -6   16.00    7.55
  -2   1   6   25.63    9.47
  -2   1   6   35.05   10.79
  -2   1   6   22.52    8.28
   1  -1  -6  457.16   29.14
   1  -1  -6  471.10   27.98
  -1   1   6  364.72   25.64
   1  -1  -6  403.03   26.60
   1  -1  -6  487.22   31.25
  -1   1   6  385.37   26.70
  -1   1   6  450.03   29.80
  -1   1   6  398.33   25.41
  -1   1   6  477.31   30.84
   1  -1  -6  490.62   30.84
   0  -1  -6  651.86   36.64
   0  -1  -6  711.57   38.71
   0   1   6  649.14   34.94
   0  -1  -6  755.67   38.92
   0   1   6  667.85   38.25
   0  -1  -6  682.86   37.35
   0   1   6  671.50   37.95
   0  -1  -6  653.70   34.53
   0   1   6  753.35   37.30
   0  -1  -6  711.72   35.36
   0   1   6  700.29   38.60
   0   1   6  672.65   33.47
   1   1   6   74.44   12.88
   1   1   6   66.00   10.44
  -1  -1  -6   67.57   11.39
  -1  -1  -6   48.36   10.58
  -1  -1  -6   52.05   10.37
  -1  -1  -6   57.40   10.58
  -1  -1  -6   51.42    8.98
   1   1   6   47.52   10.91
   1   1   6   62.81   10.60
  -1  -1  -6   53.28   10.27
  -1  -1  -6   57.16    9.26
   1   1   6   38.50    9.76
  -2  -1  -6  633.81   31.30
  -2  -1  -6  538.48   28.38
   2   1   6  581.90   33.94
   2   1   6  605.41   31.50
  -2  -1  -6  662.34   33.92
  -2  -1  -6  581.11   28.82
   2   1   6  591.85   35.33
  -2  -1  -6  617.84   32.91
  -2  -1  -6  580.73   32.19
   2   1   6  605.25   33.92
  -2  -1  -6  585.92   31.25
   2   1   6  625.24   32.74
  -3  -1  -6   34.77    7.82
   3   1   6   32.11   10.13
  -3  -1  -6   27.74    8.24
   3   1   6   39.53   11.11
   3   1   6   43.67    9.89
  -3  -1  -6   30.24    8.78
   3   1   6    9.12    6.26
   3   1   6   27.58    8.29
  -3  -1  -6   29.79    5.75
  -3  -1  -6   32.54    6.24
   3   1   6   34.23    9.51
  -3  -1  -6   32.97    5.91
  -3  -1  -6   35.20    7.46
   4   1   6   95.09   14.50
   4   1   6  107.34   13.84
   4   1   6   99.84   14.18
  -4  -1  -6   96.06   12.44
   4   1   6  107.50   16.13
  -4  -1  -6  102.97    7.47
   4   1   6  121.05   15.16
   5   1   6  115.71   16.60
   5   1   6  135.58   16.76
  -5  -1  -6   94.69   12.63
   5   1   6  125.66   16.08
   5   1   6  123.53   16.24
   5   1   6  131.70   18.62
  -6  -1  -6   20.14    7.83
   6   1   6   20.61   10.45
   6   1   6    6.36    9.78
   6   1   6   14.07    9.97
   6   1   6   21.81   10.17
   7   1   6  126.01   19.78
   7   1   6  123.14   19.66
  -7  -1  -6  131.52   13.79
   7   1   6  128.93   23.19
   7  -2  -6   48.43   19.10
   7  -2  -6   39.85   18.20
  -7   2   6   88.21   17.45
   6  -2  -6  136.46   25.29
   6  -2  -6  111.60   21.67
  -6   2   6  152.58   23.96
  -6   2   6  113.98   16.82
  -6   2   6  119.79   18.98
   5  -2  -6   32.03   11.98
  -5   2   6   27.88   10.18
   5  -2  -6   11.36   10.91
   5  -2  -6   27.75   11.37
  -5   2   6   10.09   10.42
   5  -2  -6   19.72   11.56
  -5   2   6   11.27    9.87
  -5   2   6   16.91   10.24
  -5   2   6   15.64    9.67
  -4   2   6  276.64   23.54
   4  -2  -6  242.44   24.60
  -4   2   6  257.86   23.62
   4  -2  -6  321.04   27.90
  -4   2   6  257.51   25.53
  -4   2   6  285.56   26.53
   4  -2  -6  280.16   28.61
  -4   2   6  270.22   27.21
   4  -2  -6  263.26   27.73
   4  -2  -6  271.63   28.82
   4  -2  -6  358.48   27.92
  -3   2   6   52.60   11.52
   3  -2  -6   33.89   11.19
   3  -2  -6   27.81   10.74
  -3   2   6   34.20   10.17
   3  -2  -6   72.66   15.39
   3  -2  -6   60.55   13.39
  -3   2   6   25.51   10.36
   3  -2  -6   51.86   13.88
   3  -2  -6   55.65   12.67
   3  -2  -6   59.18   13.67
  -2   2   6  373.00   29.13
   2  -2  -6  417.28   27.66
  -2   2   6  447.85   28.65
   2  -2  -6  359.02   29.01
  -2   2   6  400.52   28.47
   2  -2  -6  389.55   29.69
  -2   2   6  416.99   29.45
  -2   2   6  395.85   26.58
   2  -2  -6  378.03   27.03
   2  -2  -6  429.78   30.45
   2  -2  -6  434.07   29.77
   2  -2  -6  466.27   31.16
   1  -2  -6  918.93   46.10
  -1   2   6  904.25   48.10
   1  -2  -6  977.51   48.29
   1  -2  -6 1047.77   46.87
  -1   2   6 1010.22   47.56
   1  -2  -6 1003.72   49.73
   1  -2  -6  947.43   49.51
  -1   2   6  989.59   47.46
   1  -2  -6  935.50   49.21
  -1   2   6  979.48   45.85
  -1   2   6  900.28   48.32
   0  -2  -6    4.68    5.84
   0  -2  -6   -0.68    4.20
   0   2   6   -1.86    5.16
   0  -2  -6   -0.90    5.55
   0   2   6    3.60    5.74
   0  -2  -6    0.44    4.87
   0   2   6   -0.19    4.16
   0   2   6    0.04    4.87
   0   2   6    4.32    5.50
   0  -2  -6   -1.93    3.83
   0  -2  -6    8.87    6.41
   0   2   6    0.28    4.73
   0  -2  -6    1.68    5.19
   1   2   6  272.74   20.34
  -1  -2  -6  300.98   23.39
  -1  -2  -6  238.57   20.92
   1   2   6  301.43   21.84
  -1  -2  -6  291.64   22.28
  -1  -2  -6  280.88   21.63
  -1  -2  -6  306.75   20.65
  -1  -2  -6  300.61   20.08
  -1  -2  -6  304.92   22.34
   1   2   6  284.59   23.99
   1   2   6  298.87   23.71
   1   2   6  279.54   22.35
   2   2   6    6.52    6.48
  -2  -2  -6    4.06    4.54
  -2  -2  -6    1.94    4.49
   2   2   6    4.53    6.38
   2   2   6    8.36    6.07
   2   2   6    4.41    5.83
  -2  -2  -6    5.66    5.20
  -2  -2  -6   11.88    7.33
   2   2   6    4.05    5.06
  -2  -2  -6    3.16    4.39
   2   2   6   10.38    6.85
  -2  -2  -6    5.27    5.18
  -3  -2  -6   90.18   10.66
  -3  -2  -6   71.93   12.10
  -3  -2  -6   88.66   11.42
  -3  -2  -6   78.90    9.82
   3   2   6   83.27   14.57
   3   2   6   85.59   13.34
   3   2   6   63.03   13.82
   3   2   6  101.39   13.66
  -3  -2  -6   82.47   12.48
  -3  -2  -6   96.58   12.32
   3   2   6   91.22   14.02
   4   2   6  970.53   47.10
  -4  -2  -6  866.43   36.84
  -4  -2  -6  877.05   41.26
   4   2   6  909.97   48.12
   4   2   6  853.54   49.04
  -4  -2  -6  887.57   37.50
   4   2   6  831.71   45.08
  -4  -2  -6  877.23   43.84
  -4  -2  -6  940.72   40.74
  -4  -2  -6  842.46   38.08
   4   2   6  902.55   44.78
   5   2   6  298.03   28.34
   5   2   6  320.31   26.72
   5   2   6  271.39   25.78
  -5  -2  -6  275.98   21.84
   5   2   6  318.23   26.09
   5   2   6  269.97   23.85
   6   2   6  479.66   35.97
   6   2   6  475.13   33.89
   6   2   6  370.29   35.06
   6   2   6  457.00   33.94
  -6  -2  -6  491.55   30.40
   7   2   6  125.07   23.82
   7   2   6  165.20   23.05
  -7  -2  -6  140.59   17.43
  -7   3   6  164.40   18.76
   7  -3  -6  134.54   25.21
   7  -3  -6  168.85   29.91
  -6   3   6   -1.90    7.48
   6  -3  -6    7.54   10.71
   6  -3  -6   17.06   11.65
  -6   3   6   -4.26    8.25
  -5   3   6  258.76   23.58
  -5   3   6  215.50   21.70
   5  -3  -6  240.99   30.98
   5  -3  -6  217.62   27.88
   5  -3  -6  290.80   27.86
  -5   3   6  281.48   25.74
   5  -3  -6  279.82   27.91
   4  -3  -6   62.47   14.24
  -4   3   6   93.33   16.52
   4  -3  -6   60.66   14.64
  -4   3   6   64.67   12.75
  -4   3   6   88.82   14.63
   4  -3  -6   56.96   14.68
   4  -3  -6   44.18   14.61
   4  -3  -6   72.10   16.41
  -4   3   6   47.93   13.01
   4  -3  -6   53.14   14.80
   4  -3  -6   35.39   12.59
  -3   3   6   79.40   14.96
   3  -3  -6   71.68   14.16
   3  -3  -6   98.37   16.14
   3  -3  -6  100.60   17.65
   3  -3  -6   91.07   17.34
   3  -3  -6  108.49   16.04
  -3   3   6   88.94   13.79
  -3   3   6   58.13   12.78
   3  -3  -6   80.04   16.86
   3  -3  -6   83.47   16.34
  -2   3   6  137.33   17.68
   2  -3  -6  124.99   18.05
   2  -3  -6  140.07   16.66
  -2   3   6  100.77   16.49
   2  -3  -6  104.24   16.63
  -2   3   6  169.66   17.07
  -2   3   6  134.32   16.29
   2  -3  -6  138.16   17.84
   2  -3  -6  130.68   16.11
   2  -3  -6  111.32   17.51
  -2   3   6  128.91   17.17
   1  -3  -6  306.18   24.70
  -1   3   6  355.12   24.26
   1  -3  -6  326.57   23.91
  -1   3   6  339.73   25.95
  -1   3   6  336.30   25.75
   1  -3  -6  326.45   25.95
   1  -3  -6  353.86   24.03
   1  -3  -6  356.55   27.68
  -1   3   6  340.78   24.40
   1  -3  -6  334.47   25.65
  -1   3   6  349.99   26.25
   0   3   6  394.28   27.81
   0   3   6  385.64   26.46
   0  -3  -6  421.15   26.13
   0   3   6  382.73   25.92
   0  -3  -6  379.76   28.66
   0  -3  -6  437.60   28.41
   0   3   6  433.57   29.88
   0  -3  -6  427.98   29.13
   0  -3  -6  441.00   28.87
   0  -3  -6  403.78   26.41
   0   3   6  380.03   27.97
   1   3   6  594.59   34.78
   1   3   6  557.30   36.90
   1   3   6  676.33   37.51
  -1  -3  -6  666.17   34.74
  -1  -3  -6  659.65   36.51
  -1  -3  -6  591.50   32.54
   1   3   6  652.08   34.90
  -1  -3  -6  665.47   36.77
  -1  -3  -6  556.50   36.28
   1   3   6  640.28   37.88
   2   3   6   63.30   12.22
   2   3   6   63.28   13.51
   2   3   6   56.66   11.90
  -2  -3  -6   66.86   10.77
   2   3   6   83.20   13.47
  -2  -3  -6   52.10   12.39
  -2  -3  -6   56.02   11.47
   2   3   6   54.55   12.75
  -2  -3  -6   57.41   11.38
  -2  -3  -6   68.09   10.83
  -2  -3  -6   59.32   11.54
  -3  -3  -6  850.53   46.44
  -3  -3  -6  912.21   45.75
   3   3   6  955.17   51.40
   3   3   6 1001.52   50.81
   3   3   6  884.50   45.38
   3   3   6  960.85   48.36
  -3  -3  -6  914.81   46.62
   3   3   6  844.16   45.76
  -3  -3  -6  918.78   44.93
  -3  -3  -6  943.59   42.65
  -3  -3  -6  911.94   42.88
  -4  -3  -6   25.77    7.70
  -4  -3  -6   12.86    8.22
   4   3   6   34.20   10.92
   4   3   6   24.65    9.64
  -4  -3  -6   19.77    7.39
   4   3   6   15.02    9.41
  -4  -3  -6   24.70    8.91
   4   3   6   35.02   11.92
  -4  -3  -6   22.78    7.83
  -4  -3  -6   20.84    9.04
   4   3   6   15.71    8.87
  -5  -3  -6   10.89    6.29
   5   3   6   14.35   10.14
   5   3   6    8.56    8.56
   5   3   6    4.64    7.78
  -5  -3  -6    7.24    4.91
   5   3   6   21.14   11.15
   5   3   6   14.05    8.74
  -5  -3  -6   11.27    8.05
  -5  -3  -6   17.08    6.19
   6   3   6  182.76   23.57
   6   3   6  133.27   23.69
   6   3   6  224.04   25.39
  -6  -3  -6  151.40   19.03
   6   3   6  184.80   24.78
  -6  -3  -6  168.90   10.90
  -7  -3  -6   11.27    9.79
   7   3   6   19.77   13.80
   7   3   6    4.55   11.31
   7  -4  -6    6.06   12.66
  -7   4   6   16.70    7.93
   6  -4  -6   32.63   14.26
  -6   4   6   22.64   10.08
   6  -4  -6   26.47   14.82
   6  -4  -6   11.18   11.87
   5  -4  -6   81.38   18.10
   5  -4  -6  125.86   22.09
   5  -4  -6  103.34   18.66
  -5   4   6  111.40   16.57
   5  -4  -6  107.22   18.99
  -5   4   6   86.03   14.69
   5  -4  -6   75.20   18.52
   5  -4  -6  109.57   24.08
  -5   4   6   94.75   14.09
  -4   4   6   30.40    9.77
  -4   4   6   11.83    9.34
   4  -4  -6   13.59    9.08
   4  -4  -6   42.58   12.17
  -4   4   6   18.55    8.96
   4  -4  -6   13.60   10.11
   4  -4  -6   20.08   10.44
   4  -4  -6    8.94    8.91
  -4   4   6   23.40   10.38
   4  -4  -6   32.79   12.49
   4  -4  -6   15.23   12.22
   3  -4  -6  635.78   40.41
  -3   4   6  626.32   36.31
  -3   4   6  674.85   40.12
   3  -4  -6  655.62   39.21
   3  -4  -6  666.02   43.20
  -3   4   6  670.35   44.02
  -3   4   6  692.26   38.70
   3  -4  -6  638.17   41.67
   3  -4  -6  707.10   43.87
   3  -4  -6  668.50   38.82
   2  -4  -6  122.10   18.49
  -2   4   6  154.98   18.72
  -2   4   6  154.16   17.07
   2  -4  -6  109.72   17.76
  -2   4   6  113.64   18.20
   2  -4  -6  142.72   18.33
   2  -4  -6  172.79   18.02
  -2   4   6  161.07   18.84
   2  -4  -6  157.81   17.99
  -2   4   6  152.28   17.50
   2  -4  -6  127.00   17.86
   2  -4  -6  147.88   19.11
   1  -4  -6  408.52   27.41
  -1   4   6  473.47   31.59
  -1   4   6  405.28   28.29
  -1   4   6  411.31   29.11
  -1   4   6  426.64   31.21
   1  -4  -6  422.16   31.43
  -1   4   6  420.79   30.18
   1  -4  -6  395.98   29.22
   1  -4  -6  423.60   30.41
  -1   4   6  396.80   26.92
   1  -4  -6  414.74   28.38
   1  -4  -6  439.38   30.25
   0  -4  -6  444.59   27.53
   0  -4  -6  467.84   29.98
   0  -4  -6  414.05   27.05
   0   4   6  406.46   27.08
   0  -4  -6  365.15   28.59
   0  -4  -6  335.87   27.18
   0   4   6  391.82   29.01
   0   4   6  369.49   28.98
   0   4   6  373.25   27.94
   0  -4  -6  424.32   30.76
   0   4   6  440.19   28.62
   1   4   6    8.80    6.77
   1   4   6   10.19    8.02
  -1  -4  -6   20.55    7.59
  -1  -4  -6   20.40    8.48
   1   4   6   12.94    7.33
  -1  -4  -6   15.64    7.60
  -1  -4  -6   24.52    8.81
  -1  -4  -6    4.44    5.49
   1   4   6   12.33    8.23
  -1  -4  -6   25.97    8.37
   1   4   6    7.76    7.58
   2   4   6  681.48   44.21
   2   4   6  761.47   43.01
   2   4   6  761.73   42.05
   2   4   6  773.03   44.80
  -2  -4  -6  753.23   41.80
  -2  -4  -6  753.82   44.06
  -2  -4  -6  720.89   38.96
   2   4   6  736.39   40.44
  -2  -4  -6  796.15   39.35
  -2  -4  -6  766.01   41.73
  -3  -4  -6  269.71   23.51
   3   4   6  300.15   27.07
   3   4   6  248.80   23.30
  -3  -4  -6  278.04   25.67
   3   4   6  265.02   24.84
  -3  -4  -6  316.25   24.49
   3   4   6  273.94   24.54
  -3  -4  -6  304.17   22.17
   3   4   6  287.95   27.68
  -3  -4  -6  324.69   25.58
  -3  -4  -6  260.31   21.29
   4   4   6  345.87   31.95
  -4  -4  -6  345.98   25.87
  -4  -4  -6  369.25   27.03
   4   4   6  375.31   29.00
   4   4   6  289.19   27.93
   4   4   6  346.76   30.91
  -4  -4  -6  366.16   28.22
   4   4   6  368.72   30.43
  -4  -4  -6  369.05   24.93
  -4  -4  -6  329.48   28.37
  -5  -4  -6  239.38   19.56
   5   4   6  223.97   27.82
  -5  -4  -6  244.95   22.21
  -5  -4  -6  257.56   21.34
   5   4   6  242.12   26.42
   5   4   6  227.08   25.15
  -5  -4  -6  192.22   22.10
   5   4   6  226.15   26.29
   6   4   6   11.91   12.00
  -6  -4  -6   30.14   12.08
   6   4   6   38.71   14.61
  -6  -4  -6   20.86    7.70
  -6  -4  -6    3.09    6.26
  -6  -4  -6   16.53    7.76
   6   4   6   23.70   12.85
   6   4   6   12.23   10.65
  -7  -4  -6  342.04   30.35
   7   4   6  360.58   35.70
   7   4   6  327.10   36.20
   7   4   6  347.27   39.34
   6  -5  -6   41.95   14.88
   6  -5  -6    9.90   12.17
  -6   5   6   26.41    9.07
   6  -5  -6   34.05   16.67
   5  -5  -6    7.26    9.67
  -5   5   6   -0.88    7.11
   5  -5  -6   -5.27   11.35
  -5   5   6   -4.43    6.30
   5  -5  -6   -6.12    7.39
   5  -5  -6   -4.13    8.71
   5  -5  -6   -3.74    7.07
  -5   5   6   -1.00    6.79
   5  -5  -6    0.03    8.90
   5  -5  -6   -6.86    8.75
  -4   5   6  452.52   29.08
   4  -5  -6  392.84   30.78
  -4   5   6  412.08   27.18
  -4   5   6  340.12   27.79
   4  -5  -6  414.64   31.89
   4  -5  -6  374.01   34.53
   4  -5  -6  399.63   34.46
   4  -5  -6  385.50   32.63
   4  -5  -6  418.04   35.66
   4  -5  -6  380.29   31.86
   3  -5  -6  131.39   17.93
  -3   5   6  145.76   17.68
   3  -5  -6  127.55   19.37
   3  -5  -6  154.03   22.02
   3  -5  -6  161.00   20.68
   3  -5  -6  156.13   21.03
   3  -5  -6  149.01   21.11
  -3   5   6  156.56   17.51
  -3   5   6  156.66   23.26
   3  -5  -6  158.30   19.60
   2  -5  -6   33.68   11.48
   2  -5  -6   16.78    8.96
  -2   5   6   40.75   12.95
   2  -5  -6   34.30   12.39
   2  -5  -6   20.35   10.23
  -2   5   6   12.98    7.86
   2  -5  -6   33.45   11.22
  -2   5   6   21.52    9.98
  -2   5   6   33.16   10.36
   2  -5  -6   13.19    7.75
   2  -5  -6   22.56    9.91
   1  -5  -6    4.15    6.69
  -1   5   6    9.28    7.25
   1  -5  -6   13.01    8.19
   1  -5  -6    2.20    6.22
  -1   5   6    4.67    7.25
  -1   5   6    6.24    7.64
  -1   5   6    5.22    6.50
   1  -5  -6    1.88    6.97
   1  -5  -6    2.69    5.61
   1  -5  -6    4.30    6.04
   1  -5  -6    1.13    6.07
  -1   5   6   -3.08    5.84
   0  -5  -6  139.11   17.79
   0   5   6  120.95   15.72
   0   5   6  100.89   15.26
   0   5   6   86.27   16.14
   0  -5  -6  129.77   18.94
   0  -5  -6  113.43   15.39
   0   5   6  101.49   16.95
   0  -5  -6  160.65   19.49
   0  -5  -6  124.44   17.29
   0  -5  -6   94.13   14.69
  -1  -5  -6  806.27   43.92
   1   5   6  820.44   47.30
  -1  -5  -6  851.23   43.64
  -1  -5  -6  706.06   43.84
   1   5   6  786.51   43.76
   1   5   6  872.51   50.08
  -1  -5  -6  904.33   50.79
   1   5   6  859.65   45.76
   1   5   6  807.64   46.62
  -1  -5  -6  919.27   47.58
  -1  -5  -6  869.17   47.17
  -2  -5  -6   85.13   14.88
  -2  -5  -6   48.90   11.44
  -2  -5  -6   94.20   17.08
  -2  -5  -6   42.67   11.61
   2   5   6   96.20   15.64
  -2  -5  -6   95.54   14.35
   2   5   6   60.03   16.01
  -2  -5  -6   37.61   12.15
   2   5   6   63.51   14.69
   2   5   6   39.16   11.36
   2   5   6   58.24   14.17
   3   5   6   27.62   10.97
   3   5   6   34.07   11.24
  -3  -5  -6   19.74    8.12
  -3  -5  -6   17.35    8.45
  -3  -5  -6   13.72    9.35
   3   5   6   28.42   11.57
   3   5   6   26.72   11.20
  -3  -5  -6   13.99    8.30
   3   5   6   11.81    8.16
  -3  -5  -6   29.36   11.41
  -4  -5  -6  417.69   31.82
   4   5   6  450.12   38.80
   4   5   6  539.06   38.33
   4   5   6  464.74   37.14
  -4  -5  -6  453.40   33.31
   4   5   6  524.71   37.41
  -4  -5  -6  499.07   35.13
  -4  -5  -6  514.52   37.58
   4   5   6  537.30   36.72
  -4  -5  -6  455.86   31.30
   5   5   6   -0.07    8.62
  -5  -5  -6   -3.49    6.71
   5   5   6    6.44   11.02
  -5  -5  -6   -0.28    7.36
  -5  -5  -6   -1.23    6.07
   5   5   6   -7.53    7.31
   5   5   6   -0.29    7.87
  -5  -5  -6    3.59    8.74
  -6  -5  -6  226.40   26.63
   6   5   6  281.03   30.73
   6   5   6  249.99   33.41
  -6  -5  -6  237.47   21.76
   6   5   6  242.28   30.89
  -6  -5  -6  268.54   22.87
  -7  -5  -6   46.70   10.85
   7   5   6   50.29   19.57
   7   5   6   58.36   19.98
   7   5   6   55.95   21.04
   6  -6  -6   14.88   13.69
   6  -6  -6   51.02   16.13
   6  -6  -6   28.99   15.48
   5  -6  -6   44.23   14.71
   5  -6  -6   36.87   14.68
  -5   6   6   38.00    9.78
  -5   6   6   43.05   10.24
   5  -6  -6   24.09   13.07
   5  -6  -6   18.45   12.81
   5  -6  -6   27.73   12.04
   5  -6  -6   44.58   14.92
  -5   6   6   44.83   10.87
   4  -6  -6    3.17    8.99
   4  -6  -6   -1.09    7.55
   4  -6  -6    1.12    8.03
  -4   6   6   -1.44    6.86
   4  -6  -6    0.52    8.63
   4  -6  -6    7.82    9.16
  -4   6   6   -3.07    6.26
  -4   6   6   10.52    8.04
   4  -6  -6   -0.29    7.44
  -3   6   6   51.71   12.14
   3  -6  -6   65.09   15.43
   3  -6  -6   32.49   12.89
   3  -6  -6   57.97   16.03
  -3   6   6   45.29   11.83
   3  -6  -6   51.15   14.05
   3  -6  -6   49.84   13.64
   3  -6  -6   45.58   12.71
  -3   6   6   31.51   13.55
   3  -6  -6   75.61   14.83
   2  -6  -6  163.06   19.46
   2  -6  -6  186.50   22.18
   2  -6  -6  149.78   22.27
   2  -6  -6  189.35   20.73
  -2   6   6  117.18   21.21
   2  -6  -6  175.85   21.71
  -2   6   6  175.95   19.16
   2  -6  -6  174.92   21.42
  -2   6   6  147.76   18.36
  -2   6   6  146.03   19.50
   2  -6  -6  145.89   20.68
   1  -6  -6  113.72   16.93
   1  -6  -6  108.53   17.63
  -1   6   6   85.33   15.45
  -1   6   6   85.90   15.91
   1  -6  -6  131.99   17.10
   1  -6  -6  104.38   17.15
  -1   6   6  127.73   16.51
  -1   6   6   92.39   16.77
   1  -6  -6  140.97   20.05
   1  -6  -6  120.83   19.63
  -1   6   6   98.16   19.19
   0   6   6  841.91   49.49
   0  -6  -6  848.96   51.81
   0   6   6  793.15   46.17
   0  -6  -6  914.43   47.97
   0  -6  -6  843.12   48.68
   0   6   6  896.63   50.02
   0  -6  -6  931.46   47.31
   0  -6  -6  893.74   50.90
   0   6   6  921.23   51.80
   0  -6  -6  885.83   48.64
   0   6   6  871.73   46.28
  -1  -6  -6   45.38   12.62
   1   6   6   12.61    8.71
   1   6   6   49.64   13.75
   1   6   6   54.86   14.03
  -1  -6  -6   65.71   14.69
  -1  -6  -6   63.04   13.09
  -1  -6  -6   64.98   14.31
   1   6   6   57.52   13.67
  -1  -6  -6   38.98   13.12
   1   6   6   74.98   15.13
  -1  -6  -6   39.85   11.66
   2   6   6  142.73   20.40
   2   6   6  136.43   20.77
  -2  -6  -6  138.88   20.07
  -2  -6  -6  106.89   17.59
   2   6   6   81.87   18.23
  -2  -6  -6   98.34   19.27
   2   6   6  161.74   20.65
   2   6   6  119.05   18.51
  -2  -6  -6  105.93   17.30
  -2  -6  -6  137.97   18.14
   3   6   6   -1.39    7.34
  -3  -6  -6    4.64    8.67
   3   6   6    2.93    7.99
   3   6   6    5.14    8.93
  -3  -6  -6   -4.56    7.28
  -3  -6  -6    4.26    7.27
  -3  -6  -6   -1.69    5.99
   3   6   6    4.06    7.72
  -3  -6  -6    0.61    6.23
   3   6   6    3.00    9.09
   4   6   6  363.38   37.16
   4   6   6  401.46   35.78
   4   6   6  333.64   32.18
   4   6   6  375.24   34.45
  -4  -6  -6  364.52   31.99
  -4  -6  -6  344.37   30.51
  -4  -6  -6  392.63   29.84
  -4  -6  -6  431.26   33.04
  -4  -6  -6  397.01   36.00
   4   6   6  350.93   34.46
  -5  -6  -6  572.54   36.78
   5   6   6  491.90   39.93
   5   6   6  533.43   42.95
  -5  -6  -6  448.75   35.67
   5   6   6  537.96   41.61
  -5  -6  -6  571.05   39.39
  -5  -6  -6  520.54   39.60
   5   6   6  572.82   46.30
  -6  -6  -6  100.75   16.86
   6   6   6  115.12   25.28
   6   6   6  126.91   24.16
   6   6   6   81.90   22.76
   7   6   6    5.67   14.79
   6  -7  -6   77.83   20.89
   5  -7  -6  268.84   32.98
  -5   7   6  307.94   21.34
   5  -7  -6  359.87   33.81
   5  -7  -6  382.32   33.60
   5  -7  -6  336.13   34.22
   4  -7  -6  120.81   21.35
  -4   7   6  106.18   14.66
  -4   7   6   64.42   12.33
   4  -7  -6   82.09   17.88
   4  -7  -6  114.08   20.33
  -4   7   6  125.35   16.36
   4  -7  -6   91.77   18.22
  -4   7   6   98.35   22.94
   4  -7  -6  100.12   21.08
   4  -7  -6  106.06   20.17
  -3   7   6   11.88    9.03
   3  -7  -6   15.47   11.05
   3  -7  -6    5.81    8.86
  -3   7   6   23.56   12.40
  -3   7   6   11.85    8.63
   3  -7  -6   20.71   10.72
   3  -7  -6   21.33    9.71
   3  -7  -6    4.60    9.24
   3  -7  -6   10.13   10.05
   2  -7  -6  282.18   28.69
   2  -7  -6  233.66   26.02
   2  -7  -6  308.45   27.06
   2  -7  -6  233.02   25.54
  -2   7   6  291.02   25.26
  -2   7   6  262.79   30.50
  -2   7   6  246.63   25.02
   2  -7  -6  239.49   24.42
   2  -7  -6  277.31   30.08
   2  -7  -6  300.79   29.68
  -2   7   6  277.76   23.93
   1  -7  -6   89.43   19.09
   1  -7  -6  108.50   18.75
   1  -7  -6  102.51   19.30
   1  -7  -6  124.69   18.10
  -1   7   6  104.07   17.91
  -1   7   6  130.40   17.87
  -1   7   6  103.02   20.57
  -1   7   6  121.06   19.50
   1  -7  -6   89.00   16.14
   1  -7  -6  101.11   17.52
  -1   7   6  123.28   18.17
   0  -7  -6 1165.18   59.85
   0   7   6 1068.83   57.83
   0  -7  -6 1066.12   62.51
   0   7   6 1053.12   59.75
   0   7   6 1144.47   60.65
   0  -7  -6 1072.04   57.24
   0   7   6 1126.57   61.45
   0  -7  -6 1249.82   63.17
   0  -7  -6 1167.34   60.97
   0  -7  -6 1238.41   58.81
   0   7   6 1090.63   56.65
   1   7   6   77.33   18.05
  -1  -7  -6   83.29   19.12
   1   7   6   97.66   18.51
  -1  -7  -6   78.41   15.75
  -1  -7  -6   95.03   18.16
   1   7   6   73.75   16.08
  -1  -7  -6   61.91   15.03
   1   7   6   75.35   17.38
   1   7   6   66.31   15.45
  -1  -7  -6   73.87   16.01
   2   7   6    6.33    9.79
   2   7   6   22.08   11.92
  -2  -7  -6   39.40   12.64
  -2  -7  -6   15.46   10.11
   2   7   6   54.33   14.59
   2   7   6   35.32   14.49
  -2  -7  -6   31.77   10.92
   2   7   6   38.00   12.74
  -2  -7  -6   47.13   13.93
  -2  -7  -6   35.61   14.28
   3   7   6    4.93    9.77
   3   7   6    0.39    8.03
  -3  -7  -6   -2.77    6.44
  -3  -7  -6   28.54   13.65
   3   7   6   -1.07    8.04
   3   7   6    1.03    8.76
  -3  -7  -6    3.61    9.10
  -3  -7  -6   -0.90    7.52
   3   7   6    2.57    9.41
  -3  -7  -6    3.56    6.68
   4   7   6   55.54   17.23
   4   7   6   67.05   19.32
   4   7   6   71.74   18.23
  -4  -7  -6   63.34   19.31
   4   7   6   59.13   17.86
  -4  -7  -6   88.91   18.52
  -4  -7  -6   72.18   17.45
  -4  -7  -6   48.63   13.90
   5   7   6  326.69   38.87
  -5  -7  -6  419.83   36.07
   5   7   6  350.11   35.63
  -5  -7  -6  405.94   33.51
  -5  -7  -6  406.51   36.74
  -5  -7  -6  360.52   34.49
   5   7   6  377.94   38.74
   6   7   6   21.08   14.21
   6   7   6    5.46   13.26
  -6  -7  -6   23.06   12.00
   6   7   6   41.94   18.52
   5  -8  -6    0.92   10.20
   5  -8  -6   10.54   12.24
   5  -8  -6   10.15   11.67
   4  -8  -6  354.39   33.28
   4  -8  -6  363.64   32.64
  -4   8   6  324.11   24.73
  -4   8   6  352.22   40.28
  -4   8   6  318.84   23.67
   4  -8  -6  362.83   36.87
   4  -8  -6  335.10   33.90
  -4   8   6  321.55   22.96
   3  -8  -6   15.24   12.12
   3  -8  -6    3.12    9.97
   3  -8  -6    2.65    7.70
   3  -8  -6   -8.60    7.49
  -3   8   6    4.87    8.12
   3  -8  -6   19.00   11.84
  -3   8   6   -5.60    8.08
   3  -8  -6   -0.11    7.64
  -3   8   6   -4.16    6.94
   2  -8  -6   20.60   10.36
   2  -8  -6    9.51    8.54
  -2   8   6   18.87    9.96
  -2   8   6   -0.07    7.94
   2  -8  -6    2.56    9.11
   2  -8  -6    1.80    9.15
   2  -8  -6    7.21    9.16
  -2   8   6   -1.40    7.67
  -2   8   6   -4.09    8.49
   1  -8  -6  176.43   24.98
   1  -8  -6  201.90   24.94
  -1   8   6  211.21   22.76
  -1   8   6  164.09   26.87
   1  -8  -6  193.63   26.66
  -1   8   6  198.17   23.73
  -1   8   6  219.04   23.76
  -1   8   6  222.37   25.95
   1  -8  -6  184.22   22.80
   1  -8  -6  220.90   24.98
   0   8   6    6.74    9.60
   0  -8  -6   37.64   14.78
   0   8   6   17.21   10.39
   0   8   6   17.86    9.71
   0   8   6    7.99    8.88
   0  -8  -6   29.28   10.89
   0  -8  -6   10.43    8.90
   0  -8  -6   23.70   11.52
   0   8   6   15.79   10.15
   0  -8  -6   19.96   10.35
  -1  -8  -6  205.31   24.36
  -1  -8  -6  226.40   26.30
   1   8   6  253.05   28.75
   1   8   6  267.85   27.90
  -1  -8  -6  297.22   30.42
  -1  -8  -6  225.69   26.47
   1   8   6  223.72   27.16
   1   8   6  209.95   27.51
   1   8   6  243.88   26.02
  -1  -8  -6  275.76   31.63
   2   8   6  291.79   31.65
   2   8   6  280.27   29.24
  -2  -8  -6  336.78   31.47
   2   8   6  290.72   31.77
   2   8   6  281.50   31.16
  -2  -8  -6  274.77   30.28
  -2  -8  -6  311.29   29.57
  -2  -8  -6  271.98   33.02
   3   8   6   32.98   15.26
  -3  -8  -6   22.35   14.38
   3   8   6   65.15   19.17
  -3  -8  -6   56.95   15.32
  -3  -8  -6   37.13   14.76
  -3  -8  -6   15.38   10.70
   3   8   6   38.32   17.32
  -3  -8  -6   41.69   14.33
   3   8   6   50.49   16.16
   3   8   6   62.95   16.88
  -4  -8  -6  307.96   30.90
  -4  -8  -6  341.18   34.25
   4   8   6  311.35   33.25
   4   8   6  283.65   34.89
  -4  -8  -6  291.56   35.87
   4   8   6  282.52   36.10
  -4  -8  -6  370.70   35.29
   4   8   6  367.14   37.64
  -4  -8  -6  309.02   32.65
   5   8   6   -5.75    8.98
   5   8   6    5.46   12.75
  -5  -8  -6   -5.91   11.75
  -5  -8  -6    3.03    9.00
   5   8   6   -3.29   11.01
  -6  -8  -6   21.37   12.95
   6   8   6    8.60   13.85
   6   8   6   -5.54   11.94
   5  -9  -6   19.11   13.46
  -4   9   6  177.71   16.61
   4  -9  -6  158.80   26.42
   4  -9  -6  119.76   25.61
   4  -9  -6  159.31   23.90
  -3   9   6  323.48   26.55
   3  -9  -6  359.87   33.24
   3  -9  -6  325.39   36.69
   3  -9  -6  350.65   32.89
  -3   9   6  323.84   38.97
  -3   9   6  349.89   26.11
   3  -9  -6  371.04   35.59
   2  -9  -6  358.42   35.17
   2  -9  -6  418.65   35.30
   2  -9  -6  490.79   42.73
  -2   9   6  406.99   31.92
  -2   9   6  490.07   45.30
   2  -9  -6  464.95   37.52
  -2   9   6  442.09   32.24
  -2   9   6  434.32   33.67
  -1   9   6  291.18   30.50
   1  -9  -6  281.06   30.21
   1  -9  -6  247.07   28.06
  -1   9   6  291.63   28.44
  -1   9   6  222.96   32.42
  -1   9   6  314.18   29.85
   1  -9  -6  281.41   28.77
   1  -9  -6  361.41   36.20
  -1   9   6  304.57   27.87
   0   9   6   29.99   13.44
   0  -9  -6   10.54    9.25
   0   9   6   10.30   11.26
   0   9   6   19.70   11.84
   0  -9  -6   10.49   10.22
   0   9   6   -3.49    7.00
   0  -9  -6   -1.04   10.36
   0   9   6   32.78   13.06
   0  -9  -6   31.57   12.43
   1   9   6   60.19   17.74
  -1  -9  -6   47.36   15.07
   1   9   6   45.66   15.53
   1   9   6   62.19   16.73
   1   9   6   21.09   12.87
  -1  -9  -6   36.69   12.75
  -1  -9  -6   98.30   19.86
  -1  -9  -6   60.41   18.89
   1   9   6   72.05   19.61
  -1  -9  -6   46.71   17.29
   2   9   6   25.93   14.42
   2   9   6   11.89   13.18
   2   9   6    4.81   10.02
  -2  -9  -6    1.15    9.16
  -2  -9  -6   15.92   13.20
  -2  -9  -6   13.25   10.39
  -2  -9  -6   17.00   14.17
   2   9   6   15.79   12.67
   2   9   6    7.70   10.25
  -2  -9  -6    8.84    9.82
  -3  -9  -6  310.81   34.48
   3   9   6  342.02   37.22
   3   9   6  328.72   37.44
   3   9   6  270.55   31.56
  -3  -9  -6  338.47   36.81
  -3  -9  -6  341.82   34.51
   3   9   6  365.97   40.52
  -3  -9  -6  349.31   33.78
   4   9   6  265.91   35.68
  -4  -9  -6  214.07   31.04
   4   9   6  278.49   33.05
  -4  -9  -6  276.77   31.22
  -5  -9  -6   80.32   20.12
   5   9   6   92.19   25.22
   5   9   6   82.48   21.49
   4 -10  -6   12.00   13.20
   3 -10  -6   96.54   23.72
   3 -10  -6  147.25   23.75
   3 -10  -6  138.93   25.12
   3 -10  -6   93.52   21.51
   2 -10  -6   51.84   16.83
   2 -10  -6   41.24   16.03
  -2  10   6   71.37   22.68
   2 -10  -6   33.50   16.20
  -2  10   6   20.72   11.29
  -2  10   6   35.21   13.16
   2 -10  -6   40.23   15.09
   1 -10  -6   26.93   13.66
   1 -10  -6   14.12   11.54
   1 -10  -6   42.79   17.60
  -1  10   6   -0.70   11.15
  -1  10   6    2.71   12.52
  -1  10   6   14.15   11.68
   1 -10  -6   21.58   13.23
  -1  10   6   20.54   12.18
  -1  10   6   15.46   11.56
  -1  10   6   18.10   12.33
   0  10   6   91.38   21.08
   0 -10  -6  114.43   24.39
   0  10   6  103.31   20.78
   0  10   6   59.12   17.88
   0 -10  -6   78.68   19.58
   0  10   6   45.97   14.71
   0  10   6  107.16   21.09
   0 -10  -6  110.43   21.41
   0 -10  -6   81.72   20.19
   1  10   6   28.57   15.71
   1  10   6   28.62   14.58
  -1 -10  -6   13.74   12.05
   1  10   6   17.45   12.70
   1  10   6   41.48   16.75
  -1 -10  -6   26.99   13.90
  -1 -10  -6   27.99   13.69
   1  10   6   20.65   13.86
   2  10   6  158.40   27.51
   2  10   6   81.89   22.10
   2  10   6  169.85   27.78
  -2 -10  -6  132.72   24.08
  -2 -10  -6  130.64   24.98
  -2 -10  -6   95.15   21.68
   2  10   6  120.84   22.47
   3  10   6  161.09   26.80
   3  10   6  152.69   28.73
   3  10   6  169.72   30.06
  -3 -10  -6  184.56   28.00
  -4 -10  -6  122.34   24.57
   4  10   6   88.29   22.60
   4  10   6  100.70   26.08
   3 -11  -6   56.24   19.26
   3 -11  -6   27.77   16.22
   2 -11  -6    6.64   13.21
   2 -11  -6    6.98   11.26
   2 -11  -6    6.88   12.25
  -2  11   6    6.66    9.72
   1 -11  -6  264.40   32.85
   1 -11  -6  226.09   29.73
   1 -11  -6  218.19   30.73
  -1  11   6  263.98   29.21
  -1  11   6  187.79   23.86
  -1  11   6  230.99   31.78
   0  11   6   -2.50   12.00
   0 -11  -6   -0.20   10.16
   0  11   6   19.26   13.05
   0 -11  -6   -0.36   11.03
   0 -11  -6   12.57   11.81
   0  11   6   28.22   13.41
   1  11   6  273.11   31.01
  -1 -11  -6  226.75   31.86
  -1 -11  -6  267.00   32.83
   1  11   6  242.66   31.58
   1  11   6  255.84   32.58
   1  11   6  266.29   34.53
  -1 -11  -6  312.71   35.75
   2  11   6  101.07   24.95
   2  11   6   71.17   21.24
   2  11   6  104.53   22.31
   2  11   6  135.93   26.82
  -2 -11  -6  126.68   25.14
   3  11   6   11.46   13.89
   3  11   6   -1.86   12.12
  -3 -11  -6   -3.72   11.02
   1 -12  -6   94.22   22.47
   1 -12  -6   78.98   21.99
  -1  12   6   88.21   24.46
   1 -12  -6   47.34   19.87
  -1  12   6  111.24   22.33
   0 -12  -6   42.38   18.00
   0  12   6   36.06   16.59
   0 -12  -6   29.88   18.07
   0  12   6   72.19   19.84
   0  12   6   53.64   20.08
   1  12   6   69.43   20.25
   1  12   6  100.79   25.60
  -1 -12  -6   90.13   23.58
   1  12   6   86.21   22.73
  -1  -9   7   65.85   20.71
   0  -9   7   78.16   19.79
   0   9  -7   70.73   11.24
   1  -9   7   52.09   16.59
   1  -9   7   48.10   17.71
   2  -9   7    6.87   10.61
  -3  -8   7    9.22   12.78
  -2  -8   7  112.44   25.64
   2   8  -7   84.36   21.68
   2   8  -7   74.88   19.28
  -2  -8   7  115.58   24.53
  -2  -8   7   93.79   24.22
   1   8  -7   34.19   13.71
  -1  -8   7   34.21   14.87
  -1  -8   7   17.98   15.22
  -1  -8   7   15.19   13.72
   1   8  -7    8.97    9.99
   0  -8   7   31.82   15.99
   0  -8   7   23.54   15.11
   0   8  -7   57.06   15.49
   0   8  -7   34.95   10.36
   0  -8   7   17.49   12.03
   1  -8   7  229.47   30.33
   1  -8   7  253.44   27.51
   2  -8   7    8.29   10.18
   2  -8   7   10.75   10.99
   3  -8   7   84.24   16.46
   3  -8   7   64.20   16.32
  -4  -7   7    9.81   13.03
  -3  -7   7  182.34   29.09
   3   7  -7  139.73   25.98
  -3  -7   7   95.44   24.14
  -3  -7   7  117.15   25.94
   3   7  -7  143.10   25.03
  -2  -7   7   92.39   21.28
  -2  -7   7   73.31   21.65
  -2  -7   7   69.29   19.38
   2   7  -7   96.56   19.67
   2   7  -7  113.73   22.21
   1   7  -7   60.37   16.66
   1   7  -7   29.81   11.66
  -1  -7   7   63.56   19.40
  -1  -7   7   34.56   15.89
  -1  -7   7   56.49   17.24
  -1  -7   7   51.21   17.05
   0  -7   7  307.46   31.20
   0   7  -7  252.38   21.20
   0  -7   7  301.72   30.35
   0  -7   7  305.28   33.19
   0  -7   7  216.14   26.04
   0   7  -7  238.09   25.65
   1  -7   7    8.66   11.46
  -1   7  -7   18.95    9.78
   1  -7   7   13.07   10.66
   1  -7   7   15.98   11.32
   1  -7   7   26.17   12.83
   2  -7   7  200.94   23.96
  -2   7  -7  220.39   18.70
   2  -7   7  185.11   21.20
   2  -7   7  185.77   23.85
   3  -7   7  128.86   19.38
   3  -7   7  132.72   17.22
   4  -7   7  -10.64    7.01
   4  -7   7    2.63    7.97
  -4  -6   7  120.29   26.82
  -4  -6   7  112.76   23.61
   4   6  -7  107.48   23.25
   4   6  -7   85.86   23.07
   3   6  -7  165.33   26.44
   3   6  -7  176.33   27.42
  -3  -6   7  144.90   27.37
   3   6  -7  145.73   24.35
  -3  -6   7  186.07   29.12
  -3  -6   7  161.12   26.22
   2   6  -7   72.43   17.05
   2   6  -7   67.80   18.17
   2   6  -7   84.44   18.69
  -2  -6   7   93.57   20.97
  -2  -6   7   77.75   21.75
   2   6  -7   67.67   19.21
  -2  -6   7   68.22   17.46
  -2  -6   7   79.84   19.75
  -1  -6   7  125.18   20.77
  -1  -6   7  116.75   20.95
   1   6  -7  157.57   21.41
   1   6  -7  123.47   18.37
   1   6  -7  114.63   20.73
   1   6  -7  126.53   10.06
  -1  -6   7  107.19   21.22
  -1  -6   7  129.11   23.89
   1   6  -7   97.26   18.13
   0   6  -7   61.11   11.95
   0  -6   7   57.11   14.99
   0  -6   7   77.29   17.09
   0  -6   7   83.18   18.93
   0  -6   7  107.34   19.71
   0   6  -7   60.33   14.25
   0   6  -7   78.09   13.70
   1  -6   7   60.87   15.70
   1  -6   7   49.70   14.32
   1  -6   7   56.11   13.95
   1  -6   7   36.72   12.09
  -1   6  -7   49.73   12.09
  -2   6  -7  182.73   16.65
   2  -6   7  150.02   19.08
   2  -6   7  169.98   19.55
   2  -6   7  160.41   21.08
   3  -6   7    3.94    7.34
  -3   6  -7    4.07    4.06
   3  -6   7    6.64    7.97
   4  -6   7  394.11   27.92
   4  -6   7  363.62   24.61
   5  -6   7  139.62   15.94
   5  -6   7  155.37   14.99
   5   5  -7    2.13   12.12
  -5  -5   7    3.49   12.76
  -5  -5   7   20.41   15.46
   4   5  -7   89.46   21.23
  -4  -5   7   58.85   18.45
  -4  -5   7  106.85   23.43
   4   5  -7   59.92   20.90
  -4  -5   7   61.58   20.41
   4   5  -7   53.82   18.99
   3   5  -7   15.54   12.57
  -3  -5   7   -2.46    8.06
  -3  -5   7    7.52   12.00
   3   5  -7   18.64   11.45
  -3  -5   7    0.83   11.86
   3   5  -7   -7.62    8.38
   3   5  -7    5.87   12.13
  -2  -5   7  280.03   28.81
  -2  -5   7  279.93   32.45
  -2  -5   7  208.72   27.67
  -2  -5   7  282.71   30.68
   2   5  -7  273.73   29.15
   2   5  -7  275.89   28.22
   2   5  -7  285.95   29.05
   2   5  -7  348.41   33.46
  -1  -5   7   43.66   15.29
   1   5  -7   41.68   12.92
   1   5  -7   49.70   12.84
   1   5  -7   63.73   16.08
   1   5  -7   47.28    6.44
   1   5  -7   48.35   14.01
  -1  -5   7   42.67   13.94
   1   5  -7   29.29   12.10
  -1  -5   7   38.04   14.17
  -1  -5   7   43.20   13.33
   0   5  -7   14.30    7.96
   0  -5   7   39.55   12.65
   0   5  -7   34.79   10.74
   0  -5   7   44.18   13.85
   0   5  -7   38.95   11.58
   0  -5   7   23.38   10.30
   0   5  -7   21.69   10.25
   0  -5   7   28.16   11.71
   0  -5   7   46.04   14.04
  -1   5  -7  313.82   17.75
  -1   5  -7  340.85   18.71
  -1   5  -7  346.21   25.03
   1  -5   7  283.53   25.91
   1  -5   7  276.45   24.82
   1  -5   7  339.90   27.72
   1  -5   7  306.54   28.70
   2  -5   7   50.32   11.87
   2  -5   7   87.73   14.70
   2  -5   7   44.35   11.53
   2  -5   7   50.30   12.89
  -2   5  -7   63.53   10.57
  -3   5  -7   46.80    6.97
   3  -5   7   27.64    9.92
   3  -5   7   62.48   11.34
   3  -5   7   42.83   10.60
  -3   5  -7   59.17    7.27
   3  -5   7   66.60   13.46
   4  -5   7  296.71   23.16
   4  -5   7  315.47   22.18
   4  -5   7  282.55   20.61
   5  -5   7   13.66    9.27
   5  -5   7    7.40    7.37
   5  -5   7   20.21    8.57
   6  -5   7  128.25   14.10
   6  -5   7  127.57   13.25
  -5  -4   7  103.27   24.44
   5   4  -7  119.25   24.70
  -5  -4   7  111.01   22.88
  -4  -4   7    1.02    9.41
  -4  -4   7    1.64   10.30
   4   4  -7   34.69   15.30
   4   4  -7    6.06   13.24
   4   4  -7    1.37    8.99
  -4  -4   7    4.60   11.83
  -3  -4   7  209.26   25.92
  -3  -4   7  171.10   25.33
   3   4  -7  207.75   25.61
  -3  -4   7  170.24   26.06
  -3  -4   7  188.06   28.46
   3   4  -7  269.26   29.23
   3   4  -7  202.97   21.07
  -3  -4   7  180.25   26.46
   3   4  -7  172.30   26.06
   3   4  -7  181.49   27.68
   2   4  -7  137.58   21.57
   2   4  -7  111.21   18.79
  -2  -4   7  157.91   22.12
  -2  -4   7  169.85   23.79
  -2  -4   7  175.48   22.71
   2   4  -7  149.22   21.90
  -2  -4   7  141.46   22.93
   2   4  -7  144.73   15.15
   2   4  -7  190.62   25.41
  -2  -4   7  144.46   24.07
   1   4  -7   11.39    8.15
  -1  -4   7   -4.43    6.86
   1   4  -7    1.10    6.70
   1   4  -7    1.27    3.70
  -1  -4   7   -4.53    8.30
  -1  -4   7    2.96    8.33
   1   4  -7    7.37    8.17
   1   4  -7    4.79    7.74
  -1  -4   7    2.81    7.93
   1   4  -7    3.32    7.66
  -1  -4   7   -2.33    7.12
   0  -4   7  225.59   23.07
   0   4  -7  208.92   20.81
   0  -4   7  233.68   24.06
   0   4  -7  263.80   21.01
   0   4  -7  265.71   23.31
   0   4  -7  235.22   22.72
   0  -4   7  251.80   25.97
   0   4  -7  266.04   23.67
   0  -4   7  223.63   22.57
   1  -4   7  363.48   26.51
   1  -4   7  334.47   26.27
  -1   4  -7  322.45   22.06
  -1   4  -7  320.89   19.60
   1  -4   7  300.88   24.51
  -1   4  -7  365.63   25.12
  -1   4  -7  327.66   20.68
   1  -4   7  356.31   28.68
   2  -4   7  252.24   22.97
   2  -4   7  190.23   18.32
   2  -4   7  274.16   21.36
   2  -4   7  193.76   19.43
   2  -4   7  150.95   18.69
  -2   4  -7  221.97   17.52
   3  -4   7   27.70    8.77
   3  -4   7   23.86    9.08
   3  -4   7   40.40    9.94
   3  -4   7   14.55    8.37
  -3   4  -7   28.88    6.77
  -3   4  -7   41.94    6.91
   4  -4   7  115.79   14.61
   4  -4   7   84.97   12.78
   4  -4   7   99.74   12.70
   4  -4   7   81.89   11.42
   5  -4   7  247.58   20.33
   5  -4   7  231.80   19.51
   5  -4   7  257.28   18.38
   5  -4   7  269.59   19.97
   6  -4   7   73.69   11.35
   6  -4   7   66.10   10.88
   6  -4   7   82.43   12.20
  -6  -3   7   39.17   15.38
   6   3  -7   15.85   13.30
   5   3  -7   71.82   20.08
  -5  -3   7   59.67   17.77
  -5  -3   7   57.70   19.83
   5   3  -7   30.97   14.06
  -5  -3   7   17.27   12.17
   4   3  -7  245.30   29.50
   4   3  -7  215.73   29.66
  -4  -3   7  194.48   29.75
  -4  -3   7  184.25   25.42
   4   3  -7  258.39   29.55
  -4  -3   7  175.70   26.87
  -4  -3   7  188.74   27.59
  -4  -3   7  249.46   29.17
   4   3  -7  226.83   25.87
   3   3  -7  196.25   24.56
   3   3  -7  256.73   29.70
  -3  -3   7  207.83   27.35
  -3  -3   7  291.28   29.05
   3   3  -7  257.07   30.26
   3   3  -7  228.10   26.81
   3   3  -7  247.63   23.31
  -3  -3   7  258.85   30.93
  -3  -3   7  239.33   27.93
  -3  -3   7  257.60   27.92
  -2  -3   7   22.93   11.17
  -2  -3   7   19.83   10.65
   2   3  -7   21.78    8.39
  -2  -3   7   17.29   10.87
   2   3  -7   15.02   10.79
   2   3  -7   16.16   11.47
   2   3  -7   18.91   11.47
  -2  -3   7   17.51   10.55
  -2  -3   7   13.23   10.77
   2   3  -7   34.06   11.70
   1   3  -7   12.69    7.77
  -1  -3   7   11.48    8.91
   1   3  -7    9.60    8.88
  -1  -3   7   -3.20    6.54
  -1  -3   7   10.20    8.60
   1   3  -7   -1.28    6.52
   1   3  -7   -0.65    3.94
   1   3  -7   -6.78    5.95
  -1  -3   7    5.13    8.04
   1   3  -7   -7.18    6.75
   0  -3   7  315.08   26.62
   0   3  -7  336.91   25.65
   0  -3   7  328.46   28.45
   0  -3   7  312.47   25.41
   0   3  -7  287.95   24.51
   0   3  -7  283.24   23.76
   0   3  -7  250.38   23.27
   0   3  -7  291.09   22.37
   0  -3   7  314.37   24.40
   1  -3   7  248.66   21.19
   1  -3   7  203.02   22.08
   1  -3   7  223.87   22.31
   1  -3   7  213.42   20.91
  -1   3  -7  235.07   17.16
  -1   3  -7  233.36   18.97
  -1   3  -7  260.86   21.03
   1  -3   7  218.83   20.49
  -1   3  -7  252.24   19.96
  -2   3  -7  550.04   30.16
   2  -3   7  595.95   34.07
   2  -3   7  606.88   35.11
  -2   3  -7  566.04   31.51
   2  -3   7  549.10   34.53
   2  -3   7  553.13   31.94
   2  -3   7  551.03   32.25
  -3   3  -7   44.13    8.35
   3  -3   7   50.13   11.43
   3  -3   7   76.46   12.79
  -3   3  -7   86.53    9.33
   3  -3   7   59.22   11.90
   3  -3   7   79.36   11.72
   3  -3   7   64.02   10.97
   4  -3   7    5.30    6.28
   4  -3   7    3.33    5.91
   4  -3   7    1.44    5.92
   4  -3   7    1.53    5.45
   4  -3   7   -2.24    6.57
   4  -3   7    7.42    5.78
   5  -3   7  237.85   20.60
   5  -3   7  247.69   22.62
   5  -3   7  279.19   20.41
   5  -3   7  248.81   19.57
   5  -3   7  254.88   18.41
   6  -3   7   12.46    8.36
   6  -3   7   15.94    8.12
   6  -3   7   30.15   10.56
  -6  -2   7   39.67   16.53
   6   2  -7   30.85   15.66
  -6  -2   7    3.78   11.09
  -5  -2   7   14.87   13.35
   5   2  -7   -7.61    7.69
  -5  -2   7   10.20   10.63
   5   2  -7   -7.60    8.45
   5   2  -7    1.75   10.84
  -5  -2   7   -8.94   10.27
  -5  -2   7   11.34   10.65
  -4  -2   7  710.26   44.33
  -4  -2   7  590.17   44.18
   4   2  -7  614.04   43.54
  -4  -2   7  643.70   44.31
   4   2  -7  576.65   45.60
   4   2  -7  610.97   44.05
  -4  -2   7  489.31   42.60
  -4  -2   7  634.56   47.51
   4   2  -7  602.10   41.88
   4   2  -7  624.08   48.09
  -3  -2   7  157.76   21.47
   3   2  -7  149.80   22.88
  -3  -2   7  135.35   20.68
  -3  -2   7  138.81   22.13
   3   2  -7  131.13   22.54
   3   2  -7  139.83   21.19
  -3  -2   7  140.19   22.76
   3   2  -7  161.68   19.15
   3   2  -7  168.19   22.83
  -3  -2   7  128.37   22.89
  -2  -2   7  164.70   21.45
  -2  -2   7  216.67   25.02
   2   2  -7  219.27   23.02
  -2  -2   7  241.10   24.23
  -2  -2   7  238.98   25.86
   2   2  -7  252.91   25.07
  -2  -2   7  216.44   25.87
   2   2  -7  227.68   19.31
   2   2  -7  213.02   24.58
   2   2  -7  263.71   27.45
   1   2  -7  495.93   31.65
   1   2  -7  376.16   30.56
  -1  -2   7  487.10   32.41
   1   2  -7  455.59   31.94
   1   2  -7  443.58   30.49
   1   2  -7  517.71   34.92
  -1  -2   7  492.98   32.88
   1   2  -7  492.51   34.23
  -1  -2   7  471.53   33.86
  -1  -2   7  515.39   36.65
   0  -2   7   36.23   11.46
   0  -2   7   11.72    7.62
   0   2  -7   15.19    8.47
   0   2  -7   24.00    9.30
   0   2  -7   16.18    7.87
   0  -2   7   16.49    7.62
   0   2  -7   29.40    8.73
   0   2  -7   21.20    8.83
   0   2  -7   18.71    7.83
   0  -2   7   18.32    8.01
   1  -2   7  742.64   39.80
  -1   2  -7  743.32   37.24
   1  -2   7  762.84   39.17
   1  -2   7  654.88   40.24
   1  -2   7  723.21   40.75
   1  -2   7  774.18   43.28
  -1   2  -7  763.27   38.15
  -1   2  -7  832.91   40.12
  -1   2  -7  739.51   38.80
  -1   2  -7  709.12   34.97
  -2   2  -7   79.75    6.51
  -2   2  -7   82.69    8.24
   2  -2   7   82.07   13.85
  -2   2  -7   86.94    8.50
   2  -2   7  111.66   13.55
   2  -2   7   56.81   12.35
  -2   2  -7   96.03   12.85
   2  -2   7   82.98   13.60
   2  -2   7   73.45   11.96
  -2   2  -7  104.93   12.59
   3  -2   7  103.97   13.37
   3  -2   7  106.15   15.20
  -3   2  -7  124.77   12.20
   3  -2   7  128.27   15.91
   3  -2   7  120.28   13.41
  -3   2  -7  107.72   11.88
   3  -2   7  115.65   15.18
   4  -2   7  471.72   29.94
  -4   2  -7  502.49   22.54
   4  -2   7  458.75   27.14
   4  -2   7  515.70   30.82
  -4   2  -7  533.51   23.22
   4  -2   7  483.48   30.66
   4  -2   7  494.98   28.76
   5  -2   7   12.44    6.92
   5  -2   7    6.09    7.93
   5  -2   7   21.94    8.31
   5  -2   7    4.52    7.25
   5  -2   7   10.22    7.34
   6  -2   7  210.08   19.20
   6  -2   7  198.00   20.66
   7  -2   7   32.96   12.25
   7  -2   7   45.44   12.24
  -6  -1   7   20.79   13.96
  -6  -1   7   64.49   17.69
   6   1  -7   24.89   14.86
  -5  -1   7  166.97   25.78
   5   1  -7  116.61   22.44
   5   1  -7   86.19   21.03
   5   1  -7   90.63   20.77
   5   1  -7   58.83   19.92
  -5  -1   7  122.58   24.50
  -5  -1   7   82.47   20.36
  -5  -1   7  111.26   21.31
  -5  -1   7  114.41   19.58
   4   1  -7  158.99   25.50
   4   1  -7  124.77   23.75
   4   1  -7  157.04   22.07
  -4  -1   7  143.02   24.37
  -4  -1   7  146.58   20.68
  -4  -1   7  124.49   22.11
   4   1  -7  137.48   22.14
  -4  -1   7  159.27   22.30
   4   1  -7  157.94   22.96
  -4  -1   7  140.47   22.33
  -3  -1   7  129.66   19.45
   3   1  -7   97.19   18.01
  -3  -1   7  131.46   21.51
   3   1  -7  132.27   20.30
  -3  -1   7  145.02   19.56
  -3  -1   7  114.37   20.00
   3   1  -7  129.19   21.59
   3   1  -7  118.97   17.57
   3   1  -7  142.04   22.34
  -3  -1   7   96.47   19.20
  -2  -1   7  138.23   20.29
   2   1  -7  144.37   20.49
  -2  -1   7  158.51   21.78
  -2  -1   7  108.59   17.04
   2   1  -7  123.51   18.53
   2   1  -7  160.66   21.39
   2   1  -7  111.96   17.46
   2   1  -7  157.84   17.01
   2   1  -7  170.12   21.56
  -2  -1   7  118.60   17.73
  -1  -1   7   28.74    9.12
   1   1  -7   16.51    7.50
   1   1  -7   18.66    9.69
   1   1  -7   30.72    9.95
   1   1  -7   19.03    9.00
   1   1  -7   18.10    9.23
  -1  -1   7   25.47   10.02
  -1  -1   7   31.66   11.36
   1   1  -7   21.51   10.35
  -1  -1   7   22.71    9.38
   0  -1   7  430.21   30.89
   0   1  -7  402.89   27.06
   0   1  -7  477.35   30.74
   0   1  -7  407.40   28.46
   0  -1   7  441.98   30.78
   0   1  -7  486.11   31.40
   0  -1   7  454.24   31.77
   0   1  -7  429.22   27.60
   0   1  -7  499.50   31.77
   0  -1   7  475.46   29.70
   0  -1   7  412.96   28.53
  -1   1  -7   11.09    6.04
  -1   1  -7   10.56    6.67
  -1   1  -7    3.91    6.53
   1  -1   7    7.78    7.54
  -1   1  -7   15.50    6.31
  -1   1  -7   18.84    7.85
   1  -1   7    9.58    6.51
   1  -1   7   11.69    6.53
   1  -1   7   -0.91    5.79
  -1   1  -7   12.44    7.32
   1  -1   7    4.76    6.29
  -1   1  -7   -2.35    4.76
  -2   1  -7    3.31    5.70
   2  -1   7   -0.21    5.59
   2  -1   7    3.06    5.67
  -2   1  -7    3.41    3.92
   2  -1   7    1.77    5.91
   2  -1   7   -3.99    4.11
  -2   1  -7   -1.08    4.37
  -2   1  -7    2.76    3.91
   2  -1   7   -6.07    5.73
  -2   1  -7   -1.80    4.64
  -2   1  -7    4.07    5.38
   3  -1   7  155.06   15.66
   3  -1   7  182.16   16.85
   3  -1   7  195.12   18.99
   3  -1   7  175.42   18.54
  -3   1  -7  166.44   15.26
  -3   1  -7  162.38   15.01
   3  -1   7  202.26   19.60
   4  -1   7    4.97    6.02
   4  -1   7   -3.71    5.94
  -4   1  -7   -1.07    4.35
   4  -1   7    5.20    6.81
   4  -1   7   -2.48    5.04
   4  -1   7   -2.16    6.21
  -4   1  -7    6.55    4.54
  -5   1  -7 1045.60   40.42
   5  -1   7 1022.62   53.35
  -5   1  -7 1058.00   40.33
   5  -1   7 1077.37   48.83
   5  -1   7 1084.28   51.45
   5  -1   7 1106.24   52.94
   5  -1   7 1076.33   50.51
   6  -1   7   71.29   13.31
   6  -1   7   59.87   14.60
   7  -1   7    9.10    9.81
   7  -1   7    5.33    9.11
   6   0  -7  113.76   24.58
  -6   0   7  174.20   25.55
   6   0  -7  198.65   31.70
  -6   0   7  102.05   20.54
   5   0  -7    5.11    9.33
   5   0  -7    2.69    8.38
  -5   0   7    8.59   10.19
   5   0  -7   11.51   12.23
  -5   0   7   -3.16   11.48
  -5   0   7    6.45    8.87
  -5   0   7   -0.65    7.80
  -5   0   7    2.33    9.17
   5   0  -7    6.03   11.37
  -4   0   7   14.78   11.36
  -4   0   7   25.16   12.24
  -4   0   7   14.49    9.15
   4   0  -7   35.48   12.55
  -4   0   7   21.79   11.45
   4   0  -7    7.47    9.53
   4   0  -7   19.06   11.94
   4   0  -7   17.53   10.92
   4   0  -7   42.49   14.00
  -4   0   7   15.73   10.89
  -3   0   7  401.33   34.61
  -3   0   7  388.88   30.21
   3   0  -7  456.33   36.12
   3   0  -7  455.10   32.87
   3   0  -7  425.82   33.11
  -3   0   7  435.70   32.79
   3   0  -7  478.86   37.23
   3   0  -7  449.34   33.31
  -3   0   7  419.76   34.11
  -3   0   7  473.91   35.52
  -2   0   7   64.11   13.56
  -2   0   7   40.26   11.09
  -2   0   7   49.67   14.33
   2   0  -7   20.45    8.97
   2   0  -7   45.70   11.55
   2   0  -7   47.85   12.53
   2   0  -7   46.58   12.58
   2   0  -7   52.86   13.67
   2   0  -7   56.99   15.06
  -2   0   7   40.08   12.41
  -1   0   7  260.44   24.90
  -1   0   7  233.57   22.56
  -1   0   7  259.80   24.61
   1   0  -7  243.75   24.21
   1   0  -7  289.05   22.99
   1   0  -7  276.13   24.05
  -1   0   7  269.27   25.81
   1   0  -7  268.74   25.27
   1   0  -7  285.10   25.67
  -1   0   7  248.52   22.13
   1   0  -7  271.09   22.91
   0   0  -7   84.07   12.65
   0   0   7   79.96   14.91
   0   0  -7   87.80   14.47
   0   0  -7   76.26   13.57
   0   0   7   66.09   12.22
   0   0  -7   95.48   15.08
   0   0  -7   83.70   12.62
   0   0   7   95.24   15.83
   0   0   7   86.32   13.77
   0   0   7   93.74   10.13
   0   0   7   96.91   15.87
   0   0  -7  117.73   15.89
  -1   0  -7  392.10   24.48
   1   0   7  397.80   22.04
   1   0   7  409.39   29.21
   1   0   7  415.19   29.69
   1   0   7  425.71   26.93
  -1   0  -7  441.00   27.76
  -1   0  -7  417.44   27.79
  -1   0  -7  421.14   27.78
   1   0   7  446.60   28.40
  -1   0  -7  373.85   27.22
   1   0   7  405.76   29.31
  -1   0  -7  436.36   25.32
  -1   0  -7  401.62   27.39
  -2   0  -7  448.08   25.43
   2   0   7  458.56   27.82
   2   0   7  486.30   29.17
  -2   0  -7  465.55   28.68
   2   0   7  452.09   30.59
  -2   0  -7  448.97   28.30
   2   0   7  415.37   29.96
  -2   0  -7  472.55   27.86
  -2   0  -7  475.46   24.69
   2   0   7  432.33   30.12
  -2   0  -7  487.19   27.07
  -2   0  -7  447.46   23.83
  -3   0  -7  201.31   10.93
  -3   0  -7  197.10   17.68
   3   0   7  181.50   17.19
  -3   0  -7  217.13   13.67
   3   0   7  203.07   18.79
   3   0   7  215.67   20.51
   3   0   7  222.43   21.42
  -3   0  -7  194.99   17.45
  -3   0  -7  186.22   12.73
   3   0   7  194.05   19.09
  -4   0  -7  106.49   12.70
   4   0   7  101.89   13.86
  -4   0  -7   94.39   12.12
   4   0   7   70.91   13.15
   4   0   7  103.06   14.41
   4   0   7   95.73   14.98
   4   0   7   93.10   15.91
   5   0   7  333.76   28.10
   5   0   7  353.88   27.43
  -5   0  -7  320.86   20.93
   5   0   7  357.30   26.62
   5   0   7  308.17   24.17
  -5   0  -7  289.77   19.59
   6   0   7    4.22    7.86
  -6   0  -7    0.36    4.95
  -6   0  -7   -0.35    4.37
   6   0   7    2.77    8.32
   6   0   7   -3.46    7.87
   7   0   7   64.06   15.62
   7   0   7   76.03   16.24
   7   0   7   51.18   15.02
  -6   1   7   69.35   16.55
  -6   1   7   32.25   14.97
   6  -1  -7   99.66   24.02
   6  -1  -7   75.33   20.38
  -5   1   7   34.17   13.42
  -5   1   7   22.92   12.96
   5  -1  -7   27.98   14.69
  -5   1   7   29.66   14.38
   5  -1  -7   31.57   14.98
   5  -1  -7    9.81    9.83
   5  -1  -7   31.98   13.49
  -5   1   7   38.36   16.70
  -5   1   7   13.94    9.48
   4  -1  -7  232.43   26.17
  -4   1   7  227.26   24.06
  -4   1   7  181.07   25.11
  -4   1   7  253.42   25.19
   4  -1  -7  295.82   28.45
  -4   1   7  174.29   23.65
   4  -1  -7  264.02   28.69
   4  -1  -7  255.17   29.18
  -4   1   7  226.70   26.92
   4  -1  -7  246.54   29.04
   3  -1  -7   83.67   18.00
   3  -1  -7  124.97   19.02
  -3   1   7  110.84   16.68
   3  -1  -7  120.65   20.44
   3  -1  -7   91.27   16.95
   3  -1  -7  129.94   18.96
  -3   1   7   92.62   17.66
  -3   1   7   87.89   16.68
  -3   1   7  104.96   19.03
   3  -1  -7   87.21   17.79
   2  -1  -7   26.09   10.49
   2  -1  -7   55.16   14.04
  -2   1   7   33.83   11.96
   2  -1  -7   40.81   12.02
  -2   1   7   37.36   11.66
   2  -1  -7   50.65   12.52
  -2   1   7   46.78   12.80
   2  -1  -7   49.54   13.54
  -2   1   7   38.52   10.91
   2  -1  -7   49.08   11.94
   2  -1  -7   37.47   11.34
   1  -1  -7  179.99   21.20
  -1   1   7  176.68   20.60
  -1   1   7  166.67   19.10
   1  -1  -7  170.13   19.79
   1  -1  -7  171.02   20.45
   1  -1  -7  181.60   18.71
  -1   1   7  189.82   19.17
   1  -1  -7  232.54   23.11
  -1   1   7  194.36   21.63
   1  -1  -7  167.48   18.26
  -1   1   7  174.45   20.48
  -1   1   7  190.60   17.78
   0   1   7  179.98   20.41
   0   1   7  188.33   21.13
   0  -1  -7  197.29   18.56
   0  -1  -7  212.78   21.20
   0  -1  -7  220.38   22.05
   0   1   7  213.57   17.22
   0   1   7  210.59   19.62
   0  -1  -7  230.91   21.40
   0  -1  -7  161.89   19.49
   0  -1  -7  234.30   19.61
   0   1   7  215.69   20.21
  -1  -1  -7  124.77   13.98
   1   1   7  144.99   16.31
   1   1   7  100.85   16.08
   1   1   7   95.44   16.18
  -1  -1  -7  152.21   17.00
  -1  -1  -7  141.51   14.68
  -1  -1  -7  114.05   15.54
  -1  -1  -7  151.04   16.72
   1   1   7  113.86   16.37
  -1  -1  -7   93.16   15.02
   1   1   7  135.53   15.37
  -1  -1  -7  151.07   16.87
  -2  -1  -7    5.52    6.24
  -2  -1  -7    2.53    4.46
   2   1   7    6.69    6.13
  -2  -1  -7    2.60    4.57
   2   1   7    3.39    5.67
  -2  -1  -7   -3.83    4.39
   2   1   7    2.62    6.12
  -2  -1  -7   11.58    6.39
   2   1   7    2.15    6.68
  -2  -1  -7    7.25    5.54
   2   1   7   -1.89    5.99
  -2  -1  -7    1.53    5.41
   3   1   7   50.02   11.94
  -3  -1  -7   56.00   11.33
   3   1   7   80.89   15.31
  -3  -1  -7   78.38   10.89
   3   1   7   78.07   12.68
   3   1   7   54.86   12.46
  -3  -1  -7   59.58   11.61
  -3  -1  -7   90.27    9.23
  -3  -1  -7   51.73    8.31
  -3  -1  -7   72.04   10.81
   3   1   7   78.93   13.39
  -3  -1  -7   68.87    8.55
  -4  -1  -7  162.53   17.20
   4   1   7  164.30   18.47
  -4  -1  -7  165.84   16.48
   4   1   7  150.66   16.93
   4   1   7  144.09   17.87
   4   1   7  136.82   19.23
   4   1   7  145.35   18.87
   4   1   7  145.42   17.43
  -5  -1  -7   97.09   13.47
   5   1   7   95.91   14.99
  -5  -1  -7   63.19   11.44
   5   1   7  101.17   17.78
   5   1   7   84.54   15.77
   5   1   7   61.16   14.00
   5   1   7   81.09   15.13
   6   1   7  138.78   20.90
  -6  -1  -7  147.22   15.27
   6   1   7  146.76   22.45
   6   1   7  153.57   20.11
  -6  -1  -7  158.62   16.26
   6   1   7  151.69   19.68
  -7  -1  -7    5.25    6.92
   7   1   7   -7.38    9.28
   7   1   7    3.78   10.00
   6  -2  -7  -14.20   10.21
   6  -2  -7   17.41   13.14
  -6   2   7    6.16   10.75
  -6   2   7    3.18    9.53
  -5   2   7  374.31   32.78
   5  -2  -7  379.77   34.52
   5  -2  -7  354.65   36.82
   5  -2  -7  408.29   35.70
  -5   2   7  343.86   34.28
  -5   2   7  394.33   31.89
  -5   2   7  382.27   29.82
   5  -2  -7  355.45   37.81
  -4   2   7   40.53   13.29
  -4   2   7   99.17   16.50
  -4   2   7  112.48   17.78
  -4   2   7  101.15   18.69
  -4   2   7  105.58   18.86
   4  -2  -7  114.72   21.16
   4  -2  -7   76.37   18.62
   4  -2  -7  100.27   20.19
   4  -2  -7   86.92   18.01
   4  -2  -7  113.50   19.02
   4  -2  -7   96.66   20.77
   3  -2  -7  150.93   21.63
   3  -2  -7  104.01   17.63
   3  -2  -7  123.11   19.85
   3  -2  -7  110.49   18.49
  -3   2   7  147.92   19.11
  -3   2   7  121.01   19.31
  -3   2   7  109.86   19.58
  -3   2   7  110.28   16.82
   3  -2  -7  127.70   20.59
   3  -2  -7  105.41   19.48
  -2   2   7   41.92   12.65
  -2   2   7   76.63   15.68
   2  -2  -7   75.87   15.31
   2  -2  -7   83.70   16.58
   2  -2  -7   95.32   15.76
  -2   2   7   61.98   12.73
   2  -2  -7   74.50   13.83
   2  -2  -7   58.83   14.09
   2  -2  -7   35.63   12.85
  -2   2   7   55.82   12.93
   1  -2  -7  114.85   15.47
   1  -2  -7   68.60   14.80
   1  -2  -7  122.75   15.87
  -1   2   7  101.76   14.59
  -1   2   7  100.19   17.11
  -1   2   7   91.83   14.85
   1  -2  -7  116.47   17.62
  -1   2   7   77.17   15.13
  -1   2   7   82.03   14.05
   1  -2  -7   90.37   15.37
   0  -2  -7  499.60   33.38
   0   2   7  547.31   32.11
   0   2   7  543.71   34.74
   0  -2  -7  464.08   33.82
   0  -2  -7  485.92   30.40
   0   2   7  459.71   33.36
   0   2   7  473.74   31.86
   0  -2  -7  517.60   31.33
   0  -2  -7  555.23   34.85
   0  -2  -7  502.19   32.78
   0   2   7  595.93   36.66
   0  -2  -7  497.92   33.13
   0   2   7  560.06   31.91
  -1  -2  -7  706.84   36.39
   1   2   7  739.66   41.99
   1   2   7  630.26   40.51
   1   2   7  683.18   37.50
  -1  -2  -7  694.86   39.34
  -1  -2  -7  666.26   38.87
  -1  -2  -7  649.85   38.32
   1   2   7  725.74   39.55
  -1  -2  -7  669.91   36.27
  -1  -2  -7  689.56   40.72
   1   2   7  733.32   41.17
  -1  -2  -7  774.76   40.56
   2   2   7  378.21   27.58
  -2  -2  -7  336.75   26.98
   2   2   7  368.33   26.49
  -2  -2  -7  369.81   25.76
  -2  -2  -7  374.83   24.13
  -2  -2  -7  379.10   25.56
  -2  -2  -7  334.18   22.74
   2   2   7  351.85   27.67
  -2  -2  -7  375.00   26.67
   2   2   7  372.12   25.71
  -2  -2  -7  366.96   26.06
   2   2   7  330.34   28.37
   3   2   7  481.54   35.11
   3   2   7  522.91   33.97
   3   2   7  609.34   35.67
  -3  -2  -7  513.37   32.95
  -3  -2  -7  544.62   32.76
   3   2   7  557.50   33.99
   3   2   7  547.89   35.74
  -3  -2  -7  489.26   29.82
  -3  -2  -7  501.61   29.48
  -3  -2  -7  485.17   31.18
  -3  -2  -7  539.23   28.02
  -3  -2  -7  466.25   27.38
   3   2   7  518.01   31.79
  -4  -2  -7  104.55   11.03
  -4  -2  -7   93.49   12.06
   4   2   7   69.13   14.32
   4   2   7  104.93   18.31
   4   2   7  103.51   15.87
  -4  -2  -7  125.31   15.90
   4   2   7  125.02   16.49
  -4  -2  -7   94.14   10.16
   4   2   7   62.61   15.25
  -4  -2  -7   81.99    9.57
   5   2   7   -9.56    6.06
  -5  -2  -7   11.25    7.23
   5   2   7    0.13    8.25
   5   2   7   -2.54    6.49
   5   2   7    2.07    8.00
   6   2   7   81.18   17.12
   6   2   7   80.85   16.98
   6   2   7   82.79   18.02
  -6  -2  -7   75.72   13.64
   6   2   7   79.09   18.55
   7   2   7   11.10   12.10
   7   2   7   -4.76    9.46
  -7  -2  -7   -1.80    7.41
   6  -3  -7  107.47   25.10
  -6   3   7  124.39   18.71
  -6   3   7  146.21   21.50
   6  -3  -7  111.04   22.59
  -5   3   7  213.15   24.17
  -5   3   7  196.81   21.75
   5  -3  -7  151.90   27.77
  -5   3   7  214.50   23.45
   5  -3  -7  187.11   27.72
   5  -3  -7  191.46   27.78
   5  -3  -7  129.81   21.92
   5  -3  -7  191.16   25.57
   4  -3  -7   -3.81    6.90
  -4   3   7    3.69    9.32
  -4   3   7   11.37    9.19
  -4   3   7    4.64    7.91
   4  -3  -7    4.72    7.84
  -4   3   7    4.07    7.25
   4  -3  -7   -1.28    9.31
   4  -3  -7   15.09   11.93
   4  -3  -7   -0.84    8.26
   4  -3  -7   14.96   11.05
   3  -3  -7  333.67   32.40
  -3   3   7  329.31   28.37
   3  -3  -7  392.51   29.93
   3  -3  -7  440.08   35.47
   3  -3  -7  349.17   32.79
   3  -3  -7  354.34   32.25
   3  -3  -7  376.22   29.86
  -3   3   7  403.56   32.02
  -3   3   7  376.65   27.98
   3  -3  -7  353.47   31.11
   2  -3  -7    0.01    7.08
   2  -3  -7   10.92    7.53
  -2   3   7   -2.82    6.26
   2  -3  -7   14.91    8.41
   2  -3  -7   -0.83    6.12
  -2   3   7   -0.04    5.69
  -2   3   7   -4.90    5.53
   2  -3  -7    3.27    6.49
  -2   3   7    0.30    6.92
  -2   3   7    5.53    7.79
   2  -3  -7    6.60    8.93
   1  -3  -7  283.46   26.17
   1  -3  -7  277.49   23.67
  -1   3   7  322.53   27.30
   1  -3  -7  298.64   27.59
  -1   3   7  251.84   23.50
   1  -3  -7  280.08   23.58
   1  -3  -7  246.46   24.44
   1  -3  -7  276.38   25.91
  -1   3   7  302.54   23.89
  -1   3   7  271.84   25.96
   1  -3  -7  312.05   26.20
  -1   3   7  308.82   25.96
   0   3   7  220.77   21.11
   0   3   7  253.01   23.92
   0   3   7  311.63   24.61
   0  -3  -7  258.89   23.72
   0  -3  -7  267.59   20.95
   0  -3  -7  253.66   23.58
   0   3   7  271.87   25.02
   0  -3  -7  215.08   20.77
   0  -3  -7  288.91   26.31
   0  -3  -7  255.91   24.14
   0   3   7  238.59   24.35
   0  -3  -7  237.58   23.33
   0   3   7  285.36   24.20
   1   3   7   -4.92    5.88
   1   3   7   -0.34    5.53
  -1  -3  -7    0.39    4.81
   1   3   7    3.30    6.45
  -1  -3  -7   -0.05    5.03
  -1  -3  -7   -0.26    6.44
  -1  -3  -7    2.23    3.70
   1   3   7   -8.59    4.72
  -1  -3  -7    8.92    7.42
  -1  -3  -7   -2.81    4.40
   1   3   7    0.92    5.98
  -1  -3  -7    4.43    6.36
   2   3   7  396.61   31.91
  -2  -3  -7  373.87   25.06
  -2  -3  -7  348.42   27.06
   2   3   7  397.35   30.36
   2   3   7  403.82   29.63
  -2  -3  -7  384.35   27.86
  -2  -3  -7  348.96   25.54
  -2  -3  -7  411.54   28.71
   2   3   7  418.97   29.21
   2   3   7  377.37   28.92
  -2  -3  -7  429.66   31.34
   2   3   7  424.05   28.49
  -3  -3  -7  751.32   40.24
   3   3   7  707.53   44.60
   3   3   7  739.54   41.41
  -3  -3  -7  800.45   43.65
   3   3   7  681.49   45.47
   3   3   7  790.55   43.68
  -3  -3  -7  767.36   37.73
  -3  -3  -7  739.71   38.43
   3   3   7  740.97   43.36
  -3  -3  -7  743.76   41.02
  -3  -3  -7  682.07   41.21
   4   3   7   10.89    9.98
  -4  -3  -7   15.33    6.60
   4   3   7    7.61    7.68
  -4  -3  -7    9.45    7.74
  -4  -3  -7    1.25    5.71
  -4  -3  -7   10.57    7.73
   4   3   7    6.32    7.60
   4   3   7    6.90    7.97
  -4  -3  -7    5.68    6.39
   4   3   7    6.22    8.73
   5   3   7   78.98   16.57
  -5  -3  -7   89.62   11.06
  -5  -3  -7   83.02   15.01
   5   3   7   71.20   17.75
   5   3   7   84.20   18.42
   5   3   7   61.23   14.67
  -5  -3  -7   67.46    9.25
  -5  -3  -7   68.46    9.90
   6   3   7   39.85   14.82
  -6  -3  -7   25.07   10.96
   6   3   7   28.10   14.14
   6   3   7   37.96   13.67
   6   3   7   19.22   12.78
   7   3   7  281.84   34.66
  -7  -3  -7  272.03   25.92
   7   3   7  319.00   33.13
   6  -4  -7   22.00   13.94
  -6   4   7   29.27   12.22
   6  -4  -7   32.96   16.29
   5  -4  -7   70.68   21.48
   5  -4  -7   31.73   15.00
  -5   4   7   46.56   14.12
  -5   4   7   62.88   15.09
   5  -4  -7   47.05   15.54
   5  -4  -7   80.62   20.51
  -5   4   7   50.34   13.48
   4  -4  -7   49.48   14.86
  -4   4   7   87.57   16.30
   4  -4  -7  119.78   22.02
   4  -4  -7  122.37   19.49
  -4   4   7   81.01   16.96
  -4   4   7   90.68   15.72
  -4   4   7  118.54   19.09
   4  -4  -7  108.24   23.73
   4  -4  -7   99.20   20.50
   3  -4  -7   63.79   16.13
   3  -4  -7   77.11   18.12
   3  -4  -7   45.51   12.62
  -3   4   7   42.41   13.38
  -3   4   7   67.77   13.92
   3  -4  -7   81.68   17.55
   3  -4  -7   82.66   16.78
  -3   4   7   68.21   14.54
   3  -4  -7   36.92   14.03
   2  -4  -7  406.39   32.19
   2  -4  -7  339.64   31.86
   2  -4  -7  426.36   29.78
  -2   4   7  382.81   31.79
   2  -4  -7  378.89   29.36
   2  -4  -7  414.33   33.39
  -2   4   7  413.46   31.78
   2  -4  -7  349.98   30.47
  -2   4   7  377.75   30.75
   2  -4  -7  344.99   30.10
  -2   4   7  405.78   28.95
  -2   4   7  468.16   31.81
  -1   4   7  216.55   21.43
   1  -4  -7  184.38   22.05
  -1   4   7  148.61   20.53
   1  -4  -7  192.63   22.21
  -1   4   7  206.01   21.83
   1  -4  -7  190.64   21.70
   1  -4  -7  239.43   24.09
  -1   4   7  181.38   22.01
   1  -4  -7  229.87   21.40
   1  -4  -7  220.91   25.01
  -1   4   7  211.81   22.63
   0  -4  -7    6.85    7.29
   0  -4  -7    1.58    4.24
   0   4   7    2.04    6.81
   0  -4  -7    2.27    5.51
   0  -4  -7    0.58    5.91
   0   4   7    5.50    7.18
   0  -4  -7   -2.63    5.05
   0   4   7    3.90    6.77
   0   4   7   -6.38    5.98
   0  -4  -7    5.16    7.43
   0  -4  -7    2.04    6.14
   0   4   7    3.28    6.17
  -1  -4  -7 1003.13   51.74
  -1  -4  -7 1022.29   54.79
  -1  -4  -7 1089.09   58.12
   1   4   7 1044.46   52.48
  -1  -4  -7 1195.12   52.82
  -1  -4  -7 1055.99   54.65
   1   4   7 1098.17   58.52
   1   4   7 1047.63   57.25
   1   4   7 1104.73   56.21
  -1  -4  -7 1028.94   54.94
   1   4   7 1152.75   56.04
   2   4   7  370.99   29.24
  -2  -4  -7  361.79   27.78
  -2  -4  -7  288.12   23.55
   2   4   7  293.49   25.41
  -2  -4  -7  296.14   23.92
  -2  -4  -7  362.67   27.54
  -2  -4  -7  409.41   29.51
  -2  -4  -7  354.66   30.50
   2   4   7  311.14   29.88
   2   4   7  313.52   28.64
   2   4   7  336.26   27.42
  -3  -4  -7   93.32   17.06
  -3  -4  -7   83.59   13.35
   3   4   7   90.10   15.99
   3   4   7   81.81   17.97
  -3  -4  -7   91.59   15.29
   3   4   7   81.50   15.38
   3   4   7   75.45   15.80
  -3  -4  -7   90.87   15.66
   3   4   7   54.41   15.16
  -3  -4  -7   78.06   15.25
  -4  -4  -7  178.39   21.05
  -4  -4  -7  161.01   16.94
  -4  -4  -7  156.96   17.99
   4   4   7  126.19   22.24
  -4  -4  -7  176.18   21.75
   4   4   7  177.49   22.12
   4   4   7  145.22   21.10
   4   4   7  189.87   24.16
  -4  -4  -7  153.33   19.06
   4   4   7  141.91   20.06
  -5  -4  -7    3.34    6.78
   5   4   7   -0.92    8.45
   5   4   7   -0.91    8.26
  -5  -4  -7    3.54    7.27
   5   4   7    2.63    8.82
   5   4   7   -1.77    9.01
  -5  -4  -7   -1.20    4.77
   6   4   7  268.64   29.40
   6   4   7  259.87   31.00
  -6  -4  -7  291.61   19.65
   6   4   7  212.30   30.48
  -6  -4  -7  219.46   25.00
   7   4   7  131.11   24.84
   7   4   7  136.64   27.98
  -6   5   7    3.14    8.96
   6  -5  -7   -4.27   10.31
   6  -5  -7    7.46   12.55
  -5   5   7   41.07   11.90
   5  -5  -7   67.89   17.14
   5  -5  -7   27.33   13.98
  -5   5   7   61.31   14.78
   5  -5  -7   36.42   15.30
   5  -5  -7   40.49   15.65
   4  -5  -7  161.73   23.26
   4  -5  -7   75.26   17.71
  -4   5   7  108.78   17.19
   4  -5  -7   90.15   17.67
   4  -5  -7   97.27   20.16
  -4   5   7  103.79   17.62
   4  -5  -7   90.81   20.89
   3  -5  -7  111.38   18.21
   3  -5  -7   45.79   14.33
   3  -5  -7   87.47   17.68
  -3   5   7   87.52   16.28
  -3   5   7   73.92   15.12
   3  -5  -7   77.11   18.18
   3  -5  -7   61.77   16.44
  -3   5   7   74.20   16.00
   3  -5  -7   64.86   17.81
  -3   5   7   53.65   16.33
   2  -5  -7  232.77   26.34
   2  -5  -7  232.87   23.53
  -2   5   7  296.33   29.80
   2  -5  -7  246.28   28.12
   2  -5  -7  235.23   23.99
   2  -5  -7  246.38   25.72
   2  -5  -7  235.33   26.11
   2  -5  -7  222.21   25.17
  -2   5   7  316.50   26.71
  -2   5   7  312.84   27.78
  -2   5   7  223.64   24.01
  -2   5   7  235.76   23.52
   1  -5  -7   68.68   13.96
  -1   5   7   80.68   15.52
  -1   5   7   58.70   15.11
  -1   5   7   60.72   15.01
   1  -5  -7   63.75   14.91
   1  -5  -7   97.96   18.87
  -1   5   7   71.86   14.75
   1  -5  -7   65.73   15.07
   1  -5  -7   68.23   15.82
   1  -5  -7   79.25   16.18
   1  -5  -7   64.58   13.76
  -1   5   7   74.95   16.64
   0  -5  -7  542.37   34.30
   0   5   7  461.83   35.56
   0   5   7  491.04   33.94
   0  -5  -7  474.77   35.57
   0  -5  -7  547.26   37.47
   0  -5  -7  435.97   33.89
   0  -5  -7  511.60   37.60
   0   5   7  475.28   32.62
   0  -5  -7  529.46   33.32
   1   5   7  609.11   38.57
   1   5   7  547.20   35.85
  -1  -5  -7  575.32   38.79
  -1  -5  -7  571.24   37.93
  -1  -5  -7  620.53   38.96
   1   5   7  575.03   40.87
   1   5   7  552.27   39.51
  -1  -5  -7  566.87   40.48
   1   5   7  619.42   40.04
  -1  -5  -7  565.78   35.70
  -2  -5  -7    1.62    6.82
  -2  -5  -7    4.99    6.34
  -2  -5  -7    0.27    7.18
   2   5   7   -1.56    6.86
  -2  -5  -7   -0.29    6.41
   2   5   7    0.55    7.65
   2   5   7    8.53    7.82
  -2  -5  -7    0.32    6.33
   2   5   7    0.18    5.79
   2   5   7   -5.01    7.18
   3   5   7   28.58   11.73
   3   5   7   20.89   10.26
  -3  -5  -7   21.08   12.03
  -3  -5  -7   11.09    8.55
  -3  -5  -7   38.40   12.47
   3   5   7   28.52   12.29
   3   5   7   20.00   11.59
   3   5   7   23.76   10.87
  -3  -5  -7   22.07    8.99
  -3  -5  -7   15.95    9.57
   4   5   7  103.36   21.09
  -4  -5  -7   89.20   16.69
  -4  -5  -7  120.29   20.72
  -4  -5  -7   80.22   16.53
  -4  -5  -7  120.77   16.40
  -4  -5  -7   99.92   17.14
   4   5   7   86.40   18.42
   4   5   7   87.39   19.25
   4   5   7   75.30   16.87
   5   5   7  207.50   28.33
  -5  -5  -7  285.67   22.82
  -5  -5  -7  251.07   24.21
   5   5   7  187.76   26.57
  -5  -5  -7  245.19   25.10
   5   5   7  289.55   29.93
  -5  -5  -7  205.14   24.71
   5   5   7  272.58   33.15
  -6  -5  -7  253.08   22.16
  -6  -5  -7  316.71   31.18
   6   5   7  278.29   34.01
   6   5   7  337.27   38.36
   6   5   7  236.95   30.01
   7   5   7   -3.08   13.32
   6  -6  -7   44.36   19.41
  -6   6   7   43.15   11.39
   5  -6  -7   22.88   15.30
   5  -6  -7    1.24   11.44
   5  -6  -7    2.33   11.39
   5  -6  -7    5.04   10.71
  -5   6   7   22.98   11.06
  -5   6   7   20.02   10.73
   4  -6  -7   93.87   19.93
   4  -6  -7   79.80   20.86
   4  -6  -7   86.31   19.38
  -4   6   7   54.15   14.16
   4  -6  -7   87.78   18.78
  -4   6   7  121.87   17.07
   4  -6  -7   70.21   18.02
   3  -6  -7  198.34   25.41
  -3   6   7  189.87   27.62
  -3   6   7  195.75   21.28
   3  -6  -7  163.42   23.12
  -3   6   7  183.73   21.36
   3  -6  -7  126.70   20.49
   3  -6  -7  193.41   24.62
   3  -6  -7  199.98   26.97
  -2   6   7   -8.56    6.23
   2  -6  -7   -1.94    7.05
   2  -6  -7    4.98    7.77
  -2   6   7   -8.50    6.46
  -2   6   7   -0.05    7.69
   2  -6  -7    4.59    9.38
   2  -6  -7   -3.01    7.83
   2  -6  -7   -4.13    6.58
   2  -6  -7    2.71    6.79
  -2   6   7    3.94    8.03
   1  -6  -7  111.76   19.20
  -1   6   7  157.55   20.48
   1  -6  -7  153.39   21.80
  -1   6   7  156.38   22.09
  -1   6   7  156.73   22.10
  -1   6   7   98.71   17.28
   1  -6  -7  162.08   22.23
   1  -6  -7  118.97   18.12
   1  -6  -7  142.24   21.82
  -1   6   7  159.46   23.71
   1  -6  -7  170.17   23.92
   0   6   7  652.08   41.49
   0   6   7  768.52   47.84
   0  -6  -7  790.64   49.94
   0   6   7  660.89   44.62
   0   6   7  673.37   42.58
   0  -6  -7  748.33   46.92
   0  -6  -7  667.90   44.08
   0  -6  -7  792.17   46.17
   0  -6  -7  719.67   42.68
   1   6   7  103.80   19.88
   1   6   7  131.17   20.75
   1   6   7  106.25   17.78
  -1  -6  -7  102.77   20.47
  -1  -6  -7  108.38   17.79
   1   6   7   90.51   18.08
   1   6   7  111.92   18.44
  -1  -6  -7   92.63   17.89
  -1  -6  -7   69.95   15.25
  -2  -6  -7  117.69   19.43
  -2  -6  -7  117.50   19.46
  -2  -6  -7  133.10   18.77
  -2  -6  -7  161.81   24.15
   2   6   7  151.29   22.73
   2   6   7  179.75   22.86
   2   6   7  171.18   25.21
   2   6   7  117.66   18.90
  -2  -6  -7  163.48   22.38
   2   6   7  161.63   22.63
   3   6   7   -1.25    9.53
   3   6   7    9.37    9.00
   3   6   7   -3.03    8.57
  -3  -6  -7   -3.87    9.38
  -3  -6  -7    0.27    5.57
  -3  -6  -7   -7.11    6.91
   3   6   7   -0.63    6.58
   3   6   7   11.08    9.49
  -3  -6  -7    0.31    6.30
  -3  -6  -7   -7.17    6.76
  -4  -6  -7  143.26   21.84
   4   6   7  186.60   25.88
  -4  -6  -7  205.65   22.57
   4   6   7  160.87   25.91
   4   6   7  203.19   25.51
   4   6   7  212.74   29.93
  -4  -6  -7  182.18   23.32
  -4  -6  -7  188.49   23.83
  -4  -6  -7  195.76   26.44
   5   6   7  204.46   27.46
  -5  -6  -7  190.64   22.14
   5   6   7  282.27   33.24
  -5  -6  -7  199.79   25.74
   5   6   7  166.60   29.05
  -5  -6  -7  197.01   24.32
  -5  -6  -7  222.25   26.24
   6   6   7   11.87   14.28
   6   6   7   15.18   13.03
  -6  -6  -7    5.88    8.27
   6   6   7   -6.45   10.14
  -5   7   7   -0.37    8.52
   5  -7  -7   13.79   11.07
   5  -7  -7   -5.06    9.82
  -4   7   7  257.84   34.40
  -4   7   7  221.60   22.96
   4  -7  -7  190.41   27.61
   4  -7  -7  255.57   32.07
  -4   7   7  227.61   22.29
   4  -7  -7  165.86   25.04
   4  -7  -7  218.70   26.97
   3  -7  -7   60.44   16.48
  -3   7   7   84.59   15.71
  -3   7   7   23.73   13.88
   3  -7  -7  120.90   21.76
   3  -7  -7   24.92   13.56
   3  -7  -7   97.44   18.32
   3  -7  -7   72.50   18.07
  -3   7   7   93.09   16.57
  -2   7   7  212.01   23.41
   2  -7  -7  279.04   28.98
   2  -7  -7  176.99   24.96
  -2   7   7  214.70   29.07
   2  -7  -7  184.98   22.85
  -2   7   7  168.63   22.87
   2  -7  -7  222.31   25.80
  -2   7   7  209.88   22.86
   2  -7  -7  206.27   27.30
   2  -7  -7  181.32   26.96
   1  -7  -7  490.21   37.52
   1  -7  -7  521.98   40.19
  -1   7   7  512.73   43.08
   1  -7  -7  524.77   37.94
  -1   7   7  586.08   40.89
   1  -7  -7  483.85   40.66
  -1   7   7  455.26   33.43
  -1   7   7  463.88   36.97
  -1   7   7  488.06   35.50
   1  -7  -7  387.17   32.48
   0   7   7   67.74   17.77
   0  -7  -7   54.27   15.61
   0  -7  -7   27.61   12.28
   0  -7  -7   70.35   15.38
   0   7   7   37.93   12.87
   0  -7  -7   54.01   16.03
   0  -7  -7   57.68   14.82
   0   7   7   61.73   15.95
   0   7   7   30.87   12.90
   0   7   7   59.54   16.39
  -1  -7  -7  228.43   27.42
   1   7   7  202.67   26.21
  -1  -7  -7  242.99   26.13
   1   7   7  208.98   24.72
  -1  -7  -7  222.94   25.96
  -1  -7  -7  204.53   28.13
   1   7   7  298.48   28.84
   1   7   7  265.62   28.74
  -1  -7  -7  193.93   23.25
  -2  -7  -7    3.29    7.31
   2   7   7   12.95   10.57
   2   7   7   23.49   12.37
   2   7   7   14.32   10.99
   2   7   7   42.43   13.44
  -2  -7  -7   25.18   12.36
   2   7   7   39.20   15.05
  -2  -7  -7   18.09   10.75
  -2  -7  -7   13.60   11.52
  -2  -7  -7   33.68   12.79
   3   7   7   15.92   11.67
  -3  -7  -7   10.28   10.31
  -3  -7  -7   15.38    8.99
   3   7   7   21.57   12.80
   3   7   7   38.83   15.18
   3   7   7   24.40   12.04
   3   7   7   16.20   11.03
  -3  -7  -7   29.24   12.98
  -3  -7  -7   11.91    9.79
  -3  -7  -7   35.83   15.49
  -4  -7  -7  411.95   36.21
  -4  -7  -7  364.22   32.01
  -4  -7  -7  406.56   36.34
   4   7   7  393.76   37.89
   4   7   7  475.49   42.58
   4   7   7  407.42   41.52
   4   7   7  355.73   35.76
  -4  -7  -7  478.72   41.98
   5   7   7  273.94   32.80
   5   7   7  319.04   38.69
   5   7   7  267.67   35.03
  -5  -7  -7  199.85   24.79
  -6  -7  -7   78.58   17.68
   6   7   7   99.78   27.35
   6   7   7  147.70   29.61
   6   7   7   93.57   23.41
   5  -8  -7  110.63   24.92
   5  -8  -7  180.96   26.91
  -5   8   7  159.22   17.06
   4  -8  -7    9.09   11.57
   4  -8  -7   -4.37   11.67
   4  -8  -7    0.32   10.69
   4  -8  -7   -3.49    9.78
  -3   8   7  120.93   18.31
   3  -8  -7  140.11   26.12
   3  -8  -7  173.04   23.88
  -3   8   7  139.59   20.07
   3  -8  -7  200.76   28.13
   3  -8  -7  144.79   24.43
   3  -8  -7  147.07   23.96
  -3   8   7  175.27   29.65
  -2   8   7  192.82   23.05
  -2   8   7  184.83   24.13
   2  -8  -7  202.29   25.46
   2  -8  -7  227.38   30.62
  -2   8   7  155.07   27.49
   2  -8  -7  248.34   26.74
   2  -8  -7  202.13   26.65
  -2   8   7  231.73   24.19
   2  -8  -7  197.23   27.15
  -1   8   7  186.67   23.24
  -1   8   7  170.97   28.30
   1  -8  -7  159.36   26.21
  -1   8   7  196.00   25.39
   1  -8  -7  202.29   26.46
  -1   8   7  231.21   27.50
   1  -8  -7  185.59   24.61
   1  -8  -7  215.74   25.06
  -1   8   7  194.02   24.07
   0   8   7  242.13   26.24
   0  -8  -7  248.19   31.60
   0   8   7  190.63   26.04
   0   8   7  221.98   26.19
   0   8   7  276.18   30.55
   0  -8  -7  231.32   26.97
   0  -8  -7  166.73   25.14
   0   8   7  275.28   31.11
   0  -8  -7  272.49   27.88
   0  -8  -7  252.71   29.29
   1   8   7  495.46   42.46
  -1  -8  -7  484.12   37.40
   1   8   7  500.49   37.58
  -1  -8  -7  484.73   38.79
  -1  -8  -7  507.86   39.52
  -1  -8  -7  516.08   44.27
  -1  -8  -7  546.51   42.02
   1   8   7  487.06   39.05
   1   8   7  463.39   39.93
   1   8   7  432.69   39.01
  -2  -8  -7   -6.12    7.02
  -2  -8  -7   14.12   11.23
   2   8   7   40.40   15.82
  -2  -8  -7   22.96   13.82
   2   8   7   22.98   11.89
   2   8   7    1.04    8.78
  -2  -8  -7   39.92   13.90
   2   8   7    4.64   10.00
   2   8   7   10.19   12.89
  -2  -8  -7    8.29    9.52
  -3  -8  -7  120.83   22.36
   3   8   7   97.15   22.79
   3   8   7  155.87   24.71
   3   8   7  165.12   26.64
  -3  -8  -7  184.62   26.34
  -3  -8  -7  135.40   23.40
  -3  -8  -7  158.11   22.58
   3   8   7  118.51   26.02
  -3  -8  -7  163.28   27.81
   4   8   7  235.05   34.59
  -4  -8  -7  247.40   30.57
  -4  -8  -7  192.04   25.45
  -4  -8  -7  225.33   29.55
   4   8   7  188.25   27.87
   4   8   7  208.31   32.23
  -5  -8  -7   24.98   12.62
   5   8   7   71.58   20.67
   5   8   7   35.27   16.81
   4  -9  -7   90.56   22.29
   4  -9  -7   36.72   15.82
  -3   9   7  205.21   22.60
   3  -9  -7  170.83   25.52
   3  -9  -7  194.76   29.19
   3  -9  -7  200.32   26.49
  -2   9   7  133.84   20.96
   2  -9  -7  153.82   26.95
   2  -9  -7  112.25   21.38
  -2   9   7  159.13   21.49
  -2   9   7  103.05   20.13
  -2   9   7  106.28   25.37
   2  -9  -7  162.23   24.36
   2  -9  -7  130.43   23.49
  -1   9   7  139.08   22.40
   1  -9  -7  104.11   21.05
  -1   9   7  137.07   20.89
  -1   9   7  104.21   21.10
   1  -9  -7  178.72   24.59
   1  -9  -7  153.08   27.59
  -1   9   7  133.49   23.93
   1  -9  -7  158.08   25.07
  -1   9   7   88.80   23.49
   0   9   7  231.65   27.81
   0   9   7  185.42   26.17
   0  -9  -7  219.32   28.57
   0   9   7  229.67   30.07
   0  -9  -7  176.89   25.72
   0   9   7  186.81   27.48
   0   9   7  135.75   22.38
   0  -9  -7  196.75   25.67
   0  -9  -7  232.80   31.82
  -1  -9  -7   63.58   21.54
   1   9   7  109.95   22.75
  -1  -9  -7  101.41   21.34
   1   9   7   66.63   18.38
  -1  -9  -7  127.26   22.90
  -1  -9  -7  123.52   21.47
   1   9   7  137.63   25.72
   1   9   7   97.48   21.48
   1   9   7  133.37   23.69
   2   9   7  359.00   35.41
  -2  -9  -7  324.05   36.04
   2   9   7  363.74   37.49
   2   9   7  390.67   39.07
   2   9   7  405.94   41.27
  -2  -9  -7  418.97   37.93
   2   9   7  386.56   38.44
  -2  -9  -7  300.32   32.65
   3   9   7  331.32   38.05
  -3  -9  -7  383.44   39.14
  -3  -9  -7  298.39   32.80
   3   9   7  353.42   38.55
  -3  -9  -7  414.59   38.80
   3   9   7  321.46   35.44
   4   9   7   76.43   23.25
   4   9   7   69.64   20.23
  -4  -9  -7   87.34   20.18
  -4  -9  -7  100.73   24.51
   5   9   7  313.62   41.66
   5   9   7  317.57   37.91
   3 -10  -7   32.79   16.96
   3 -10  -7   45.75   16.84
   2 -10  -7   71.77   19.76
  -2  10   7   84.91   17.44
   2 -10  -7   91.16   21.49
   2 -10  -7   89.52   22.01
  -2  10   7   49.66   15.92
  -1  10   7  153.68   23.48
   1 -10  -7  189.36   26.46
   1 -10  -7  160.14   27.11
  -1  10   7  123.22   28.14
   1 -10  -7  198.06   28.41
  -1  10   7  169.81   25.47
  -1  10   7  206.26   26.94
   0  10   7    1.61   10.62
   0  10   7    7.38   13.00
   0  10   7   -6.78   10.26
   0 -10  -7    5.12   10.59
   0 -10  -7    2.58   11.54
   0  10   7   -4.73    8.64
   0 -10  -7    3.59   10.01
   1  10   7   77.91   19.86
  -1 -10  -7   93.95   22.59
  -1 -10  -7   89.11   21.23
  -1 -10  -7   86.58   20.62
   1  10   7  112.87   24.08
   1  10   7   62.80   20.48
   1  10   7  100.72   23.86
  -2 -10  -7  410.04   39.00
   2  10   7  386.43   38.07
   2  10   7  415.98   41.85
  -2 -10  -7  358.54   38.72
   2  10   7  440.45   42.98
  -3 -10  -7    0.93   11.03
   3  10   7   11.56   13.41
   3  10   7    7.87   13.40
   4  10   7  326.54   38.77
   4  10   7  416.79   46.27
  -4 -10  -7  320.68   36.02
   2 -11  -7  226.13   32.68
  -2  11   7  210.05   26.95
   2 -11  -7  174.91   30.31
   2 -11  -7  203.52   29.78
  -1  11   7    0.71   11.77
  -1  11   7    0.50    9.95
   1 -11  -7   -0.49   12.12
   1 -11  -7   -6.47   10.73
   1 -11  -7   12.05   13.90
   0 -11  -7  124.57   26.21
   0  11   7  106.06   21.90
   0 -11  -7  132.34   24.90
   0  11   7   93.40   22.95
   0  11   7  156.22   29.07
  -1 -11  -7  157.78   27.81
   1  11   7  204.74   32.63
  -1 -11  -7  204.61   29.86
   1  11   7  200.22   31.16
   1  11   7  177.55   27.24
   2  11   7   -4.58   12.12
  -2 -11  -7  -11.42   10.34
   2  11   7   11.53   12.76
   3  11   7  127.59   27.02
  -3 -11  -7  154.80   28.41
   1   8  -8    4.12   10.46
  -1  -8   8   10.89   12.53
  -1  -8   8   23.16   15.96
   0  -8   8  108.22   21.99
   0   8  -8   94.19   13.83
   1  -8   8   39.70   15.14
   1  -8   8   22.02   14.51
   2  -8   8   33.47   13.73
   2  -8   8   54.18   19.12
  -3  -7   8   41.31   17.75
  -2  -7   8   16.33   16.88
  -2  -7   8    9.86   11.96
   2   7  -8   16.22   13.74
  -2  -7   8   23.79   16.39
   2   7  -8    8.18   11.57
   1   7  -8  103.24   18.47
  -1  -7   8   77.31   19.38
   1   7  -8   91.69   20.43
  -1  -7   8  107.23   24.68
  -1  -7   8   83.63   22.56
   0  -7   8    5.59   11.87
   0  -7   8    7.83   12.93
   0   7  -8   10.74    8.22
   0   7  -8    0.68    9.38
   0  -7   8   12.67   10.71
   1  -7   8   28.67   12.07
   1  -7   8   37.95   16.57
   1  -7   8   68.69   19.17
   2  -7   8  227.40   24.54
   2  -7   8  144.74   23.82
   3  -7   8    2.67    9.58
   3  -7   8    6.03    8.79
   3   6  -8    2.15   11.71
   3   6  -8   -8.27    8.71
  -3  -6   8    3.53   11.03
  -3  -6   8   17.27   16.17
  -3  -6   8   -3.12   13.96
  -2  -6   8   89.54   23.43
   2   6  -8   91.35   19.47
   2   6  -8  113.23   22.32
  -2  -6   8   87.79   23.12
  -2  -6   8  111.86   22.66
   1   6  -8   83.62   17.08
  -1  -6   8   77.24   18.51
  -1  -6   8   73.08   20.99
   1   6  -8  115.21   20.36
  -1  -6   8   69.00   18.67
  -1  -6   8  126.12   24.19
   0  -6   8   44.47   15.87
   0   6  -8   48.65   13.94
   0  -6   8   32.10   14.90
   0  -6   8   20.25   13.74
   0   6  -8   56.28   13.81
   0   6  -8   68.05   13.14
   0  -6   8   55.10   15.00
  -1   6  -8  205.36   21.49
   1  -6   8  201.27   23.44
   1  -6   8  178.97   24.17
   1  -6   8  144.96   23.71
   1  -6   8  193.34   23.97
   2  -6   8    3.11    7.66
  -2   6  -8    4.79    7.09
   2  -6   8   12.07    9.63
   3  -6   8   36.00   13.07
   3  -6   8   37.70   11.78
  -3   6  -8   34.65    7.46
   4  -6   8   53.76   12.83
   4  -6   8   46.63   13.90
  -4  -5   8   -7.41   10.13
   4   5  -8    8.90   12.08
  -4  -5   8  -17.42    9.84
   3   5  -8   30.95   15.31
  -3  -5   8   28.27   13.81
  -3  -5   8    0.70   12.24
  -3  -5   8   29.32   16.21
   3   5  -8   26.45   10.99
   3   5  -8   20.64   15.42
   3   5  -8    9.31   10.48
  -2  -5   8   36.26   15.28
   2   5  -8   20.40   11.79
   2   5  -8   19.18   13.80
   2   5  -8   16.00   11.14
   2   5  -8   29.96   15.83
  -2  -5   8   25.23   13.73
   2   5  -8   25.71    8.57
  -2  -5   8   17.04   11.24
   1   5  -8   21.23   10.86
  -1  -5   8   27.09   13.94
  -1  -5   8   24.11   12.82
  -1  -5   8   -1.17    8.88
   1   5  -8   26.67   13.35
   1   5  -8   25.78   12.17
  -1  -5   8   21.46   13.10
   1   5  -8   27.00   11.05
   0   5  -8  215.18   22.05
   0  -5   8  191.71   24.88
   0   5  -8  221.64   20.68
   0  -5   8  247.01   25.83
   0  -5   8  169.86   25.99
   0  -5   8  260.56   28.35
   0   5  -8  207.43   23.38
   1  -5   8   44.45   12.58
   1  -5   8   54.31   14.77
  -1   5  -8   38.90    7.96
  -1   5  -8   37.74    7.25
  -1   5  -8   34.84   10.97
   1  -5   8   48.78   15.26
   2  -5   8   22.98    9.66
   2  -5   8   -6.01    7.22
  -2   5  -8    5.51    5.93
   2  -5   8   13.61    9.54
   3  -5   8   86.02   16.60
   3  -5   8   90.32   14.65
  -3   5  -8   95.25   10.98
  -3   5  -8   79.65    9.93
   4  -5   8   19.11    8.68
   4  -5   8   30.85   11.35
   5  -5   8  131.96   15.54
   5  -5   8  138.91   17.22
   5   4  -8   -4.76   12.34
  -5  -4   8    1.59   12.18
  -5  -4   8  -17.12   10.51
   5   4  -8    7.44   13.35
  -4  -4   8    2.42   13.14
   4   4  -8   19.33   14.28
  -4  -4   8   39.73   16.32
   4   4  -8   45.87   15.99
   4   4  -8   29.15   14.73
  -3  -4   8  139.22   24.14
   3   4  -8  149.02   25.82
  -3  -4   8  164.23   26.92
   3   4  -8  162.65   19.33
  -3  -4   8  143.68   25.72
   3   4  -8  105.55   21.05
   3   4  -8  145.94   24.36
  -2  -4   8    6.28   10.52
   2   4  -8   -6.16    9.34
   2   4  -8    3.96   10.37
   2   4  -8    3.40    8.65
   2   4  -8  -12.84    9.91
  -2  -4   8   -2.65    7.10
   2   4  -8    0.26    6.97
  -2  -4   8   -2.45   10.00
  -2  -4   8    3.53    9.95
   2   4  -8    3.50    6.05
  -1  -4   8  384.04   34.35
  -1  -4   8  336.88   33.27
   1   4  -8  349.05   32.49
  -1  -4   8  336.53   30.70
   1   4  -8  384.80   32.38
  -1  -4   8  351.60   35.21
   1   4  -8  356.74   32.40
   1   4  -8  349.04   29.30
   1   4  -8  394.84   32.57
   0   4  -8  267.76   25.06
   0   4  -8  203.61   22.62
   0  -4   8  249.44   24.63
   0   4  -8  223.13   22.08
   0  -4   8  241.78   27.98
   0   4  -8  236.65   21.63
   0  -4   8  204.20   24.82
  -1   4  -8    6.85    5.46
  -1   4  -8    4.66    6.37
   1  -4   8    6.62    8.19
   1  -4   8   -9.45    5.05
  -1   4  -8    1.47    6.77
   1  -4   8    8.29    9.22
   2  -4   8   51.55   14.02
  -2   4  -8   17.42    8.42
  -2   4  -8   20.41    7.87
   2  -4   8   48.68   12.58
   2  -4   8   28.19   10.29
   2  -4   8   29.39   10.73
   3  -4   8    5.36    6.94
   3  -4   8    4.84    8.04
   3  -4   8   10.69    8.85
  -3   4  -8   -1.17    4.89
  -3   4  -8    2.85    5.18
   4  -4   8  107.51   14.26
   4  -4   8   92.88   15.28
   5  -4   8   70.59   12.24
   5  -4   8   52.58   12.83
  -5  -3   8    6.90   12.43
   5   3  -8   -7.05   11.72
   5   3  -8   10.03   12.37
  -5  -3   8    4.69   12.24
   4   3  -8   78.25   17.57
  -4  -3   8   81.98   20.15
   4   3  -8   73.46   18.87
  -4  -3   8   77.75   21.74
  -4  -3   8   56.25   18.76
   4   3  -8  118.67   23.91
   3   3  -8   -0.52    8.34
  -3  -3   8    0.72   10.54
  -3  -3   8  -12.06    9.87
   3   3  -8    2.29    8.18
  -3  -3   8    8.35   11.37
   3   3  -8    6.10   10.93
   3   3  -8    5.79    7.50
  -3  -3   8   -2.73    7.61
   3   3  -8   -8.44    8.97
   2   3  -8  248.19   28.54
  -2  -3   8  205.38   28.45
   2   3  -8  217.12   18.82
  -2  -3   8  250.38   28.34
   2   3  -8  234.77   27.28
  -2  -3   8  234.84   26.70
  -2  -3   8  269.34   27.78
   2   3  -8  222.14   27.23
  -2  -3   8  226.24   27.98
   2   3  -8  220.54   24.91
   2   3  -8  186.93   25.95
  -1  -3   8   63.33   17.47
   1   3  -8   72.46   16.21
  -1  -3   8   47.12   13.01
   1   3  -8   88.24   17.28
   1   3  -8   56.90   12.97
   1   3  -8   59.09   15.50
  -1  -3   8   63.09   16.17
  -1  -3   8   63.22   15.19
   1   3  -8   85.84   17.50
   0   3  -8    7.54    8.65
   0   3  -8   13.20    9.26
   0   3  -8   -2.87    6.88
   0   3  -8    2.52    6.37
   0  -3   8    1.44    7.20
   0  -3   8   15.55    9.39
   0  -3   8   26.51   11.50
   0  -3   8    2.35    6.64
   0   3  -8    3.64    7.62
   1  -3   8  241.15   25.61
  -1   3  -8  183.23   18.53
   1  -3   8  260.56   24.62
   1  -3   8  189.63   20.75
  -1   3  -8  183.17   19.89
   1  -3   8  258.97   25.33
  -1   3  -8  235.55   17.80
   1  -3   8  213.57   21.96
   2  -3   8   58.82   12.80
  -2   3  -8   41.61   10.42
   2  -3   8   47.77   13.31
   2  -3   8   69.01   14.08
   2  -3   8   30.03   11.96
  -2   3  -8   39.84   10.65
   2  -3   8   39.32   11.35
   3  -3   8   62.76   13.28
  -3   3  -8   64.61    9.91
  -3   3  -8   42.92    9.54
   3  -3   8   70.72   12.50
   3  -3   8   63.18   13.68
   3  -3   8   69.79   13.03
  -4   3  -8  248.39   13.51
   4  -3   8  263.63   23.35
   4  -3   8  258.58   15.68
   4  -3   8  241.78   22.86
   4  -3   8  228.44   22.31
   4  -3   8  236.55   20.33
   4  -3   8  281.90   22.74
   5  -3   8   -3.25    6.99
   5  -3   8    6.62    7.64
   5  -3   8    2.16    6.73
   6  -3   8   92.51   15.62
   6  -3   8   97.89   15.09
   6  -3   8  108.38   15.21
  -5  -2   8   49.42   20.04
  -5  -2   8   74.78   18.61
   5   2  -8   55.64   18.62
  -5  -2   8   72.60   20.22
   5   2  -8   79.86   20.90
   4   2  -8    3.85   10.19
  -4  -2   8   21.91   12.05
  -4  -2   8   12.15   11.55
   4   2  -8    4.06   10.27
   4   2  -8   -1.08   10.16
  -4  -2   8    2.94   11.80
   4   2  -8   16.22   11.73
  -4  -2   8   16.37   12.86
  -3  -2   8  384.88   34.00
  -3  -2   8  363.36   36.81
   3   2  -8  340.09   33.34
   3   2  -8  406.96   38.12
   3   2  -8  362.99   32.91
  -3  -2   8  327.50   33.78
  -3  -2   8  301.37   33.46
   3   2  -8  303.65   27.21
  -3  -2   8  321.73   31.11
   3   2  -8  344.64   34.75
  -2  -2   8  410.62   35.68
   2   2  -8  385.02   34.66
   2   2  -8  517.44   29.76
   2   2  -8  477.12   34.51
   2   2  -8  429.77   34.08
  -2  -2   8  352.85   35.02
  -2  -2   8  473.10   34.39
   2   2  -8  373.50   34.64
   2   2  -8  506.50   38.85
  -2  -2   8  422.60   34.51
  -2  -2   8  342.66   33.72
  -1  -2   8   39.92   13.65
   1   2  -8   68.98   15.11
  -1  -2   8   59.53   15.47
   1   2  -8   78.62   17.30
  -1  -2   8   61.55   14.37
   1   2  -8   44.60   13.34
   1   2  -8   55.95   15.00
   1   2  -8   74.92   14.42
  -1  -2   8   68.65   15.29
   0   2  -8  314.74   27.04
   0   2  -8  281.24   22.92
   0  -2   8  269.18   26.84
   0   2  -8  329.53   27.36
   0  -2   8  291.16   25.63
   0  -2   8  254.53   26.75
   0   2  -8  314.19   26.26
   0   2  -8  271.25   25.17
   0  -2   8  296.87   26.24
  -1   2  -8   60.19   10.48
   1  -2   8   81.14   15.69
  -1   2  -8   71.55   12.50
  -1   2  -8   90.65   14.00
   1  -2   8   99.28   17.14
   1  -2   8   68.51   13.57
   1  -2   8   71.99   15.28
  -1   2  -8   77.23   13.86
   1  -2   8   64.86   13.61
  -1   2  -8   81.87   14.02
  -2   2  -8  305.43   16.78
   2  -2   8  304.71   24.77
  -2   2  -8  341.31   24.13
  -2   2  -8  318.08   16.60
   2  -2   8  322.68   27.56
   2  -2   8  306.56   23.97
  -2   2  -8  346.78   25.18
   2  -2   8  305.17   26.34
  -3   2  -8  143.71   15.37
   3  -2   8  164.64   17.35
   3  -2   8  141.02   18.59
   3  -2   8  171.53   19.73
   3  -2   8  228.67   20.57
   3  -2   8  163.63   19.03
  -3   2  -8  177.62   16.07
   4  -2   8   15.52    8.74
   4  -2   8   25.23    9.57
  -4   2  -8   20.69    6.18
   4  -2   8   15.92    8.71
   4  -2   8    7.94    8.08
   4  -2   8   24.61    9.17
  -4   2  -8   31.65    7.31
   5  -2   8  100.93   16.50
   5  -2   8   99.18   14.07
   5  -2   8   82.14   14.58
   6  -2   8  147.23   20.11
   6  -2   8  170.72   18.35
   6   1  -8   23.55   16.71
  -6  -1   8   15.91   13.05
   5   1  -8   68.11   20.18
  -5  -1   8   50.21   17.37
   5   1  -8   66.20   18.77
  -5  -1   8   56.64   17.12
  -5  -1   8   58.57   18.80
  -4  -1   8  207.95   27.36
  -4  -1   8  260.13   31.43
  -4  -1   8  249.20   30.31
   4   1  -8  164.94   27.37
  -4  -1   8  213.71   30.13
   4   1  -8  224.38   26.91
   4   1  -8  229.75   28.92
   4   1  -8  239.51   28.51
  -4  -1   8  210.58   25.55
   3   1  -8   60.87   14.51
   3   1  -8   79.72   19.16
  -3  -1   8   66.05   15.12
  -3  -1   8   82.21   18.97
   3   1  -8   63.91   18.85
   3   1  -8   85.23   17.75
  -3  -1   8   86.90   18.70
   3   1  -8  112.63   20.30
  -3  -1   8   82.45   19.17
   3   1  -8  101.43   21.31
  -3  -1   8   82.31   18.44
  -2  -1   8    3.67    8.26
   2   1  -8   -2.22    6.84
  -2  -1   8    5.44    8.88
  -2  -1   8   -5.96    5.70
   2   1  -8   -4.83    6.86
   2   1  -8    2.10    6.93
   2   1  -8   -0.28    8.20
   2   1  -8   -4.58    6.20
   2   1  -8    6.41    8.50
  -2  -1   8    5.16    7.64
   1   1  -8   70.34   15.59
   1   1  -8  117.69   18.67
  -1  -1   8  105.58   19.00
   1   1  -8   82.46   15.06
  -1  -1   8   83.10   15.71
  -1  -1   8  134.34   20.35
   1   1  -8  130.40   19.89
   1   1  -8   95.61   17.94
  -1  -1   8   94.41   16.98
   0   1  -8   50.92   11.60
   0  -1   8   65.12   13.43
   0  -1   8   40.56   11.79
   0   1  -8   24.40   10.32
   0  -1   8   94.43   17.26
   0   1  -8   33.32   11.08
   0   1  -8   42.19   12.41
   0   1  -8   51.68   12.39
   0  -1   8   48.71   13.41
   0  -1   8   48.36   13.57
   1  -1   8   48.45   12.87
  -1   1  -8   42.72   10.87
  -1   1  -8   49.20   10.17
   1  -1   8   55.65   12.03
   1  -1   8   70.60   13.66
  -1   1  -8   58.76   13.04
  -1   1  -8   66.59   12.84
   1  -1   8   47.25   13.36
  -1   1  -8   72.90   13.89
  -1   1  -8   55.08   12.11
   1  -1   8   54.47   13.59
  -1   1  -8   57.39   10.93
  -2   1  -8  368.62   25.41
   2  -1   8  345.32   16.37
   2  -1   8  323.96   25.57
  -2   1  -8  314.11   20.40
   2  -1   8  301.58   26.89
  -2   1  -8  338.13   25.04
  -2   1  -8  317.57   22.02
  -2   1  -8  334.86   19.82
   2  -1   8  334.61   27.33
   2  -1   8  317.71   24.34
   2  -1   8  306.11   27.14
   3  -1   8   47.04   12.45
  -3   1  -8   62.95   11.20
  -3   1  -8   34.64    9.69
   3  -1   8   39.45   10.14
   3  -1   8   70.59   14.31
   3  -1   8   19.42    9.21
   3  -1   8   26.91   10.06
   4  -1   8  479.87   33.75
   4  -1   8  473.50   32.17
   4  -1   8  479.23   32.83
  -4   1  -8  492.58   27.47
   4  -1   8  440.53   28.78
   4  -1   8  539.89   32.61
  -4   1  -8  472.86   26.81
   5  -1   8  336.71   24.76
   5  -1   8  249.92   24.07
  -5   1  -8  318.99   18.06
   5  -1   8  277.54   26.92
  -5   1  -8  341.34   18.52
   5  -1   8  284.26   26.17
   6  -1   8   10.43    9.91
   6  -1   8    0.44    8.30
   6   0  -8    6.38   13.61
  -6   0   8   -4.47    9.40
  -6   0   8   -2.24   11.42
  -5   0   8   40.83   14.47
   5   0  -8   54.85   18.16
  -5   0   8   63.31   18.46
  -5   0   8   80.00   20.18
   5   0  -8   69.57   18.85
   5   0  -8   98.21   24.96
   4   0  -8  217.52   30.82
   4   0  -8  269.66   29.57
  -4   0   8  343.19   31.91
  -4   0   8  202.51   27.79
  -4   0   8  305.85   33.35
  -4   0   8  225.65   29.85
  -4   0   8  237.03   26.48
   4   0  -8  220.80   27.99
   4   0  -8  240.49   29.31
   3   0  -8    6.12    8.03
  -3   0   8   -6.92    8.60
   3   0  -8   -4.22    8.94
  -3   0   8    5.61    9.67
   3   0  -8    2.59    7.68
  -3   0   8    0.96    9.63
   3   0  -8   -3.12    8.07
  -3   0   8   12.56   10.73
   3   0  -8    8.17    8.96
   3   0  -8   -3.94    8.32
  -3   0   8   -0.83    6.64
  -2   0   8   24.72   12.13
   2   0  -8    8.18    8.68
   2   0  -8   36.22   11.84
   2   0  -8   27.78   13.44
   2   0  -8   13.73   10.11
  -2   0   8   10.01   10.62
  -2   0   8   26.89   10.34
   2   0  -8   12.46    8.61
  -2   0   8   15.60   10.43
   1   0  -8  265.73   24.37
   1   0  -8  333.50   29.46
   1   0  -8  290.46   26.64
  -1   0   8  291.89   28.26
  -1   0   8  280.91   27.88
   1   0  -8  332.79   29.81
  -1   0   8  302.33   27.27
  -1   0   8  264.72   24.93
   1   0  -8  297.89   28.27
  -1   0   8  317.82   30.13
   0   0   8  319.34   26.99
   0   0   8  278.11   27.37
   0   0  -8  314.19   24.20
   0   0  -8  327.32   28.21
   0   0   8  338.26   29.48
   0   0  -8  296.57   26.43
   0   0  -8  278.82   25.62
   0   0  -8  293.31   24.38
   0   0  -8  304.58   26.63
   0   0   8  285.57   24.60
   0   0   8  314.25   28.13
  -1   0  -8  441.37   31.15
   1   0   8  535.05   33.67
  -1   0  -8  439.80   28.10
  -1   0  -8  467.00   31.15
   1   0   8  541.55   35.56
   1   0   8  483.47   24.76
  -1   0  -8  460.76   32.51
   1   0   8  442.22   33.40
   1   0   8  428.10   29.76
   1   0   8  465.07   33.93
  -1   0  -8  501.85   29.24
  -1   0  -8  470.00   31.78
  -1   0  -8  449.63   31.14
  -2   0  -8   55.31   10.28
  -2   0  -8   80.28   13.94
   2   0   8   54.92   11.77
  -2   0  -8   80.43   13.55
   2   0   8   83.46   15.61
   2   0   8   72.78   13.91
  -2   0  -8   83.12   10.79
   2   0   8   62.25   14.11
  -2   0  -8   60.90    9.72
  -2   0  -8   69.82   12.26
   2   0   8   71.59   15.43
  -2   0  -8   70.30   13.32
  -3   0  -8   13.47    4.60
  -3   0  -8    5.93    3.98
   3   0   8   13.33    8.96
   3   0   8    2.48    6.51
  -3   0  -8   20.79    8.31
  -3   0  -8   12.25    7.06
   3   0   8    3.30    7.44
   3   0   8   10.75    8.05
   3   0   8   10.96    8.03
  -4   0  -8  358.10   24.82
   4   0   8  326.42   26.98
   4   0   8  379.05   29.48
   4   0   8  385.85   28.05
   4   0   8  352.44   30.07
  -4   0  -8  380.34   25.41
   4   0   8  349.67   25.80
  -5   0  -8   41.05    9.64
   5   0   8   17.71   10.60
   5   0   8   22.01    9.80
   5   0   8   26.30   12.39
  -5   0  -8   46.66    9.57
   6   0   8   68.54   17.76
   6   0   8   68.37   14.98
  -6   0  -8   87.68    9.99
  -6   1   8    7.84   12.28
   6  -1  -8   21.72   16.09
  -6   1   8   42.92   16.95
  -5   1   8  154.44   22.68
  -5   1   8  233.20   28.07
   5  -1  -8  217.50   31.89
   5  -1  -8  222.56   28.80
   5  -1  -8  267.05   33.03
  -5   1   8  142.76   24.86
   4  -1  -8   15.97   11.21
  -4   1   8   26.88   13.02
   4  -1  -8   17.83   12.38
   4  -1  -8    2.72    9.05
   4  -1  -8   22.94   11.21
  -4   1   8   11.96   12.65
  -4   1   8   21.39   11.60
   4  -1  -8   16.83   11.87
  -4   1   8   11.68   11.88
  -4   1   8   25.48   12.36
   3  -1  -8   31.62   11.97
  -3   1   8   36.07   14.78
   3  -1  -8   24.31   11.86
   3  -1  -8   36.85   14.09
  -3   1   8   18.15   11.88
   3  -1  -8   34.04   14.11
  -3   1   8   59.55   15.05
   3  -1  -8   39.15   14.39
   3  -1  -8   24.00   11.43
  -3   1   8   15.65    9.76
   2  -1  -8  240.69   24.75
  -2   1   8  241.83   26.94
   2  -1  -8  293.40   27.69
   2  -1  -8  264.66   28.65
  -2   1   8  317.96   28.47
   2  -1  -8  234.44   27.12
  -2   1   8  207.08   22.45
  -2   1   8  239.94   27.00
  -1   1   8    5.02    8.73
  -1   1   8   19.73    9.30
   1  -1  -8    8.23    8.53
   1  -1  -8   13.88    9.37
   1  -1  -8   16.13    9.46
  -1   1   8   13.18    8.68
  -1   1   8   19.87   10.67
   1  -1  -8   16.19    9.56
  -1   1   8   24.60   11.31
   1  -1  -8    0.42    5.33
   0   1   8  536.65   35.20
   0  -1  -8  517.91   36.76
   0  -1  -8  577.28   33.90
   0   1   8  513.44   29.96
   0  -1  -8  508.82   32.50
   0  -1  -8  560.44   36.83
   0  -1  -8  531.83   35.91
   0   1   8  539.24   38.01
   0   1   8  554.34   34.34
   0   1   8  536.71   37.06
   0  -1  -8  501.12   34.66
   1   1   8   20.23    9.58
  -1  -1  -8   40.70   10.27
   1   1   8   35.40   11.77
  -1  -1  -8   44.99   12.49
  -1  -1  -8   51.82   12.45
   1   1   8   42.36   12.18
   1   1   8   28.79    8.62
   1   1   8   26.75    9.30
  -1  -1  -8   44.66   12.25
   1   1   8   49.92   12.17
  -1  -1  -8   45.01   11.74
  -1  -1  -8   23.52    8.81
  -1  -1  -8   17.35    8.35
   2   1   8   20.25    9.81
  -2  -1  -8   22.76    9.16
  -2  -1  -8   15.43    7.47
   2   1   8   24.51    8.96
  -2  -1  -8   12.22    8.29
  -2  -1  -8   10.36    6.09
  -2  -1  -8   21.74    9.01
   2   1   8    5.99    7.75
   2   1   8    2.01    7.01
  -2  -1  -8    7.27    7.72
  -2  -1  -8   17.80    7.18
   2   1   8   16.70    8.51
  -3  -1  -8  610.27   36.37
  -3  -1  -8  657.57   30.52
  -3  -1  -8  611.48   33.43
   3   1   8  623.49   37.74
   3   1   8  666.79   42.24
   3   1   8  665.15   39.90
  -3  -1  -8  610.96   30.52
  -3  -1  -8  616.23   36.71
   3   1   8  613.38   40.17
   3   1   8  625.79   36.78
   4   1   8  484.27   31.83
   4   1   8  441.05   33.65
   4   1   8  500.90   34.08
  -4  -1  -8  428.23   29.57
  -4  -1  -8  520.90   31.59
   4   1   8  439.12   34.52
   4   1   8  487.24   33.32
  -5  -1  -8  231.94   20.51
  -5  -1  -8  201.83   19.85
   5   1   8  268.03   28.04
   5   1   8  254.12   26.61
   5   1   8  233.21   23.10
  -6  -1  -8   12.97    7.91
   6   1   8    7.34   10.41
   6   1   8    5.29   10.11
   6   1   8   12.02   10.02
   7   1   8  -10.37   10.07
   7   1   8    7.42   10.80
  -6   2   8  174.03   24.19
  -6   2   8  185.96   27.16
   6  -2  -8  229.59   31.78
   5  -2  -8    6.78   12.36
  -5   2   8   56.15   18.31
   5  -2  -8   14.81   11.85
  -5   2   8   22.25   12.57
   5  -2  -8   46.27   17.86
  -5   2   8   28.74   14.30
  -5   2   8   11.16   10.54
   4  -2  -8   53.04   17.83
  -4   2   8  132.91   22.04
   4  -2  -8   99.61   19.87
  -4   2   8   40.52   13.80
  -4   2   8   61.61   15.64
   4  -2  -8  109.97   20.44
   4  -2  -8   79.51   20.32
  -4   2   8  110.95   22.11
   4  -2  -8   40.69   15.57
  -4   2   8   60.61   17.46
  -3   2   8   21.19   11.77
  -3   2   8   21.67   11.00
   3  -2  -8   10.94   10.79
   3  -2  -8    1.39    8.25
   3  -2  -8    5.49   10.06
   3  -2  -8   19.70    9.89
  -3   2   8   11.47   10.50
  -3   2   8   12.74    9.47
   3  -2  -8   -7.59    6.86
   3  -2  -8    6.21    8.78
   2  -2  -8   70.04   14.65
  -2   2   8  110.69   19.90
   2  -2  -8   67.45   16.60
   2  -2  -8   73.14   18.03
  -2   2   8   75.16   16.06
   2  -2  -8  132.57   20.61
   2  -2  -8  133.26   21.51
  -2   2   8   69.50   15.03
   1  -2  -8  812.20   47.25
   1  -2  -8  753.60   48.04
  -1   2   8  762.15   45.28
   1  -2  -8  831.57   48.86
   1  -2  -8  820.53   48.21
  -1   2   8  805.64   43.74
  -1   2   8  795.85   44.43
  -1   2   8  766.88   47.89
   1  -2  -8  733.10   43.44
   1  -2  -8  812.60   48.50
  -1   2   8  820.15   48.57
   0  -2  -8  239.91   22.50
   0  -2  -8  304.54   27.01
   0   2   8  295.47   23.52
   0  -2  -8  340.26   28.05
   0   2   8  261.77   25.99
   0  -2  -8  300.73   26.87
   0   2   8  246.81   23.47
   0   2   8  273.96   24.98
   0   2   8  263.77   27.06
   0  -2  -8  342.54   29.42
   0   2   8  280.50   27.29
   0  -2  -8  247.98   24.99
  -1  -2  -8  168.62   20.91
  -1  -2  -8  116.74   17.37
  -1  -2  -8  154.46   18.94
   1   2   8  143.67   17.76
  -1  -2  -8  102.50   16.63
   1   2   8  181.35   22.41
  -1  -2  -8  126.59   17.81
   1   2   8  114.51   17.27
   1   2   8  155.26   21.10
   1   2   8  116.09   18.64
  -1  -2  -8  144.00   16.97
  -1  -2  -8  159.90   17.14
   2   2   8  502.58   32.61
  -2  -2  -8  448.30   27.52
  -2  -2  -8  386.59   29.51
   2   2   8  399.14   29.10
  -2  -2  -8  359.70   28.65
  -2  -2  -8  448.44   27.52
   2   2   8  406.38   32.65
   2   2   8  450.19   33.90
  -2  -2  -8  400.52   28.85
  -2  -2  -8  458.90   32.37
  -2  -2  -8  465.45   30.98
   2   2   8  379.74   30.31
  -3  -2  -8  241.62   19.14
  -3  -2  -8  228.07   22.42
  -3  -2  -8  212.05   19.35
   3   2   8  297.10   27.59
  -3  -2  -8  204.93   21.32
   3   2   8  232.75   25.98
   3   2   8  263.25   25.35
   3   2   8  210.72   21.75
  -3  -2  -8  220.18   17.92
  -3  -2  -8  255.29   23.68
   3   2   8  262.85   24.29
  -3  -2  -8  235.17   21.23
   4   2   8  126.66   20.96
  -4  -2  -8   88.92   10.13
  -4  -2  -8   86.15   15.03
  -4  -2  -8  101.83   16.14
  -4  -2  -8  108.00   11.78
   4   2   8   87.41   16.26
   4   2   8   87.62   16.56
   4   2   8   60.06   14.86
   4   2   8   84.14   17.73
  -4  -2  -8  108.13   10.90
   5   2   8  133.42   22.81
   5   2   8  130.73   19.28
   5   2   8  122.85   21.60
  -5  -2  -8  164.82   18.97
  -5  -2  -8  170.52   19.82
   5   2   8  133.45   20.03
  -6  -2  -8   -3.09    7.33
   6   2   8   -3.31    9.01
   6   2   8    1.25    9.49
   7   2   8   62.47   19.18
  -7  -2  -8   74.16   14.18
   7   2   8   92.27   20.68
   6  -3  -8   60.73   21.79
  -6   3   8   66.34   19.03
   6  -3  -8   46.80   18.35
   5  -3  -8   38.50   13.99
   5  -3  -8   20.37   15.07
  -5   3   8   31.43   13.03
  -5   3   8   36.81   14.89
   4  -3  -8  168.89   27.84
   4  -3  -8  221.48   29.97
   4  -3  -8  236.11   26.73
  -4   3   8  213.50   24.90
  -4   3   8  258.50   28.04
   4  -3  -8  197.55   26.10
  -4   3   8  187.63   26.04
   4  -3  -8  205.00   29.30
  -4   3   8  183.98   22.83
   3  -3  -8   17.10   10.27
  -3   3   8   15.27    9.92
  -3   3   8   24.93   11.80
   3  -3  -8   12.96   12.11
   3  -3  -8   23.74   12.09
  -3   3   8   15.45   10.83
   3  -3  -8   21.43   11.00
   3  -3  -8   15.29   10.59
  -2   3   8  280.91   28.22
   2  -3  -8  295.64   30.25
  -2   3   8  275.05   27.32
  -2   3   8  317.95   28.37
   2  -3  -8  255.28   27.25
   2  -3  -8  291.12   28.78
   2  -3  -8  260.31   28.42
  -2   3   8  260.00   25.17
   2  -3  -8  292.55   30.19
  -2   3   8  297.37   29.41
   2  -3  -8  257.68   25.40
  -1   3   8  501.19   37.38
   1  -3  -8  528.94   38.96
  -1   3   8  518.85   35.33
   1  -3  -8  492.46   37.27
  -1   3   8  460.16   33.22
   1  -3  -8  550.75   37.75
  -1   3   8  509.06   35.35
   1  -3  -8  618.69   37.13
  -1   3   8  470.71   36.11
   1  -3  -8  546.55   37.74
   0  -3  -8   39.36   12.38
   0   3   8   53.25   13.96
   0   3   8   32.18   11.11
   0  -3  -8   23.09   10.49
   0   3   8   25.88   12.19
   0   3   8   51.22   12.64
   0   3   8   36.37   11.75
   0  -3  -8   44.66   12.67
   0  -3  -8   29.15   11.82
   0  -3  -8   26.98    9.52
   0   3   8   32.89   13.48
   0  -3  -8   34.94   11.29
   1   3   8  543.63   35.47
   1   3   8  547.04   38.43
   1   3   8  446.97   32.29
  -1  -3  -8  478.72   34.42
  -1  -3  -8  451.50   35.33
  -1  -3  -8  566.74   36.74
   1   3   8  488.69   36.56
  -1  -3  -8  475.17   34.26
   1   3   8  493.10   35.64
  -1  -3  -8  465.31   31.00
   2   3   8  789.83   49.24
   2   3   8  832.43   51.34
  -2  -3  -8  843.14   47.01
   2   3   8  881.62   48.62
   2   3   8  825.58   46.03
  -2  -3  -8  826.14   47.67
  -2  -3  -8  844.53   43.59
   2   3   8  839.56   48.97
  -2  -3  -8  810.64   46.73
  -2  -3  -8  859.43   47.05
  -2  -3  -8  984.54   52.26
   3   3   8  372.84   32.77
  -3  -3  -8  422.05   29.33
  -3  -3  -8  420.45   30.84
  -3  -3  -8  451.42   32.95
   3   3   8  491.76   34.57
  -3  -3  -8  369.80   30.36
   3   3   8  348.68   28.98
   3   3   8  426.31   33.25
  -3  -3  -8  453.94   30.52
   3   3   8  355.02   33.45
  -3  -3  -8  417.39   26.98
   4   3   8  213.35   24.29
  -4  -3  -8  154.61   20.31
  -4  -3  -8  192.77   16.90
   4   3   8  169.86   21.10
   4   3   8  179.22   24.41
   4   3   8  202.71   26.53
  -4  -3  -8  178.46   18.80
  -4  -3  -8  195.33   18.37
  -5  -3  -8   25.78   11.14
  -5  -3  -8   41.09    8.32
  -5  -3  -8   26.21    7.51
   5   3   8   16.43   11.50
   5   3   8   34.36   14.99
   5   3   8   18.80   11.75
   5   3   8   32.39   12.51
  -5  -3  -8   24.33    6.72
   6   3   8  139.40   22.27
   6   3   8  122.90   24.46
  -6  -3  -8  121.18   18.71
   6   3   8   99.67   22.49
  -6   4   8    9.97   11.79
   6  -4  -8   12.02   13.60
   6  -4  -8    0.03   11.21
  -5   4   8  113.09   21.51
   5  -4  -8   94.43   20.83
   5  -4  -8  104.26   24.67
  -5   4   8  104.89   18.70
   4  -4  -8   76.75   20.81
  -4   4   8   72.08   16.02
   4  -4  -8   71.08   17.13
   4  -4  -8   86.97   19.89
   4  -4  -8  101.10   22.29
  -4   4   8   67.65   17.91
  -4   4   8   59.68   15.39
  -3   4   8  182.96   22.10
   3  -4  -8  228.76   27.23
   3  -4  -8  192.21   24.09
   3  -4  -8  156.71   24.31
  -3   4   8  195.46   23.65
  -3   4   8  196.01   24.86
   3  -4  -8  177.07   26.56
   3  -4  -8  207.77   26.89
   3  -4  -8  270.06   30.86
   2  -4  -8   49.87   13.01
  -2   4   8   21.35   11.05
  -2   4   8   24.50   11.76
  -2   4   8   46.06   13.85
   2  -4  -8   29.06   11.74
  -2   4   8   22.15   11.78
   2  -4  -8   33.02   13.79
   2  -4  -8   17.29   10.44
  -2   4   8   24.70   11.55
   2  -4  -8   44.03   15.13
   2  -4  -8   46.53   14.32
  -1   4   8   12.60    8.52
  -1   4   8   -1.52    7.82
  -1   4   8   17.11   11.04
  -1   4   8   12.35    8.79
   1  -4  -8    8.78    9.05
   1  -4  -8    9.38    8.45
   1  -4  -8   -4.18    6.16
  -1   4   8   -6.06    6.21
   1  -4  -8   13.48    9.91
   1  -4  -8   21.93   10.68
   1  -4  -8   -5.63    7.08
   0   4   8  522.38   37.33
   0   4   8  487.10   36.23
   0  -4  -8  550.36   39.93
   0  -4  -8  505.42   37.20
   0   4   8  486.71   35.18
   0  -4  -8  562.88   37.59
   0  -4  -8  442.14   32.48
   0   4   8  504.46   37.58
   0  -4  -8  552.89   37.88
   0   4   8  478.32   37.43
   0   4   8  502.56   34.51
   0  -4  -8  541.66   37.95
  -1  -4  -8  104.55   17.39
  -1  -4  -8   60.12   14.84
  -1  -4  -8   68.62   15.05
   1   4   8   70.20   16.72
   1   4   8   84.42   16.50
   1   4   8   68.47   14.42
   1   4   8   89.04   18.49
  -1  -4  -8   77.50   15.91
   1   4   8   71.05   16.08
  -1  -4  -8   57.16   12.82
  -1  -4  -8   55.21   15.45
  -2  -4  -8    2.13    8.90
  -2  -4  -8   13.47    9.55
  -2  -4  -8   35.31   11.48
   2   4   8   25.18   10.95
   2   4   8   18.46   11.11
  -2  -4  -8   14.95    8.56
   2   4   8    3.45    8.70
  -2  -4  -8   18.94    8.28
   2   4   8   52.69   13.82
   3   4   8  989.57   55.66
  -3  -4  -8 1004.98   56.83
   3   4   8 1008.71   60.54
   3   4   8 1036.91   58.94
   3   4   8 1042.93   57.44
  -3  -4  -8 1036.48   54.42
  -3  -4  -8  981.14   52.83
  -3  -4  -8 1021.55   55.46
   3   4   8 1052.11   54.69
  -3  -4  -8  981.81   50.55
   4   4   8    7.59    9.93
   4   4   8   -0.09    8.46
  -4  -4  -8    0.72    7.36
   4   4   8    1.36    6.50
   4   4   8   -7.63    6.93
  -4  -4  -8    1.11    7.49
  -4  -4  -8   11.71    9.54
  -4  -4  -8    6.72    6.71
   5   4   8  143.76   22.68
   5   4   8  202.23   28.93
   5   4   8  205.24   26.43
  -5  -4  -8  175.48   22.86
  -5  -4  -8  194.95   18.12
  -5  -4  -8  196.56   19.64
   5   4   8  219.97   28.99
   6   4   8  224.78   31.90
  -6  -4  -8  216.23   25.42
  -6  -4  -8  209.91   15.98
   6   4   8  263.83   29.67
   6   4   8  169.46   28.14
   5  -5  -8    4.14   12.30
   5  -5  -8    1.68   10.38
  -5   5   8    2.36   10.43
   5  -5  -8   -1.42   10.20
  -5   5   8   -7.63    8.53
  -4   5   8   63.09   16.17
  -4   5   8   55.14   15.71
   4  -5  -8   87.89   22.06
   4  -5  -8   58.00   18.35
   4  -5  -8   71.82   19.45
   4  -5  -8   63.63   16.91
   4  -5  -8   63.27   17.51
   3  -5  -8  272.67   27.88
  -3   5   8  303.35   32.88
  -3   5   8  249.35   25.37
   3  -5  -8  216.95   27.58
   3  -5  -8  285.40   31.05
   3  -5  -8  265.07   31.92
   3  -5  -8  239.00   28.33
  -3   5   8  236.51   27.06
  -3   5   8  321.91   29.15
  -2   5   8   14.54    9.48
   2  -5  -8   15.33   10.27
   2  -5  -8   43.26   14.76
  -2   5   8   21.04   11.35
  -2   5   8   26.03   12.28
   2  -5  -8   12.95    9.10
   2  -5  -8   18.11    9.78
   2  -5  -8   33.12   13.11
  -2   5   8    6.69    8.93
  -2   5   8   14.12   10.53
   2  -5  -8    8.65    9.34
  -1   5   8  344.64   30.26
   1  -5  -8  265.28   28.32
   1  -5  -8  391.03   35.48
  -1   5   8  399.92   34.72
  -1   5   8  396.61   34.05
  -1   5   8  357.93   29.66
   1  -5  -8  369.67   33.05
  -1   5   8  379.17   32.09
   1  -5  -8  301.21   31.07
   1  -5  -8  334.02   31.61
   1  -5  -8  308.42   28.76
   0  -5  -8  304.87   27.62
   0   5   8  335.16   31.59
   0  -5  -8  286.84   29.88
   0  -5  -8  368.61   33.73
   0   5   8  368.87   31.77
   0   5   8  367.38   30.32
   0  -5  -8  357.60   30.97
   0  -5  -8  332.05   31.26
   0   5   8  313.52   31.41
   0   5   8  317.10   31.43
  -1  -5  -8  269.61   29.69
  -1  -5  -8  326.90   29.71
   1   5   8  301.31   31.10
  -1  -5  -8  335.65   29.38
   1   5   8  291.83   30.86
  -1  -5  -8  291.96   28.84
   1   5   8  297.51   28.76
   1   5   8  343.15   28.61
  -1  -5  -8  267.57   25.45
   2   5   8  279.88   28.45
  -2  -5  -8  192.32   21.49
   2   5   8  222.87   24.56
   2   5   8  248.72   28.89
  -2  -5  -8  247.81   26.30
  -2  -5  -8  274.16   27.10
   2   5   8  278.02   29.72
   2   5   8  243.20   26.15
  -2  -5  -8  214.94   26.91
   3   5   8  538.49   41.62
   3   5   8  570.85   44.07
   3   5   8  479.29   38.52
  -3  -5  -8  574.83   39.76
  -3  -5  -8  595.92   42.93
   3   5   8  558.33   38.88
  -3  -5  -8  512.23   35.06
  -3  -5  -8  587.93   39.38
  -3  -5  -8  556.42   39.42
   3   5   8  559.62   40.08
   4   5   8  353.69   32.26
  -4  -5  -8  404.19   28.93
   4   5   8  288.43   31.84
  -4  -5  -8  423.24   33.00
   4   5   8  278.41   33.62
  -4  -5  -8  362.93   32.06
  -4  -5  -8  348.50   30.20
   4   5   8  356.33   35.79
  -5  -5  -8  269.89   28.93
   5   5   8  367.19   38.53
   5   5   8  255.31   32.89
   5   5   8  297.11   31.35
  -5  -5  -8  289.25   24.65
   6   5   8   16.99   14.43
   6   5   8    3.74   11.43
  -6  -5  -8   11.60    8.28
   6   5   8   37.50   17.51
  -5   6   8   41.32   15.06
   5  -6  -8   38.03   15.70
   5  -6  -8   43.64   17.93
   5  -6  -8   18.16   14.66
  -4   6   8   36.97   13.99
   4  -6  -8   27.06   13.15
  -4   6   8   42.02   13.19
   4  -6  -8   31.26   14.84
   4  -6  -8   23.37   13.81
   4  -6  -8   46.13   15.97
   3  -6  -8  143.50   25.79
   3  -6  -8  166.35   25.05
  -3   6   8  164.05   22.03
  -3   6   8  144.51   26.35
   3  -6  -8  177.49   26.29
  -3   6   8  179.36   21.89
   3  -6  -8  178.17   23.98
   3  -6  -8  142.83   24.14
   2  -6  -8   53.18   14.29
  -2   6   8   22.50   12.17
   2  -6  -8   37.31   15.38
  -2   6   8   46.29   13.49
   2  -6  -8   52.15   16.81
   2  -6  -8   43.95   14.93
  -2   6   8   52.50   16.93
   2  -6  -8   31.02   12.77
  -2   6   8   44.89   14.06
   2  -6  -8   50.31   15.59
  -1   6   8  395.10   34.94
   1  -6  -8  343.36   32.85
  -1   6   8  365.54   33.53
   1  -6  -8  333.22   34.63
  -1   6   8  322.18   29.00
   1  -6  -8  366.21   32.81
  -1   6   8  325.17   33.41
  -1   6   8  348.83   30.80
   1  -6  -8  331.09   29.91
   1  -6  -8  390.73   35.38
   1  -6  -8  352.32   33.59
   0   6   8   22.29   11.85
   0  -6  -8   12.57   11.10
   0   6   8   32.54   13.26
   0  -6  -8   21.03    9.70
   0  -6  -8   15.13   10.67
   0  -6  -8   21.73   10.40
   0   6   8   11.43   10.56
   0   6   8   37.81   13.74
   0  -6  -8   18.02   10.97
   0  -6  -8   22.52   11.52
   0   6   8   14.28   11.70
  -1  -6  -8   78.01   16.87
  -1  -6  -8  149.69   21.61
   1   6   8  130.89   20.59
   1   6   8  114.36   21.84
   1   6   8  109.47   21.27
  -1  -6  -8  113.73   18.16
  -1  -6  -8  107.51   19.94
  -1  -6  -8  103.05   21.73
   1   6   8   49.63   14.58
   2   6   8    3.28    8.54
  -2  -6  -8    5.19    6.96
  -2  -6  -8    2.27    9.04
   2   6   8   17.22   10.91
  -2  -6  -8   -7.45    9.07
  -2  -6  -8   -7.92    6.28
   2   6   8   16.72   11.30
  -2  -6  -8   -4.01    6.49
   2   6   8   -1.46    8.91
   2   6   8   -4.97    7.51
  -3  -6  -8   11.27    8.16
   3   6   8    0.30    8.12
  -3  -6  -8    2.44    5.66
  -3  -6  -8    8.99   12.14
   3   6   8    0.55    8.52
   3   6   8   23.13   13.35
  -3  -6  -8    7.72   10.19
  -3  -6  -8   -0.16    8.73
   3   6   8    3.25    8.89
   4   6   8  649.64   46.35
  -4  -6  -8  611.64   40.29
  -4  -6  -8  686.17   45.72
   4   6   8  681.30   50.60
  -4  -6  -8  676.02   45.06
   4   6   8  550.32   49.26
  -4  -6  -8  671.17   46.25
   4   6   8  661.56   47.95
   5   6   8   62.59   19.09
   5   6   8   96.26   24.30
   5   6   8   49.92   20.00
  -5  -6  -8   65.18   17.97
  -5  -6  -8   87.16   16.06
   6   6   8   61.60   19.78
   6   6   8  102.97   26.70
   6   6   8   82.28   23.58
  -6  -6  -8   73.28   15.32
   5  -7  -8  228.18   30.87
  -5   7   8  244.81   25.98
   5  -7  -8  242.67   34.17
   4  -7  -8   41.33   16.51
   4  -7  -8   34.29   15.45
   4  -7  -8   40.12   15.04
  -4   7   8   30.35   12.57
   3  -7  -8    3.04    9.89
   3  -7  -8    7.80   10.80
  -3   7   8    6.43    8.40
  -3   7   8   -2.80   10.26
   3  -7  -8    5.56   11.15
  -3   7   8   -1.09   11.35
   3  -7  -8    8.13   11.38
   3  -7  -8    0.46    9.22
  -2   7   8   78.75   17.28
   2  -7  -8   68.06   19.66
   2  -7  -8   82.82   19.14
  -2   7   8   89.91   21.54
   2  -7  -8  100.17   20.86
  -2   7   8   51.77   15.69
   2  -7  -8   69.05   17.24
   2  -7  -8   89.32   19.88
  -2   7   8   60.92   16.26
   1  -7  -8   -4.00    7.83
   1  -7  -8   -0.25    6.93
   1  -7  -8    3.14    9.82
  -1   7   8    1.28    8.41
  -1   7   8   10.50    9.94
   1  -7  -8    4.09   10.86
  -1   7   8   -7.88    8.34
   1  -7  -8    8.64    9.31
   1  -7  -8    2.71    8.44
  -1   7   8   -8.53    6.96
  -1   7   8    1.05    8.03
   0  -7  -8  663.15   42.65
   0   7   8  575.69   44.51
   0  -7  -8  547.56   42.44
   0   7   8  613.73   43.10
   0  -7  -8  618.35   43.59
   0   7   8  613.00   44.53
   0   7   8  620.79   41.81
   0  -7  -8  632.95   47.79
   0  -7  -8  643.67   46.37
   1   7   8  788.08   54.47
   1   7   8  826.66   50.87
   1   7   8  938.06   54.95
  -1  -7  -8  926.17   56.77
  -1  -7  -8  872.27   51.47
  -1  -7  -8  970.92   60.30
  -1  -7  -8  834.20   52.92
   1   7   8  850.86   54.96
   2   7   8   33.64   13.97
   2   7   8   33.93   14.34
  -2  -7  -8   53.66   16.72
   2   7   8   35.70   14.83
   2   7   8   22.20   12.69
   2   7   8   20.67   13.30
  -2  -7  -8   26.94   15.18
  -2  -7  -8   29.79   11.64
  -2  -7  -8   40.30   14.94
  -2  -7  -8   42.05   13.78
  -3  -7  -8  381.90   33.50
   3   7   8  418.77   38.90
  -3  -7  -8  479.09   39.46
  -3  -7  -8  514.09   43.74
  -3  -7  -8  440.25   37.81
   3   7   8  419.82   37.86
   3   7   8  413.67   42.59
  -3  -7  -8  419.79   37.04
   3   7   8  432.23   40.88
   4   7   8  149.10   27.18
  -4  -7  -8  115.70   22.07
  -4  -7  -8   94.75   21.04
   4   7   8  144.88   29.05
   4   7   8   86.61   21.08
  -4  -7  -8  121.86   20.22
   5   7   8   36.19   18.54
   5   7   8    9.73   14.56
   5   7   8    6.50   11.59
  -5  -7  -8   49.55   14.13
   4  -8  -8   44.75   17.57
   4  -8  -8   26.29   14.29
   4  -8  -8   61.99   19.49
  -3   8   8  206.47   24.26
   3  -8  -8  186.83   26.55
  -3   8   8  141.07   29.40
   3  -8  -8  206.71   30.05
   3  -8  -8  232.41   29.91
  -2   8   8   60.88   16.33
   2  -8  -8   42.25   15.54
   2  -8  -8   40.02   16.02
  -2   8   8   96.45   24.16
  -2   8   8   58.13   16.86
   2  -8  -8   49.12   17.94
  -2   8   8   28.17   12.96
   2  -8  -8   57.28   15.21
   2  -8  -8   23.44   14.39
   1  -8  -8   47.80   16.11
  -1   8   8   57.26   19.08
  -1   8   8   61.42   16.55
   1  -8  -8   41.85   15.39
   1  -8  -8   54.72   15.00
  -1   8   8   47.63   16.49
  -1   8   8   53.72   16.61
   1  -8  -8   90.39   20.61
  -1   8   8   32.57   15.32
   1  -8  -8   70.13   20.35
   0   8   8  301.77   30.10
   0   8   8  248.86   29.35
   0  -8  -8  282.91   31.72
   0  -8  -8  300.56   32.03
   0   8   8  286.63   32.22
   0  -8  -8  334.68   36.73
   0  -8  -8  250.23   28.08
   0   8   8  282.39   33.08
  -1  -8  -8   -3.81    9.12
   1   8   8    2.63    9.55
   1   8   8    4.32   11.36
   1   8   8    3.13    9.87
  -1  -8  -8    1.95    9.89
  -1  -8  -8   24.94   15.42
   1   8   8   -6.01    9.03
  -1  -8  -8    0.81    8.66
   1   8   8   -6.38    8.62
  -1  -8  -8   -3.59    8.25
  -2  -8  -8  150.98   25.09
  -2  -8  -8  198.27   25.96
   2   8   8  205.94   29.56
   2   8   8  210.52   29.06
   2   8   8  244.73   31.10
   2   8   8  171.74   25.55
  -2  -8  -8  191.06   28.05
   2   8   8  182.12   30.00
  -2  -8  -8  240.44   29.17
   3   8   8  394.94   42.70
   3   8   8  321.54   35.04
   3   8   8  438.21   41.74
  -3  -8  -8  347.46   35.24
   3   8   8  316.07   36.29
  -3  -8  -8  373.46   34.26
  -3  -8  -8  380.59   37.67
  -4  -8  -8    0.99    8.79
  -4  -8  -8   -5.50   12.55
   4   8   8    5.73   12.34
   4   8   8   18.96   14.30
   4   8   8    6.39   11.46
   5   8   8  138.38   30.24
   5   8   8   98.01   25.33
  -5  -8  -8  151.70   23.79
   4  -9  -8  130.12   25.67
   4  -9  -8   85.68   23.37
  -3   9   8   -1.07   10.89
   3  -9  -8   -0.07   12.63
   3  -9  -8    0.81   10.82
   3  -9  -8   14.03   12.53
  -2   9   8   57.07   17.29
   2  -9  -8   36.47   15.12
   2  -9  -8   51.25   18.33
   2  -9  -8   76.00   19.33
  -2   9   8   50.21   16.19
  -2   9   8   57.77   20.60
   1  -9  -8  343.03   35.05
  -1   9   8  289.01   31.80
   1  -9  -8  266.00   30.57
  -1   9   8  266.34   29.38
  -1   9   8  297.63   33.23
  -1   9   8  314.78   38.58
   1  -9  -8  283.81   33.70
   0   9   8    0.10    8.73
   0  -9  -8   -5.85    9.72
   0  -9  -8    1.58    9.64
   0   9   8   -4.60   10.30
   0  -9  -8   18.23   11.65
   0   9   8    2.45   10.68
   1   9   8  448.59   40.67
   1   9   8  367.34   39.19
   1   9   8  406.94   40.76
  -1  -9  -8  335.92   36.37
  -1  -9  -8  387.52   36.34
  -1  -9  -8  405.19   39.30
   1   9   8  394.18   37.06
   2   9   8  271.92   32.30
  -2  -9  -8  254.51   31.96
   2   9   8  300.22   35.98
  -2  -9  -8  342.84   34.01
   2   9   8  321.74   36.79
  -3  -9  -8    8.26   16.33
  -3  -9  -8   -3.40    7.29
   3   9   8   21.52   14.44
   3   9   8    2.14   12.17
   4   9   8  618.89   51.43
  -4  -9  -8  607.38   46.15
   4   9   8  572.91   54.06
   3 -10  -8    6.18   12.03
   3 -10  -8   -6.61   12.45
  -2  10   8  176.26   24.96
  -2  10   8  217.04   28.08
   2 -10  -8  146.79   27.68
   2 -10  -8  167.30   29.00
   2 -10  -8  210.84   29.13
  -1  10   8   70.23   18.32
   1 -10  -8   31.25   16.32
  -1  10   8   67.75   19.22
   1 -10  -8   58.16   17.72
   1 -10  -8   52.32   19.10
   0 -10  -8  247.33   33.12
   0 -10  -8  265.97   31.92
   0  10   8  271.58   33.29
   0  10   8  268.71   31.29
   0  10   8  241.68   32.10
   1  10   8  192.74   30.55
   1  10   8  184.04   30.54
  -1 -10  -8  141.96   26.75
   1  10   8  164.30   26.89
   1  10   8  219.17   32.85
  -1 -10  -8  173.53   27.38
   2  10   8   65.39   20.99
   2  10   8   79.84   21.60
  -2 -10  -8   82.15   20.47
   3  10   8   13.53   13.79
  -3 -10  -8   10.06   13.01
   3  10   8    2.72   13.08
   1 -11  -8   15.87   14.43
  -1  11   8   34.43   16.50
  -1  11   8   40.38   17.67
   1 -11  -8   45.54   19.69
   0  11   8  183.28   29.74
   0 -11  -8  181.38   29.11
   0  11   8  186.99   27.88
   1  11   8   26.68   16.26
   1  11   8   -4.72   12.22
  -1 -11  -8    9.77   13.55
   2  11   8   52.74   20.04
  -2 -11  -8   97.34   23.79
  -1  -7   9    6.63   12.88
   1   7  -9   33.38   13.74
  -1  -7   9   22.65   16.47
   0   7  -9   41.66   11.67
   0  -7   9   29.34   14.57
   0  -7   9   35.88   17.96
   1  -7   9   95.02   20.60
   2  -7   9   15.50   14.29
   2  -7   9   20.01   12.17
  -2  -6   9   20.31   16.51
  -2  -6   9   18.87   14.54
   2   6  -9   34.56   14.55
  -2  -6   9   23.63   17.42
   2   6  -9    6.52   12.93
  -1  -6   9   97.28   24.02
  -1  -6   9   31.26   17.31
  -1  -6   9   54.03   17.21
   1   6  -9   34.62   13.35
   1   6  -9   48.17   16.62
   0  -6   9  193.27   29.46
   0   6  -9  209.31   25.32
   0   6  -9  194.73   20.25
   0  -6   9  187.05   25.85
   1  -6   9    7.60   12.12
   1  -6   9   14.77   10.58
   1  -6   9   24.44   13.56
  -2   6  -9   -3.87    8.03
   2  -6   9    3.92   10.94
   2  -6   9    4.18    8.55
   3  -6   9  113.36   18.76
  -3   6  -9  121.45   13.66
   3  -6   9  114.26   21.21
   3   5  -9   41.19   16.95
  -3  -5   9   37.78   16.92
  -3  -5   9   93.34   24.94
   3   5  -9   43.30   18.72
   2   5  -9   34.26   14.12
  -2  -5   9    2.37   14.04
   2   5  -9   11.89   11.65
  -2  -5   9   11.78   14.83
  -2  -5   9   11.31   12.01
   1   5  -9  172.09   25.94
   1   5  -9  159.59   24.29
   1   5  -9  155.97   21.80
  -1  -5   9  210.24   30.11
  -1  -5   9  156.18   24.88
  -1  -5   9  184.64   27.94
   0  -5   9  106.60   21.45
   0   5  -9   76.62   17.09
   0  -5   9   51.00   17.23
   0   5  -9  108.13   15.86
   0  -5   9   74.59   17.19
   0  -5   9   47.64   17.17
   1  -5   9   22.61   11.79
  -1   5  -9   14.44    6.08
   1  -5   9   47.09   15.31
  -1   5  -9   10.42    9.19
   1  -5   9   28.94   14.27
  -1   5  -9   17.98    6.88
  -2   5  -9    5.83    7.66
   2  -5   9    4.23   10.85
   2  -5   9    8.65    9.31
  -2   5  -9   16.78    9.61
  -3   5  -9    6.23    7.42
   3  -5   9   19.55   11.88
   3  -5   9    9.38    9.22
   4  -5   9  152.54   19.20
   4  -5   9  138.38   20.46
   4   4  -9   43.86   17.52
  -4  -4   9   31.00   17.88
  -4  -4   9   23.36   15.18
  -3  -4   9   -4.55    9.80
   3   4  -9   15.16   15.97
  -3  -4   9   -7.44   12.93
   3   4  -9    2.55   10.51
  -3  -4   9   12.56   13.12
   3   4  -9    2.02    9.20
  -2  -4   9  106.46   24.09
  -2  -4   9   93.94   21.48
  -2  -4   9   99.63   22.80
   2   4  -9  100.74   22.00
   2   4  -9   99.15   12.97
   2   4  -9   96.33   21.82
   2   4  -9  128.56   22.00
   1   4  -9   38.56   15.91
   1   4  -9   38.80   13.85
   1   4  -9   33.30   12.55
  -1  -4   9   54.90   18.24
  -1  -4   9   55.35   18.19
  -1  -4   9   58.07   16.57
   1   4  -9   26.61   12.86
  -1  -4   9   65.82   17.77
   0  -4   9   -0.09    8.97
   0   4  -9    5.28    8.61
   0  -4   9   14.54    9.34
   0   4  -9   10.80   10.06
   0  -4   9    6.20   10.87
   0   4  -9   10.05    8.12
  -1   4  -9  365.06   23.94
  -1   4  -9  328.97   21.75
   1  -4   9  312.55   32.45
   1  -4   9  351.13   31.93
  -1   4  -9  308.53   27.21
   1  -4   9  295.72   28.40
   2  -4   9   17.56   11.49
  -2   4  -9   14.71    8.14
   2  -4   9    9.37    8.60
   2  -4   9   12.84    9.65
  -2   4  -9    6.49    8.31
  -3   4  -9   63.57   11.79
  -3   4  -9   57.13   10.35
   3  -4   9   85.65   17.19
   3  -4   9   57.52   14.08
   4  -4   9  146.58   18.23
   4  -4   9  171.77   21.69
   5  -4   9    0.82    7.65
   5  -4   9    1.46    8.88
  -4  -3   9   -7.44   10.78
  -4  -3   9   34.37   17.07
   4   3  -9   -1.29   11.30
   4   3  -9    4.90   12.10
  -3  -3   9  131.35   23.86
  -3  -3   9  171.67   28.43
   3   3  -9   92.89   21.67
   3   3  -9  108.40   24.68
   3   3  -9  157.32   24.56
   3   3  -9  136.97   18.97
  -3  -3   9  111.55   24.65
  -2  -3   9  124.88   24.01
  -2  -3   9   82.90   21.38
   2   3  -9   71.21   17.02
  -2  -3   9  102.79   21.27
   2   3  -9   74.90   20.48
   2   3  -9  154.30   24.28
   2   3  -9  129.21   23.12
   2   3  -9  139.07   24.84
  -1  -3   9    1.15    8.78
   1   3  -9   12.05    9.90
   1   3  -9    3.44    9.82
   1   3  -9   -8.01    8.38
  -1  -3   9   -9.64    8.52
   1   3  -9   -4.71    6.32
  -1  -3   9   -9.83    5.58
   1   3  -9    6.67   11.21
   0   3  -9  183.80   22.92
   0  -3   9  203.20   27.16
   0  -3   9  187.65   23.24
   0   3  -9  230.17   22.16
   0  -3   9  213.31   26.46
   0   3  -9  199.59   22.63
   0   3  -9  244.40   25.20
  -1   3  -9   68.97   11.80
  -1   3  -9   99.89   16.47
   1  -3   9   63.59   15.01
   1  -3   9   94.38   18.48
   1  -3   9  103.01   20.09
  -2   3  -9  216.87   20.78
   2  -3   9  215.64   25.43
   2  -3   9  232.47   23.08
   2  -3   9  206.13   24.45
  -2   3  -9  189.57   20.92
  -3   3  -9  128.48   15.92
  -3   3  -9  138.74   15.17
   3  -3   9  122.10   17.05
   3  -3   9  149.10   20.74
   3  -3   9  123.46   20.10
   4  -3   9   50.68   13.93
  -4   3  -9   65.32    9.27
   4  -3   9   65.73   13.76
  -4   3  -9   56.50    8.17
   5  -3   9   49.98   13.11
   5  -3   9   56.65   14.92
   5  -3   9   64.98   13.79
  -5  -2   9   11.61   13.02
   5   2  -9   29.27   17.16
   5   2  -9   -6.27   11.66
  -4  -2   9   87.35   22.67
   4   2  -9  151.74   23.57
   4   2  -9   71.89   20.13
  -4  -2   9  122.29   22.53
  -3  -2   9   69.79   19.58
   3   2  -9   72.46   20.89
   3   2  -9   83.68   20.22
   3   2  -9   97.58   20.40
   3   2  -9   85.44   16.31
  -3  -2   9   72.37   18.38
  -3  -2   9   61.89   19.44
  -2  -2   9   21.94   12.34
   2   2  -9    3.67   11.36
   2   2  -9    8.64   10.71
   2   2  -9   16.11    9.66
  -2  -2   9   14.28   11.43
  -2  -2   9   19.10   10.83
   2   2  -9   19.24   12.64
   2   2  -9    6.80   11.49
   1   2  -9  202.16   25.11
   1   2  -9  167.27   24.27
   1   2  -9  117.60   20.49
  -1  -2   9  250.27   26.38
  -1  -2   9  156.38   24.64
   1   2  -9  155.67   22.91
   1   2  -9  164.70   21.04
  -1  -2   9  193.72   26.21
   0  -2   9   13.92   10.02
   0   2  -9   10.61    8.80
   0   2  -9    4.20    7.56
   0   2  -9    7.09    7.26
   0  -2   9    7.30    9.55
   0   2  -9   17.21   11.05
   0  -2   9   -1.05    8.03
   0   2  -9    0.61    8.50
   1  -2   9  117.19   19.79
   1  -2   9  131.04   18.60
  -1   2  -9  109.61   13.97
  -1   2  -9  104.17   16.00
   1  -2   9   90.06   18.32
  -1   2  -9  106.48   15.56
  -1   2  -9  128.86   18.74
   1  -2   9   98.37   19.15
  -1   2  -9   73.58   15.05
  -2   2  -9  308.72   18.11
   2  -2   9  303.07   29.02
   2  -2   9  361.30   31.27
   2  -2   9  280.32   25.50
  -2   2  -9  279.10   25.05
  -2   2  -9  341.44   19.00
  -2   2  -9  358.45   26.60
   3  -2   9   35.51   13.04
  -3   2  -9   17.92    8.57
   3  -2   9   23.22   10.67
  -3   2  -9   36.04   10.00
   3  -2   9   20.46    9.44
   3  -2   9   26.52   11.20
   4  -2   9  442.66   30.88
   4  -2   9  483.28   34.79
  -4   2  -9  508.75   27.63
   4  -2   9  510.52   36.60
   4  -2   9  557.35   37.21
  -4   2  -9  535.51   29.02
   5  -2   9  178.66   19.50
   5  -2   9  150.31   21.24
   5  -2   9  184.72   21.80
   6  -2   9    1.53   10.65
   6  -2   9   24.56   11.80
   5   1  -9   10.84   15.61
  -5  -1   9   13.43   12.82
   5   1  -9    6.27   12.02
  -5  -1   9   -4.44   11.04
   4   1  -9  130.68   25.16
  -4  -1   9   97.52   20.79
   4   1  -9  120.48   22.49
  -4  -1   9  124.03   25.76
   4   1  -9  101.70   22.74
   3   1  -9    6.73    9.27
  -3  -1   9   -3.00    7.56
   3   1  -9   -2.39   10.04
   3   1  -9    3.28    9.53
  -3  -1   9    9.59   11.74
   3   1  -9    3.98    9.40
  -3  -1   9    1.28   10.08
   3   1  -9    0.63   12.35
  -2  -1   9  222.92   26.70
  -2  -1   9  242.86   29.81
   2   1  -9  276.44   29.65
  -2  -1   9  226.11   25.62
   2   1  -9  160.57   25.19
   2   1  -9  235.56   29.12
   2   1  -9  235.84   25.84
  -2  -1   9  223.58   29.11
   2   1  -9  172.14   25.78
  -1  -1   9   90.13   17.21
   1   1  -9   59.80   14.34
  -1  -1   9   46.19   15.90
  -1  -1   9   62.87   15.85
   1   1  -9   63.94   17.66
  -1  -1   9   98.55   19.61
   1   1  -9   80.63   17.48
   1   1  -9   71.83   17.31
   1   1  -9   80.15   17.74
   0  -1   9  135.06   21.17
   0  -1   9  179.03   22.21
   0   1  -9  154.38   20.76
   0   1  -9  155.43   21.55
   0   1  -9  120.48   17.20
   0  -1   9  138.06   19.47
   0   1  -9   99.42   17.67
   0   1  -9  118.40   18.92
   0  -1   9  164.06   23.75
   0  -1   9  178.67   23.87
  -1   1  -9  535.63   34.68
  -1   1  -9  526.95   31.56
  -1   1  -9  465.69   33.30
  -1   1  -9  488.09   34.73
   1  -1   9  549.18   38.86
   1  -1   9  505.31   38.12
   1  -1   9  514.99   36.10
   1  -1   9  500.51   33.75
  -1   1  -9  511.61   33.29
  -2   1  -9  106.57   15.94
  -2   1  -9  113.30   16.64
   2  -1   9  104.04   17.36
   2  -1   9  121.86   17.16
  -2   1  -9   91.84   11.39
   2  -1   9  112.16   18.94
  -2   1  -9   96.71   12.22
   2  -1   9   92.72   17.57
   3  -1   9   26.52   10.94
   3  -1   9    5.79    9.26
  -3   1  -9   30.39    9.67
   3  -1   9   26.31   10.89
  -3   1  -9   16.24    8.25
   3  -1   9   46.13   12.03
   4  -1   9  206.07   23.71
  -4   1  -9  182.57   17.86
  -4   1  -9  197.07   17.77
   4  -1   9  189.16   22.25
   4  -1   9  148.13   18.46
   4  -1   9  186.52   23.14
   5  -1   9   10.05    8.72
   5  -1   9   -1.82    7.58
   5  -1   9   -9.69    6.14
  -5   1  -9    2.50    5.70
   6  -1   9  148.09   20.88
   6  -1   9  177.08   24.28
  -5   0   9   57.08   17.86
  -5   0   9   49.11   18.54
   5   0  -9   26.96   15.37
   5   0  -9   30.27   16.79
  -4   0   9   18.73   11.84
  -4   0   9   31.26   14.99
  -4   0   9   33.14   14.45
   4   0  -9   19.23   13.54
  -4   0   9   26.21   15.39
   4   0  -9   16.57   12.86
   4   0  -9   10.33   11.26
  -3   0   9  181.20   27.74
  -3   0   9  191.96   26.89
   3   0  -9  171.62   27.62
  -3   0   9  160.35   26.38
  -3   0   9  172.68   23.77
   3   0  -9  135.17   25.47
   3   0  -9  124.05   20.35
  -3   0   9  154.40   24.85
   3   0  -9  150.37   24.08
   3   0  -9  116.52   21.37
  -2   0   9   12.11   11.47
  -2   0   9   13.03    9.15
   2   0  -9   26.24   14.18
  -2   0   9   38.98   14.51
   2   0  -9   17.85   11.08
   2   0  -9   15.91   11.26
  -2   0   9   29.86   13.63
   2   0  -9    3.33    9.45
   2   0  -9   15.18    9.79
   1   0  -9    3.47    9.39
   1   0  -9   -5.31    6.99
   1   0  -9   -5.93    7.09
   1   0  -9   -3.14    5.92
  -1   0   9    4.95    8.54
  -1   0   9    0.61    7.20
   1   0  -9   12.37   10.23
  -1   0   9    2.59    8.78
  -1   0   9   -4.25    7.51
   0   0   9  260.10   26.54
   0   0  -9  255.86   26.91
   0   0  -9  245.25   26.68
   0   0   9  264.74   27.68
   0   0  -9  240.66   24.96
   0   0   9  228.79   24.04
   0   0   9  247.46   27.50
   0   0  -9  241.15   25.31
   0   0  -9  244.30   23.16
  -1   0  -9   52.72   11.56
   1   0   9   59.24   16.39
  -1   0  -9   64.16   13.94
  -1   0  -9   61.28   14.34
  -1   0  -9   79.87   16.33
  -1   0  -9   75.21   15.65
  -1   0  -9   49.63   13.65
   1   0   9   72.18   15.05
   1   0   9   73.73   15.77
   1   0   9   33.47   12.62
   1   0   9   53.95    8.50
   2   0   9  119.71   19.84
  -2   0  -9  114.06   14.18
  -2   0  -9  106.47   13.36
  -2   0  -9  119.39   15.93
  -2   0  -9   90.00   12.63
   2   0   9   84.72   17.42
   2   0   9  115.45   17.97
   2   0   9  108.31   18.59
  -2   0  -9   91.30   15.81
   2   0   9  125.87   12.72
   2   0   9  103.28   16.44
  -2   0  -9  120.92   17.38
  -3   0  -9   86.63   15.12
  -3   0  -9   84.77    8.82
  -3   0  -9  112.11   16.30
   3   0   9  141.86   20.93
   3   0   9   70.32   16.62
  -3   0  -9  100.64    9.70
   3   0   9  102.98   16.05
   3   0   9  106.21   18.23
   4   0   9   -1.14    7.11
   4   0   9    1.64    6.97
  -4   0  -9    2.34    6.97
   4   0   9   -0.93    7.41
  -4   0  -9   -0.99    6.79
   4   0   9    9.08    9.62
   5   0   9  595.25   38.04
  -5   0  -9  594.07   33.91
   5   0   9  597.50   40.76
  -5   0  -9  618.99   33.92
   5   0   9  639.91   43.82
   6   0   9  104.04   20.96
  -6   0  -9  121.38   12.45
   6   0   9  112.35   18.87
  -5   1   9   32.72   14.75
   5  -1  -9   37.49   16.21
   5  -1  -9   34.62   17.69
  -5   1   9   25.72   15.18
   4  -1  -9  136.21   26.74
   4  -1  -9   80.74   20.06
  -4   1   9  146.31   24.33
  -4   1   9   71.08   19.30
   4  -1  -9   77.32   20.50
   4  -1  -9   79.81   19.99
  -4   1   9  108.10   20.37
  -4   1   9  125.69   25.12
   3  -1  -9   66.29   17.06
  -3   1   9  107.56   22.45
  -3   1   9   73.55   17.13
  -3   1   9   92.93   20.17
   3  -1  -9  158.50   26.63
   3  -1  -9  107.75   22.83
  -3   1   9   73.89   20.38
   3  -1  -9   77.50   17.93
   3  -1  -9   94.07   21.60
   2  -1  -9    0.79    7.40
  -2   1   9   15.53   12.19
  -2   1   9   19.56   13.29
   2  -1  -9   10.32   10.33
   2  -1  -9   42.70   15.78
  -2   1   9   18.50   10.93
   2  -1  -9    7.14    9.26
  -2   1   9   31.47   12.99
   2  -1  -9   14.18    9.73
   1  -1  -9  284.84   29.76
  -1   1   9  290.52   27.51
   1  -1  -9  315.06   27.65
   1  -1  -9  308.15   29.56
  -1   1   9  259.76   29.79
  -1   1   9  285.86   28.18
   1  -1  -9  312.60   30.77
  -1   1   9  302.81   30.59
   1  -1  -9  234.76   28.27
   0   1   9  697.56   42.47
   0   1   9  715.27   47.38
   0  -1  -9  666.81   40.82
   0   1   9  756.19   45.00
   0   1   9  654.48   45.74
   0  -1  -9  692.64   44.00
   0  -1  -9  762.53   45.84
   0  -1  -9  702.14   44.20
   0   1   9  712.22   37.31
   0  -1  -9  739.04   46.68
   0  -1  -9  596.14   41.55
  -1  -1  -9  115.68   17.83
   1   1   9  125.13   21.12
  -1  -1  -9  127.78   18.54
  -1  -1  -9   90.21   16.95
   1   1   9  117.19   19.96
   1   1   9  116.79   17.57
   1   1   9  128.78   20.46
  -1  -1  -9  135.84   20.08
  -1  -1  -9   96.40   17.24
  -1  -1  -9  112.71   15.79
   1   1   9  119.64   14.36
   1   1   9  133.72   19.05
  -2  -1  -9  161.23   17.75
  -2  -1  -9  170.73   19.73
  -2  -1  -9  144.92   16.05
   2   1   9  189.76   21.82
   2   1   9  197.21   24.47
   2   1   9  151.01   19.16
  -2  -1  -9  157.08   19.82
  -2  -1  -9  136.84   19.23
   2   1   9  137.97   20.77
  -2  -1  -9  168.59   20.88
   2   1   9  152.63   22.08
  -3  -1  -9   35.14   10.81
   3   1   9    3.72    7.78
  -3  -1  -9   28.12   10.21
  -3  -1  -9    1.46    4.94
  -3  -1  -9   41.20    8.23
   3   1   9   33.65   13.11
   3   1   9   24.62   11.16
  -3  -1  -9   19.32    7.24
   3   1   9   14.56   10.16
   4   1   9  111.58   19.07
  -4  -1  -9  145.27   18.15
   4   1   9  117.20   17.85
  -4  -1  -9   99.72   16.16
   4   1   9  134.54   21.20
   4   1   9  105.64   20.25
  -5  -1  -9  299.73   24.97
  -5  -1  -9  328.75   25.53
   5   1   9  286.59   28.03
   5   1   9  300.63   32.21
   5   1   9  373.11   33.22
   6   1   9   14.93   13.57
   6   1   9   10.97   11.03
  -6  -1  -9   22.14    9.69
   5  -2  -9   27.72   15.87
  -5   2   9   25.32   13.57
  -5   2   9   -0.60   10.86
  -4   2   9  115.54   20.72
   4  -2  -9  149.05   26.19
  -4   2   9  142.20   25.90
   4  -2  -9  130.39   26.29
  -4   2   9  158.30   24.67
   4  -2  -9  132.78   23.99
  -4   2   9  162.09   26.22
   3  -2  -9   -4.72    8.13
   3  -2  -9    2.22    7.42
   3  -2  -9   13.05   10.65
  -3   2   9   10.85    8.91
  -3   2   9    5.79   11.17
   3  -2  -9   -1.28    9.28
  -3   2   9    0.56    9.72
   3  -2  -9    6.82   11.05
   2  -2  -9  181.49   23.24
  -2   2   9  224.68   24.77
  -2   2   9  164.97   23.11
   2  -2  -9  196.80   27.49
   2  -2  -9  199.03   25.48
  -2   2   9  198.67   26.69
   2  -2  -9  214.78   27.86
  -1   2   9  505.64   33.51
  -1   2   9  486.65   38.37
  -1   2   9  485.24   36.31
   1  -2  -9  412.39   36.90
   1  -2  -9  479.34   36.69
   1  -2  -9  509.90   38.75
   1  -2  -9  487.11   37.09
  -1   2   9  500.35   35.06
  -1   2   9  423.56   36.73
   1  -2  -9  422.04   32.85
   1  -2  -9  454.11   36.78
   0   2   9   -1.01    6.96
   0  -2  -9    0.58    7.26
   0   2   9   -5.05    6.50
   0  -2  -9   -6.31    6.75
   0  -2  -9    3.56    8.01
   0   2   9    4.91    7.84
   0   2   9   -3.37    8.30
   0   2   9    5.08    7.08
   0  -2  -9    5.27    6.45
   0  -2  -9    2.78    9.12
   0  -2  -9    7.67    9.33
  -1  -2  -9   47.55   14.22
  -1  -2  -9   58.63   14.34
   1   2   9   36.50   11.78
   1   2   9   71.93   13.59
   1   2   9   61.08   16.36
   1   2   9   30.24   12.16
   1   2   9   27.56   12.28
  -1  -2  -9   58.23   14.67
  -1  -2  -9   47.80   11.70
  -1  -2  -9   57.03   14.20
   1   2   9   66.36   16.25
  -1  -2  -9   40.79   14.07
   2   2   9   43.64   12.18
  -2  -2  -9   46.06   11.02
   2   2   9   67.50   16.71
  -2  -2  -9   53.18   13.69
   2   2   9   47.05   13.27
  -2  -2  -9   33.55   11.55
   2   2   9   56.87   15.17
  -2  -2  -9   47.36   12.88
  -2  -2  -9   55.96   14.86
   2   2   9   41.36   14.65
  -2  -2  -9   35.65   11.80
   3   2   9  131.70   20.56
   3   2   9  111.54   20.61
   3   2   9   92.63   17.19
  -3  -2  -9  122.01   17.45
  -3  -2  -9  117.66   15.67
  -3  -2  -9  141.88   15.09
   3   2   9   91.65   19.38
  -3  -2  -9  117.51   17.83
  -3  -2  -9  114.62   18.20
  -4  -2  -9  665.74   31.37
  -4  -2  -9  668.80   33.05
   4   2   9  685.28   46.32
   4   2   9  687.58   42.46
  -4  -2  -9  726.98   42.74
   4   2   9  644.54   46.95
  -4  -2  -9  622.69   40.23
  -4  -2  -9  641.81   31.73
  -5  -2  -9   -2.01    7.54
  -5  -2  -9    1.90    8.00
   5   2   9  -10.58    8.30
   5   2   9    9.98   11.39
   5   2   9   12.65   11.58
  -6  -2  -9  242.31   23.84
   6   2   9  260.64   28.31
   6   2   9  256.39   32.45
   5  -3  -9   71.61   19.71
  -5   3   9  139.53   22.54
  -5   3   9  144.81   24.87
   4  -3  -9   21.94   12.66
  -4   3   9   -4.33    8.92
   4  -3  -9    1.35   10.32
  -4   3   9   32.12   13.38
  -4   3   9   10.83   11.17
   3  -3  -9  142.12   24.94
   3  -3  -9  105.13   20.12
  -3   3   9  147.54   21.18
   3  -3  -9  123.73   22.61
   3  -3  -9  136.98   25.30
  -3   3   9  109.27   20.72
  -3   3   9   93.35   21.15
   2  -3  -9  716.73   47.51
  -2   3   9  725.38   44.35
  -2   3   9  668.16   45.44
  -2   3   9  695.43   44.77
   2  -3  -9  655.62   43.68
   2  -3  -9  653.23   46.47
   2  -3  -9  712.24   49.40
  -2   3   9  707.92   47.96
   2  -3  -9  706.75   49.14
  -2   3   9  605.01   45.03
   2  -3  -9  688.57   49.35
   1  -3  -9   60.94   16.51
   1  -3  -9   82.42   18.33
  -1   3   9   83.40   19.40
   1  -3  -9   43.30   13.94
  -1   3   9   77.85   17.03
  -1   3   9   82.88   18.69
   1  -3  -9   71.87   15.28
   1  -3  -9  105.30   20.97
  -1   3   9   85.84   16.63
  -1   3   9   99.93   18.03
   1  -3  -9  115.58   21.03
   0   3   9  263.57   29.51
   0   3   9  288.12   26.66
   0  -3  -9  259.91   27.30
   0   3   9  308.06   30.99
   0  -3  -9  306.68   29.87
   0  -3  -9  255.92   27.25
   0  -3  -9  285.54   26.24
   0  -3  -9  334.00   30.73
   0   3   9  274.71   26.56
   0   3   9  307.61   28.87
   0  -3  -9  261.15   29.69
   0   3   9  257.12   28.87
  -1  -3  -9   72.75   16.79
   1   3   9   79.97   16.37
  -1  -3  -9   64.63   13.93
   1   3   9  110.00   21.35
   1   3   9   59.38   15.91
   1   3   9   56.85   16.41
  -1  -3  -9   60.08   15.43
   1   3   9   79.75   17.34
  -1  -3  -9   66.26   17.50
  -1  -3  -9   99.20   17.97
   2   3   9  231.75   28.06
   2   3   9  251.16   25.20
  -2  -3  -9  291.52   28.84
  -2  -3  -9  181.29   23.18
  -2  -3  -9  241.39   24.58
   2   3   9  254.66   28.63
  -2  -3  -9  190.99   22.90
  -2  -3  -9  237.09   24.68
  -2  -3  -9  236.16   22.00
   2   3   9  227.34   25.30
   2   3   9  287.68   28.80
  -3  -3  -9  715.47   41.76
   3   3   9  627.51   46.90
   3   3   9  720.30   43.71
  -3  -3  -9  720.43   44.37
  -3  -3  -9  701.00   44.58
  -3  -3  -9  720.26   39.24
   3   3   9  643.37   46.20
  -3  -3  -9  736.17   43.26
   3   3   9  715.21   46.45
   4   3   9  125.81   24.01
   4   3   9  136.18   23.31
   4   3   9  150.27   20.79
  -4  -3  -9  107.93   18.64
  -4  -3  -9  120.52   19.54
  -4  -3  -9  143.65   16.65
  -4  -3  -9  128.81   14.67
  -5  -3  -9  177.27   14.51
  -5  -3  -9  170.17   13.39
   5   3   9  132.72   21.97
   5   3   9  163.73   25.95
   5   3   9  196.32   29.20
  -5  -3  -9  163.73   13.50
  -5  -3  -9  162.74   22.42
  -5  -3  -9  156.56   21.27
   6   3   9  257.93   30.44
   6   3   9  320.97   37.21
  -6  -3  -9  305.39   28.27
  -5   4   9   16.49   13.57
   5  -4  -9   71.75   20.18
  -5   4   9   24.70   13.57
   5  -4  -9   34.28   18.20
   4  -4  -9   24.57   12.67
   4  -4  -9   24.85   15.37
  -4   4   9   28.30   14.54
  -4   4   9   40.69   14.25
   3  -4  -9  277.22   29.45
   3  -4  -9  246.34   29.88
  -3   4   9  302.58   30.55
  -3   4   9  276.53   31.47
   3  -4  -9  233.44   29.34
  -3   4   9  251.40   27.39
   3  -4  -9  269.75   33.16
   3  -4  -9  248.25   31.59
   2  -4  -9   61.18   15.76
   2  -4  -9   62.65   17.05
   2  -4  -9   46.96   16.65
  -2   4   9   50.36   14.90
  -2   4   9   53.12   15.53
   2  -4  -9   60.77   17.78
   2  -4  -9   69.23   17.82
  -2   4   9   37.22   13.42
  -2   4   9   62.68   17.02
   2  -4  -9   77.87   18.50
  -2   4   9   62.88   17.30
  -1   4   9  101.16   19.32
  -1   4   9   84.32   17.86
   1  -4  -9   70.15   17.26
   1  -4  -9  123.13   19.31
  -1   4   9  100.28   18.41
   1  -4  -9  106.51   21.51
  -1   4   9  108.07   20.55
   1  -4  -9  108.49   19.81
  -1   4   9  130.37   22.77
   1  -4  -9   98.91   19.82
   0  -4  -9   -3.07    7.42
   0   4   9   12.23    9.77
   0   4   9   -1.03    8.37
   0   4   9   10.43   10.76
   0  -4  -9    6.12    7.30
   0   4   9   10.69    9.63
   0  -4  -9   10.38    9.16
   0  -4  -9    5.15    8.13
   0   4   9    7.49    8.22
   0   4   9    3.23    9.40
   0  -4  -9   11.18   10.69
   0  -4  -9   -6.78    8.32
  -1  -4  -9   14.34    8.11
  -1  -4  -9    4.35   11.04
  -1  -4  -9   17.52   10.69
   1   4   9   13.85   10.63
  -1  -4  -9    5.00    7.80
   1   4   9   18.24   11.22
   1   4   9   23.17   11.43
  -1  -4  -9    1.14    7.76
   1   4   9   18.56   10.61
  -1  -4  -9    5.03    8.82
   1   4   9   11.15   10.79
  -2  -4  -9  434.72   34.93
  -2  -4  -9  464.21   36.09
  -2  -4  -9  475.17   35.74
  -2  -4  -9  493.20   36.26
   2   4   9  509.67   38.22
  -2  -4  -9  456.40   32.57
   2   4   9  522.67   40.22
   2   4   9  472.47   35.24
   2   4   9  437.02   39.05
  -2  -4  -9  472.75   39.52
  -3  -4  -9  203.23   23.00
   3   4   9  175.47   26.31
  -3  -4  -9  162.71   22.36
  -3  -4  -9  133.25   21.81
  -3  -4  -9  182.63   25.19
  -3  -4  -9  151.65   18.93
  -3  -4  -9  182.85   22.18
   3   4   9  174.04   25.83
   3   4   9  184.32   22.89
  -4  -4  -9  189.63   19.27
  -4  -4  -9  157.52   20.84
  -4  -4  -9  206.98   24.65
   4   4   9  201.14   26.57
   4   4   9  226.50   28.93
   4   4   9  177.31   24.19
   4   4   9  200.35   29.48
  -4  -4  -9  190.38   21.50
  -5  -4  -9  236.19   26.87
   5   4   9  285.87   33.71
   5   4   9  265.11   29.16
   5   4   9  168.66   29.55
  -5  -4  -9  291.66   21.71
  -6  -4  -9    5.75    5.47
   6   4   9   10.86   14.44
   6   4   9    1.93   11.48
   5  -5  -9   68.68   22.42
  -5   5   9   33.79   15.62
   5  -5  -9   36.89   20.02
  -5   5   9   61.74   18.55
   5  -5  -9   74.80   21.24
   4  -5  -9  209.81   30.80
   4  -5  -9  319.24   36.72
  -4   5   9  217.45   26.25
   4  -5  -9  244.01   30.23
  -3   5   9  245.68   31.54
  -3   5   9  157.67   24.41
   3  -5  -9  254.98   30.42
   3  -5  -9  208.02   29.54
   3  -5  -9  250.82   28.74
   3  -5  -9  191.61   28.23
  -3   5   9  235.80   28.72
  -3   5   9  222.01   25.49
  -2   5   9   23.50   12.42
   2  -5  -9   34.18   14.75
   2  -5  -9   27.32   13.23
  -2   5   9   13.21   12.15
   2  -5  -9   18.48   11.86
  -2   5   9   -3.73    7.39
   2  -5  -9   19.14   12.45
  -2   5   9   34.72   13.35
  -2   5   9   20.55   12.55
   2  -5  -9   15.06    9.72
   2  -5  -9    1.86    9.31
  -1   5   9  169.76   22.38
  -1   5   9   90.24   20.25
   1  -5  -9   94.38   19.77
   1  -5  -9  180.61   25.88
   1  -5  -9  170.53   24.30
   1  -5  -9  169.63   27.00
  -1   5   9  145.14   23.24
   1  -5  -9  126.97   22.51
  -1   5   9  145.52   22.56
   1  -5  -9  147.63   21.13
  -1   5   9  128.95   22.14
   0   5   9   -1.80    8.69
   0   5   9    9.21   10.06
   0   5   9   15.50   10.95
   0  -5  -9   -0.64    9.40
   0  -5  -9  -12.23    8.29
   0  -5  -9    9.29    7.84
   0   5   9    6.08    9.82
   0   5   9    5.23    9.85
   0  -5  -9    2.76    8.66
   0  -5  -9    1.64    8.54
   0  -5  -9   -1.42    7.01
   0   5   9   12.03   11.17
   1   5   9  186.09   27.20
   1   5   9  252.67   28.27
  -1  -5  -9  214.65   26.45
  -1  -5  -9  278.81   26.61
  -1  -5  -9  279.01   31.01
  -1  -5  -9  215.39   26.67
  -1  -5  -9  228.21   27.43
   1   5   9  230.68   26.50
  -1  -5  -9  281.54   28.67
   1   5   9  229.38   29.34
   2   5   9  539.90   43.36
   2   5   9  434.32   35.05
  -2  -5  -9  480.74   37.67
  -2  -5  -9  458.35   37.06
  -2  -5  -9  491.87   34.94
   2   5   9  501.31   40.82
   2   5   9  555.17   40.39
  -2  -5  -9  485.26   41.43
  -3  -5  -9  205.54   22.70
  -3  -5  -9  231.60   26.35
   3   5   9  274.52   28.54
  -3  -5  -9  240.46   26.58
   3   5   9  224.35   28.17
   3   5   9  200.90   28.73
   3   5   9  192.65   29.89
  -3  -5  -9  224.99   26.63
  -3  -5  -9  267.28   30.64
  -4  -5  -9  235.12   27.05
   4   5   9  280.13   35.04
  -4  -5  -9  243.69   26.60
  -4  -5  -9  235.91   23.95
  -4  -5  -9  283.61   29.40
   4   5   9  299.79   34.03
   4   5   9  290.98   30.57
   5   5   9   10.71   11.47
  -5  -5  -9   28.60   10.54
   5   5   9   47.38   18.32
   5   5   9   22.29   15.06
   6   5   9   64.71   22.72
  -6  -5  -9   38.99   10.69
   6   5   9   33.57   19.98
   6   5   9   22.60   15.76
   5  -6  -9  120.18   24.94
  -5   6   9   67.05   19.45
   4  -6  -9  271.81   35.74
  -4   6   9  232.94   26.76
   4  -6  -9  283.23   34.41
   4  -6  -9  207.32   29.34
   3  -6  -9   -0.66   10.55
   3  -6  -9   -9.13    8.62
  -3   6   9   12.49   11.60
  -3   6   9    3.54    9.40
   3  -6  -9   -2.11    7.41
  -3   6   9    5.46   11.41
  -2   6   9  209.07   26.49
  -2   6   9  203.05   27.02
   2  -6  -9  194.34   25.34
   2  -6  -9  213.61   31.26
   2  -6  -9  174.12   26.10
  -2   6   9  165.53   23.62
  -2   6   9  198.82   28.99
   2  -6  -9  162.51   26.81
   2  -6  -9  198.64   28.03
  -1   6   9    7.17   11.04
   1  -6  -9   -6.01    9.55
   1  -6  -9   -2.39    8.03
   1  -6  -9   14.36   10.90
  -1   6   9   -1.62    8.92
   1  -6  -9    2.95   10.64
   1  -6  -9    0.05    7.09
  -1   6   9    0.32    7.35
   1  -6  -9    7.78    9.23
  -1   6   9    1.63    7.94
   0  -6  -9   62.46   17.18
   0  -6  -9   81.71   19.08
   0   6   9   82.01   19.32
   0  -6  -9   80.57   17.35
   0   6   9   67.91   18.48
   0  -6  -9   88.01   21.51
   0  -6  -9   77.59   19.89
   0   6   9   69.75   17.99
   0   6   9   57.51   15.87
  -1  -6  -9  217.18   24.78
   1   6   9  183.14   27.80
  -1  -6  -9  219.41   27.33
  -1  -6  -9  202.70   29.19
   1   6   9  226.51   26.28
  -1  -6  -9  185.89   24.85
   1   6   9  213.58   27.16
  -1  -6  -9  230.30   27.43
  -1  -6  -9  198.37   27.24
   1   6   9  273.59   32.21
  -2  -6  -9   -1.78    5.44
   2   6   9    7.16   10.15
  -2  -6  -9   -2.40    9.99
   2   6   9    5.25    8.57
   2   6   9    7.58   10.40
  -2  -6  -9    2.52    7.76
   2   6   9   -6.60    8.35
  -2  -6  -9   -8.96    7.81
  -2  -6  -9   -3.77    8.69
  -3  -6  -9  443.40   37.85
  -3  -6  -9  435.75   38.16
  -3  -6  -9  401.31   36.93
   3   6   9  463.74   43.99
  -3  -6  -9  392.30   32.80
   3   6   9  418.66   37.09
  -3  -6  -9  524.56   44.31
   3   6   9  478.39   42.78
   3   6   9  570.34   43.26
   4   6   9  171.18   29.59
   4   6   9  229.76   34.19
  -4  -6  -9  176.17   22.65
  -4  -6  -9  176.01   25.05
  -4  -6  -9  229.74   28.16
   4   6   9  239.63   29.43
  -5  -6  -9   -4.00    6.80
   5   6   9   -8.53    9.70
   5   6   9   11.52   14.93
   5   6   9    9.50   11.89
   4  -7  -9    5.12   11.78
   4  -7  -9   -3.47   11.07
   4  -7  -9   11.07   14.35
  -4   7   9    2.38   11.33
   3  -7  -9  149.17   27.55
   3  -7  -9   93.06   20.99
   3  -7  -9   96.77   23.41
  -3   7   9  119.73   26.37
  -3   7   9  140.26   21.85
   2  -7  -9   35.59   14.90
   2  -7  -9   63.27   18.14
  -2   7   9   45.72   15.78
  -2   7   9   53.44   17.00
   2  -7  -9   52.65   17.89
   2  -7  -9   24.64   12.74
  -2   7   9   79.73   22.25
  -2   7   9   27.20   13.69
   1  -7  -9  216.07   29.46
   1  -7  -9  239.48   29.15
  -1   7   9  122.47   25.07
   1  -7  -9  186.66   28.37
  -1   7   9  183.21   27.44
   1  -7  -9  191.54   25.67
  -1   7   9  154.71   24.61
  -1   7   9  232.99   31.04
  -1   7   9  208.11   26.02
   0   7   9  565.10   43.78
   0  -7  -9  716.44   51.62
   0  -7  -9  811.63   53.68
   0  -7  -9  667.14   48.00
   0  -7  -9  735.38   47.46
   0   7   9  764.72   49.70
   0  -7  -9  619.22   48.35
   0   7   9  792.96   55.10
   0  -7  -9  615.34   50.79
   0   7   9  678.45   51.06
   0   7   9  808.90   52.97
  -1  -7  -9   25.15   13.43
   1   7   9   24.99   13.39
   1   7   9    7.67   10.73
   1   7   9   14.11   13.15
  -1  -7  -9   12.97    9.72
   1   7   9   25.72   11.84
  -1  -7  -9   31.68   15.32
  -1  -7  -9   20.35   14.02
  -1  -7  -9    8.93   11.15
   2   7   9  139.47   27.13
  -2  -7  -9  115.72   23.16
  -2  -7  -9  131.40   23.71
   2   7   9  148.04   25.73
  -2  -7  -9  104.63   19.41
  -2  -7  -9  144.61   24.83
   2   7   9  113.05   24.26
  -2  -7  -9  139.88   26.47
   2   7   9  139.03   23.26
  -3  -7  -9  160.53   25.35
   3   7   9  150.24   29.20
  -3  -7  -9  120.69   24.02
  -3  -7  -9  135.18   21.37
   3   7   9  144.69   24.98
   3   7   9  164.08   28.62
   4   7   9    4.61   13.59
   4   7   9    3.24   12.40
   4   7   9    2.22   10.96
  -4  -7  -9    4.86    8.55
   5   7   9  409.36   44.84
   5   7   9  385.92   39.98
  -5  -7  -9  312.65   30.85
   4  -8  -9   89.77   23.09
   4  -8  -9   71.44   21.96
   3  -8  -9  139.21   25.85
   3  -8  -9  149.83   27.72
   3  -8  -9  145.04   28.71
  -3   8   9  125.99   21.63
   2  -8  -9   35.39   14.87
  -2   8   9    8.68   12.02
   2  -8  -9    5.90   11.58
   2  -8  -9    9.92   12.85
  -2   8   9   -0.30   11.19
  -2   8   9   11.72   13.00
  -2   8   9   10.84   13.88
  -1   8   9  258.98   35.40
   1  -8  -9  246.65   29.86
   1  -8  -9  305.78   33.74
  -1   8   9  308.25   31.22
  -1   8   9  293.63   34.39
  -1   8   9  238.29   29.99
   1  -8  -9  268.19   34.27
   0   8   9   16.81   12.43
   0  -8  -9   35.26   16.72
   0   8   9    5.15   12.76
   0  -8  -9    1.04    9.27
   0   8   9   11.33   11.67
   0  -8  -9   -1.21    9.96
   0   8   9   12.52   12.87
   1   8   9  280.39   34.43
  -1  -8  -9  292.29   32.56
  -1  -8  -9  152.06   26.40
   1   8   9  246.88   31.58
   1   8   9  288.22   31.24
   1   8   9  242.41   33.39
  -1  -8  -9  300.24   30.58
  -2  -8  -9  465.45   41.78
   2   8   9  364.30   41.60
   2   8   9  436.00   43.37
  -2  -8  -9  418.35   36.89
   2   8   9  433.84   42.22
  -2  -8  -9  498.89   44.01
   2   8   9  438.34   39.63
  -3  -8  -9    1.16   12.68
  -3  -8  -9   -0.07    7.89
   3   8   9    8.58   13.34
   3   8   9  -14.87    8.63
  -4  -8  -9  115.17   21.66
   4   8   9  104.12   24.40
   4   8   9   81.54   23.10
   3  -9  -9   37.47   16.90
   3  -9  -9   54.73   19.86
  -2   9   9  247.51   30.29
   2  -9  -9  279.86   36.72
   2  -9  -9  261.14   33.37
   2  -9  -9  342.38   36.04
  -2   9   9  302.34   34.65
  -1   9   9   11.78   12.57
  -1   9   9   25.20   14.54
   1  -9  -9   19.37   13.64
  -1   9   9   27.19   17.03
   1  -9  -9   30.08   14.42
   1  -9  -9    3.18   13.47
   0   9   9   42.71   18.39
   0   9   9   35.93   16.61
   0  -9  -9   49.50   17.98
   0   9   9    6.45   14.40
   0  -9  -9   28.56   14.40
   0   9   9   28.72   15.11
   1   9   9  312.31   34.42
   1   9   9  296.33   36.92
   1   9   9  332.50   39.13
  -1  -9  -9  286.94   34.59
  -1  -9  -9  284.80   32.32
   2   9   9   43.12   18.35
   2   9   9    0.76   11.34
  -2  -9  -9   24.38   13.45
   3   9   9  249.42   33.95
   3   9   9  319.84   40.45
  -3  -9  -9  416.58   37.92
   4   9   9   47.99   19.03
   4   9   9   39.39   21.16
   2 -10  -9   29.19   17.55
  -2  10   9   37.33   16.93
   2 -10  -9   25.87   14.75
  -2  10   9   45.11   17.68
  -1  10   9   23.22   16.20
   1 -10  -9    3.65   15.13
   1 -10  -9   24.80   15.13
  -1  10   9   21.61   15.41
   0  10   9  130.10   26.79
   0 -10  -9  175.74   28.02
   0  10   9  168.67   27.19
   1  10   9  101.01   24.95
   1  10   9  125.61   25.12
  -1 -10  -9   68.56   20.47
   2  10   9   56.17   20.32
  -2 -10  -9   95.90   23.68
   2  10   9  127.68   28.56
   0   6 -10    2.50    9.08
   0  -6  10   -6.42   10.50
   0  -6  10   -2.55   14.32
   1  -6  10   30.35   13.86
  -2  -5  10   69.06   22.84
  -2  -5  10   29.01   19.61
   2   5 -10   31.93   15.63
   2   5 -10   45.56   19.25
  -2  -5  10   37.05   17.14
  -1  -5  10   52.37   21.14
  -1  -5  10   54.58   21.13
   1   5 -10   20.69   11.58
   1   5 -10   52.06   17.84
  -1  -5  10   15.69   12.62
   0  -5  10   54.85   19.53
   0   5 -10   60.91   14.35
   0  -5  10  100.98   21.45
   0   5 -10  126.74   21.91
   1  -5  10   -1.77    9.29
   1  -5  10    0.10   12.70
   2  -5  10   24.02   12.48
  -2   5 -10   31.63   13.47
   2  -5  10   -0.97   11.60
  -3   5 -10  118.65   15.80
   3  -5  10  141.90   21.96
   3  -5  10  123.23   23.50
  -3  -4  10   17.35   13.57
  -3  -4  10   22.59   16.75
  -2  -4  10    7.49   13.92
  -2  -4  10    4.36   15.69
  -2  -4  10   28.77   14.61
   2   4 -10   24.50   13.14
   2   4 -10   37.04   16.48
  -1  -4  10   53.40   18.97
   1   4 -10   31.17   13.21
  -1  -4  10   16.54   12.04
   1   4 -10   10.54   12.35
  -1  -4  10   54.15   18.62
   0  -4  10  215.95   26.87
   0   4 -10  178.47   21.28
   0   4 -10  216.17   26.45
   0  -4  10  194.68   28.62
   1  -4  10   13.10   12.79
   1  -4  10   19.88   13.47
  -1   4 -10   19.14    8.03
  -1   4 -10   -4.58    7.93
   1  -4  10   11.52    9.28
  -2   4 -10   36.90   13.18
   2  -4  10   25.45   12.55
   2  -4  10   58.15   17.53
  -3   4 -10  306.38   25.03
   3  -4  10  318.39   28.61
   3  -4  10  359.52   34.27
   4  -4  10   -1.01    9.07
   4  -4  10    0.16    9.89
  -3  -3  10   84.92   23.43
   3   3 -10  140.86   27.40
   3   3 -10  114.59   23.50
  -3  -3  10  102.43   23.38
   2   3 -10    9.23   11.03
  -2  -3  10    3.93   13.40
   2   3 -10    9.28    9.54
   2   3 -10   13.38   14.83
  -2  -3  10   12.86   13.11
  -2  -3  10    2.84    9.71
   1   3 -10  145.62   24.68
   1   3 -10  186.73   23.34
   1   3 -10  151.27   24.39
  -1  -3  10  104.98   23.41
  -1  -3  10  157.71   24.69
   0  -3  10   45.12   16.43
   0   3 -10   66.04   15.90
   0  -3  10   63.02   18.45
   0  -3  10   67.30   17.60
   0   3 -10   51.38   15.43
   0   3 -10   53.11   13.45
   1  -3  10   95.14   21.35
  -1   3 -10  103.19   18.30
  -1   3 -10   69.91   12.70
   1  -3  10   64.24   17.58
   1  -3  10   72.98   17.41
  -2   3 -10  235.31   24.86
   2  -3  10  201.03   23.85
   2  -3  10  250.65   28.79
   2  -3  10  248.79   29.33
  -2   3 -10  235.46   23.60
   3  -3  10   95.87   20.60
   3  -3  10   97.71   16.90
  -3   3 -10   77.52   15.45
   4  -3  10   30.14   12.01
   4  -3  10   19.07   12.75
  -4   3 -10   34.95    9.44
   4   2 -10    8.59   13.21
  -4  -2  10    4.89   15.17
  -4  -2  10   17.63   13.57
   3   2 -10    3.52   10.62
   3   2 -10    7.50   15.78
   3   2 -10   -0.63   10.15
   3   2 -10   -1.78   10.70
  -3  -2  10   -0.32    9.65
  -3  -2  10    4.78   12.60
   2   2 -10  210.33   27.97
  -2  -2  10  107.15   23.79
   2   2 -10  148.42   26.98
  -2  -2  10  123.22   22.46
   2   2 -10  252.20   28.37
  -2  -2  10  158.78   27.96
  -1  -2  10   22.02   13.46
  -1  -2  10   24.39   11.66
   1   2 -10   32.05   13.05
   1   2 -10   30.44   13.09
   1   2 -10   37.71   15.80
   1   2 -10   47.44   18.14
  -1  -2  10   46.29   17.12
   0  -2  10   28.58   14.25
   0   2 -10   26.93   10.46
   0   2 -10   24.80   12.31
   0  -2  10   48.35   17.08
   0   2 -10   10.36    9.90
   0   2 -10   13.16   11.41
   0  -2  10    7.19    8.55
   1  -2  10  371.19   36.50
  -1   2 -10  419.01   28.32
   1  -2  10  457.54   38.84
  -1   2 -10  483.45   35.03
  -1   2 -10  406.38   33.82
   1  -2  10  391.97   32.12
   1  -2  10  430.69   37.38
  -1   2 -10  444.89   31.61
  -2   2 -10  107.42   10.92
  -2   2 -10   70.80   16.22
  -2   2 -10  107.92   11.43
   2  -2  10   83.95   18.92
   2  -2  10  123.00   22.15
  -2   2 -10  108.74   17.43
   2  -2  10   87.34   17.36
   3  -2  10  209.56   26.39
  -3   2 -10  202.23   20.42
   3  -2  10  207.63   25.69
  -3   2 -10  205.92   21.93
   3  -2  10  162.71   21.23
   4  -2  10   81.16   17.92
   4  -2  10   65.24   16.42
   4  -2  10   76.65   16.15
  -4   2 -10  101.26   14.06
   5  -2  10   -5.13    7.78
   5  -2  10   -1.32    9.05
   5  -2  10    1.55   10.41
  -4  -1  10   22.02   16.03
   4   1 -10   12.87   14.47
  -4  -1  10   15.71   13.82
   4   1 -10   10.93   12.39
   3   1 -10   42.64   15.69
  -3  -1  10   52.30   18.43
  -3  -1  10   40.44   18.22
   3   1 -10  100.54   25.90
   3   1 -10   31.02   15.97
  -3  -1  10   79.76   18.83
  -2  -1  10  165.34   24.61
  -2  -1  10  192.49   29.21
   2   1 -10  159.71   27.32
   2   1 -10  219.45   28.80
   2   1 -10  190.23   25.61
  -1  -1  10   65.05   19.52
   1   1 -10   40.88   14.27
   1   1 -10   38.61   13.06
  -1  -1  10   47.05   17.20
   1   1 -10   40.35   15.58
  -1  -1  10   31.56   12.95
   1   1 -10   31.33   15.27
   1   1 -10   28.04   14.08
   0   1 -10  281.03   26.30
   0   1 -10  252.26   28.44
   0   1 -10  336.86   30.60
   0  -1  10  258.15   30.76
   0  -1  10  294.58   31.96
   0   1 -10  294.65   28.67
   0  -1  10  248.62   31.07
   0  -1  10  252.09   26.87
  -1   1 -10  359.42   30.35
  -1   1 -10  373.49   30.18
  -1   1 -10  337.83   28.71
   1  -1  10  288.27   28.38
  -1   1 -10  332.44   30.60
   1  -1  10  350.37   34.07
   1  -1  10  344.69   33.29
  -1   1 -10  345.10   26.20
   2  -1  10    6.83    8.70
  -2   1 -10    4.43    6.08
  -2   1 -10    9.32    7.19
   2  -1  10   -1.01    9.36
  -2   1 -10    9.18    8.72
   2  -1  10    6.45    9.96
  -2   1 -10    3.99    7.63
  -3   1 -10  129.53   17.58
   3  -1  10   93.94   20.24
  -3   1 -10   99.40   16.60
   3  -1  10  110.63   20.04
   3  -1  10  103.31   17.59
   3  -1  10   91.82   19.22
   4  -1  10   60.04   16.23
   4  -1  10   65.51   15.05
  -4   1 -10   52.42   12.67
   4  -1  10   49.65   16.33
   5  -1  10  190.62   26.09
   5  -1  10  207.12   23.83
   5  -1  10  236.29   27.14
  -5   1 -10  239.61   18.84
  -4   0  10   29.31   14.62
  -4   0  10   16.94   15.61
   4   0 -10   35.95   17.07
   4   0 -10   19.72   13.67
   3   0 -10  152.81   26.65
  -3   0  10  101.78   21.21
   3   0 -10  130.88   24.00
  -3   0  10  121.17   24.83
  -3   0  10  155.94   29.26
   2   0 -10    7.87   12.78
   2   0 -10   10.61   11.35
  -2   0  10    8.53    9.47
   2   0 -10   -3.80   10.54
  -2   0  10   11.94   12.51
   2   0 -10    9.10    9.64
   2   0 -10    0.72   11.24
   1   0 -10  353.90   35.39
  -1   0  10  301.99   29.86
   1   0 -10  300.29   30.60
  -1   0  10  304.57   33.73
   1   0 -10  285.61   31.83
  -1   0  10  301.54   33.04
   1   0 -10  278.76   27.90
   1   0 -10  290.27   31.79
   0   0 -10  114.84   19.99
   0   0  10  112.68   21.78
   0   0 -10  141.40   23.19
   0   0 -10   99.83   19.88
   0   0 -10   83.49   16.15
   0   0  10   70.67   18.26
   0   0 -10   90.19   18.57
   0   0  10  101.74   17.95
   0   0 -10   77.61   17.60
  -1   0 -10   17.60    9.14
   1   0  10   -6.99    6.40
  -1   0 -10    0.00    9.06
  -1   0 -10   -2.83    7.49
  -1   0 -10    2.38    8.29
  -1   0 -10   -1.56    6.49
   1   0  10    7.97    9.79
   1   0  10   -3.96    9.43
   2   0  10   68.84   17.94
   2   0  10   75.28   18.04
  -2   0 -10   74.58   15.92
  -2   0 -10   51.89   12.22
  -2   0 -10   89.52   12.85
   2   0  10   56.47   16.22
  -2   0 -10   72.65   16.13
   2   0  10   76.24   16.27
   2   0  10   95.06   10.62
   3   0  10  122.02   21.42
   3   0  10  117.73   20.94
  -3   0 -10  137.04   19.10
   3   0  10  134.38   19.23
  -3   0 -10  110.23   10.65
  -3   0 -10  116.64   17.96
  -3   0 -10  131.66   11.86
   3   0  10  112.32   21.66
  -4   0 -10  282.25   25.00
  -4   0 -10  263.37   23.95
   4   0  10  262.57   29.65
   4   0  10  253.99   29.37
   4   0  10  209.33   24.11
   4   0  10  183.13   24.81
   5   0  10  107.21   19.09
  -5   0 -10  107.15   15.54
   5   0  10  108.57   20.57
   5   0  10  148.26   24.05
  -5   1  10   31.69   15.08
  -4   1  10   55.22   19.25
   4  -1 -10   91.32   21.13
  -4   1  10   91.36   20.42
   3  -1 -10   25.61   13.29
   3  -1 -10   29.79   14.44
  -3   1  10   15.46   11.82
  -3   1  10   30.52   16.24
   2  -1 -10  210.91   29.74
   2  -1 -10  284.37   33.76
   2  -1 -10  294.22   33.26
  -2   1  10  251.53   32.15
   2  -1 -10  284.46   30.91
  -2   1  10  235.72   27.48
   2  -1 -10  220.33   26.93
   1  -1 -10  705.42   44.66
  -1   1  10  637.85   49.17
   1  -1 -10  722.96   50.12
  -1   1  10  661.85   48.45
   1  -1 -10  776.92   49.11
   1  -1 -10  607.49   46.94
  -1   1  10  626.34   43.53
   1  -1 -10  709.68   48.53
   0  -1 -10   -1.63    7.36
   0  -1 -10    1.04    6.99
   0  -1 -10    3.34    9.53
   0  -1 -10   20.49   11.49
   0   1  10    6.65    8.20
   0   1  10   -3.88    8.23
   0   1  10   16.80    8.36
   0   1  10   11.22   10.63
   0  -1 -10    2.36    8.56
   0  -1 -10  -12.41    9.69
  -1  -1 -10   78.80   17.06
  -1  -1 -10   65.30   17.74
  -1  -1 -10   77.81   14.60
  -1  -1 -10   55.79   15.19
  -1  -1 -10   58.38   15.24
   1   1  10   64.95   17.17
   1   1  10   83.21   12.69
   1   1  10   47.54   14.19
   1   1  10   89.16   19.86
  -1  -1 -10   86.53   17.86
   2   1  10  112.21   18.25
  -2  -1 -10   92.68   17.26
   2   1  10   98.42   20.61
   2   1  10  124.78   15.45
   2   1  10  100.38   19.94
  -2  -1 -10   95.72   18.11
   2   1  10   88.41   20.23
  -2  -1 -10  107.55   18.49
  -2  -1 -10  105.72   14.77
  -2  -1 -10   75.65   14.50
  -3  -1 -10   18.76    7.35
  -3  -1 -10    7.73    7.94
  -3  -1 -10   11.87    7.21
   3   1  10   11.63   12.47
   3   1  10   20.53   11.61
  -3  -1 -10   30.26   11.88
   3   1  10   13.53   10.95
   3   1  10   -4.23    7.26
   4   1  10  435.80   38.95
   4   1  10  531.17   41.70
  -4  -1 -10  522.69   35.58
  -4  -1 -10  498.86   34.90
   4   1  10  479.56   38.19
   4   1  10  384.03   33.53
  -5  -1 -10    8.04    9.36
   5   1  10    1.34    9.87
   5   1  10    4.32   11.50
  -5   2  10  179.70   27.29
  -4   2  10   -3.17    9.45
  -4   2  10    1.01   13.09
   4  -2 -10    1.60    9.88
  -4   2  10    5.86   11.89
   3  -2 -10   95.15   21.70
   3  -2 -10   90.55   19.95
  -3   2  10   64.29   19.13
  -3   2  10   77.68   18.35
   3  -2 -10   81.39   22.41
  -2   2  10  439.34   40.36
   2  -2 -10  474.15   40.09
   2  -2 -10  429.22   40.84
   2  -2 -10  493.45   37.43
  -2   2  10  385.33   34.66
  -2   2  10  379.24   35.98
   2  -2 -10  465.72   42.26
   2  -2 -10  417.38   39.91
   1  -2 -10   61.30   18.75
  -1   2  10   92.15   18.67
   1  -2 -10  120.16   22.28
   1  -2 -10  127.02   22.67
   1  -2 -10   99.46   18.66
  -1   2  10  134.31   23.77
  -1   2  10  104.02   20.51
   1  -2 -10  123.62   22.11
  -1   2  10  118.81   23.15
   1  -2 -10   81.49   19.20
   0  -2 -10  156.91   20.69
   0  -2 -10  181.18   24.79
   0   2  10  139.94   21.11
   0  -2 -10  141.27   24.55
   0   2  10  154.37   24.27
   0   2  10  154.92   25.46
   0   2  10  220.05   21.49
   0  -2 -10  201.08   26.35
   0  -2 -10  190.74   25.15
   1   2  10  320.32   32.95
  -1  -2 -10  250.25   27.99
   1   2  10  291.40   32.49
  -1  -2 -10  280.18   25.39
   1   2  10  297.64   25.01
  -1  -2 -10  268.15   27.67
  -1  -2 -10  287.31   28.66
  -1  -2 -10  312.92   30.56
   1   2  10  298.48   31.55
  -1  -2 -10  276.79   30.12
   1   2  10  262.87   26.73
   2   2  10   78.03   17.00
  -2  -2 -10  128.15   20.02
  -2  -2 -10   84.63   17.56
  -2  -2 -10   74.56   15.76
   2   2  10   69.92   18.55
   2   2  10   71.31   18.10
   2   2  10  131.75   23.57
  -2  -2 -10   62.68   13.00
  -2  -2 -10   78.13   17.19
   3   2  10  191.52   27.56
  -3  -2 -10  158.63   17.29
  -3  -2 -10  197.59   23.39
  -3  -2 -10  161.98   19.11
   3   2  10  172.97   22.92
   3   2  10  206.47   26.29
   3   2  10  192.26   27.06
  -3  -2 -10  177.33   22.67
  -4  -2 -10   81.24   10.70
   4   2  10   63.16   16.46
   4   2  10   67.44   19.22
   4   2  10   78.19   19.76
  -4  -2 -10   92.80   18.06
   4   2  10   91.11   20.19
  -4  -2 -10   74.35   11.17
  -4  -2 -10   75.02   16.39
   5   2  10   31.12   15.53
  -5  -2 -10   24.86   12.17
   5   2  10   26.75   13.13
  -5   3  10  120.82   23.65
  -4   3  10  113.11   24.53
  -4   3  10  117.92   23.88
   4  -3 -10  143.79   26.06
  -4   3  10  132.28   22.82
   3  -3 -10  145.49   25.95
  -3   3  10  106.06   21.12
  -3   3  10  126.83   23.43
   3  -3 -10  101.48   24.77
   3  -3 -10   97.76   20.93
   2  -3 -10   50.43   14.98
   2  -3 -10   59.81   18.44
  -2   3  10   52.70   15.84
   2  -3 -10   80.66   21.17
   2  -3 -10   28.69   13.83
  -2   3  10   74.38   19.19
   2  -3 -10    0.00    8.98
   1  -3 -10  146.09   24.00
  -1   3  10  137.66   20.74
  -1   3  10  107.94   22.32
  -1   3  10  140.17   22.04
   1  -3 -10  159.21   26.39
   1  -3 -10  179.52   26.40
  -1   3  10  176.09   26.50
   1  -3 -10  142.96   23.79
   1  -3 -10  150.87   24.10
  -1   3  10  147.56   23.98
   1  -3 -10  171.61   22.78
   0   3  10  227.58   27.01
   0  -3 -10  224.55   24.17
   0   3  10  195.00   24.43
   0   3  10  197.58   27.97
   0  -3 -10  164.97   23.94
   0  -3 -10  244.48   28.49
   0   3  10  198.98   23.07
   0  -3 -10  209.23   26.87
   0   3  10  175.43   26.41
   0  -3 -10  171.46   25.11
   0  -3 -10  161.20   26.11
  -1  -3 -10    3.48    7.33
  -1  -3 -10   -6.86    6.38
   1   3  10    5.65    7.81
   1   3  10   -5.68    8.37
   1   3  10  -14.57    5.98
   1   3  10   -2.76    7.96
  -1  -3 -10   -1.13    8.47
  -1  -3 -10   -1.95   10.55
  -1  -3 -10   -3.25    8.54
   1   3  10    1.34    8.07
  -1  -3 -10   -2.14    8.89
   2   3  10  589.22   41.47
  -2  -3 -10  654.89   43.97
   2   3  10  566.40   45.57
  -2  -3 -10  645.31   39.25
   2   3  10  640.73   45.69
  -2  -3 -10  618.53   43.06
  -2  -3 -10  590.35   42.19
   2   3  10  620.49   46.80
  -2  -3 -10  702.93   47.18
  -2  -3 -10  592.41   41.39
   3   3  10  236.01   27.44
  -3  -3 -10  247.93   22.65
  -3  -3 -10  272.34   26.11
   3   3  10  305.70   33.81
  -3  -3 -10  307.71   29.39
   3   3  10  260.63   31.90
   3   3  10  296.17   31.28
  -3  -3 -10  305.95   28.81
  -3  -3 -10  290.67   29.43
  -4  -3 -10   64.11   16.37
  -4  -3 -10   58.15   11.47
   4   3  10   65.26   16.62
   4   3  10   90.72   21.03
   4   3  10   58.22   18.56
  -4  -3 -10   60.67   16.07
   5   3  10  244.48   33.19
  -5  -3 -10  200.18   24.89
   5   3  10  178.88   29.08
  -5  -3 -10  228.40   15.30
   5   3  10  173.31   25.94
   4  -4 -10  168.79   27.46
  -4   4  10  210.11   27.02
   4  -4 -10  132.16   28.14
  -3   4  10   17.56   12.65
  -3   4  10   62.10   19.72
   3  -4 -10   55.05   16.76
   3  -4 -10   15.42   13.38
   3  -4 -10   25.93   14.27
   2  -4 -10   13.05   11.67
  -2   4  10   -2.43   10.75
  -2   4  10   24.90   13.21
  -2   4  10    4.58   11.87
   2  -4 -10    1.15    9.77
  -2   4  10   25.05   12.67
   2  -4 -10   25.36   12.47
   2  -4 -10    1.72   10.43
   1  -4 -10  615.86   46.13
   1  -4 -10  579.48   41.64
   1  -4 -10  532.17   42.72
  -1   4  10  570.37   45.52
   1  -4 -10  577.94   44.05
   1  -4 -10  506.52   45.67
  -1   4  10  634.61   46.71
  -1   4  10  588.63   42.63
  -1   4  10  576.48   43.87
   1  -4 -10  660.20   47.77
  -1   4  10  599.34   41.98
   0  -4 -10   27.57   12.45
   0   4  10   45.08   15.62
   0  -4 -10   48.32   15.72
   0  -4 -10   32.24   12.21
   0   4  10   44.90   14.52
   0   4  10   36.11   13.66
   0  -4 -10   44.03   15.31
   0   4  10   34.47   13.58
   0  -4 -10    6.53   11.66
   0   4  10   38.47   15.95
   0   4  10   35.42   14.49
   0  -4 -10   43.64   15.97
  -1  -4 -10  120.33   23.49
  -1  -4 -10   62.96   17.52
   1   4  10   89.46   20.69
  -1  -4 -10   70.63   15.44
   1   4  10   74.57   19.89
   1   4  10  119.66   21.83
  -1  -4 -10  117.01   21.57
   1   4  10  105.13   19.80
   1   4  10   55.84   15.75
  -1  -4 -10   52.47   15.22
  -1  -4 -10   79.91   19.05
  -2  -4 -10  495.31   38.98
  -2  -4 -10  514.61   40.55
   2   4  10  470.45   42.12
   2   4  10  504.76   41.34
  -2  -4 -10  561.81   44.33
  -2  -4 -10  554.51   40.35
  -2  -4 -10  457.60   37.72
   2   4  10  512.19   38.84
  -2  -4 -10  562.09   37.14
   2   4  10  592.91   46.19
  -3  -4 -10    4.69    7.12
  -3  -4 -10    6.64   10.24
  -3  -4 -10   18.26   11.22
   3   4  10   15.99   11.16
   3   4  10   29.12   14.81
  -3  -4 -10   18.67   12.16
   3   4  10   15.70   13.02
  -3  -4 -10   12.82   12.07
  -4  -4 -10  304.04   31.47
  -4  -4 -10  294.44   24.57
   4   4  10  224.48   28.01
   4   4  10  248.60   32.45
   4   4  10  262.01   34.40
  -4  -4 -10  256.40   28.63
  -5  -4 -10    8.61    7.69
   5   4  10    0.96   13.05
   5   4  10   -0.88   12.57
   5   4  10    3.32   11.37
   4  -5 -10   79.70   23.07
   4  -5 -10   49.64   18.03
  -4   5  10   51.57   16.73
  -3   5  10   18.34   14.33
   3  -5 -10    2.42   12.89
   3  -5 -10   12.07   10.75
   3  -5 -10   15.01   13.06
  -3   5  10   -0.45    9.57
   2  -5 -10  292.09   35.37
   2  -5 -10  276.98   33.45
  -2   5  10  266.28   32.97
  -2   5  10  339.55   34.55
   2  -5 -10  279.32   30.75
  -2   5  10  325.06   34.91
  -2   5  10  282.29   30.41
   2  -5 -10  304.14   34.21
   1  -5 -10   -4.56    8.19
  -1   5  10   -2.75    8.71
   1  -5 -10    0.08    9.48
  -1   5  10    0.53    8.57
   1  -5 -10    1.96   10.38
  -1   5  10    3.78    9.08
   1  -5 -10   23.42   14.49
  -1   5  10    0.74   11.64
   1  -5 -10   10.92   10.03
  -1   5  10   -0.56    9.54
   0   5  10  160.26   25.12
   0  -5 -10  134.83   25.19
   0  -5 -10  164.36   26.23
   0   5  10  162.36   26.94
   0  -5 -10  136.98   23.53
   0   5  10  138.26   23.16
   0  -5 -10  118.90   22.94
   0   5  10  151.22   26.24
   0  -5 -10  129.44   20.96
   0   5  10  145.00   22.51
   0  -5 -10  171.92   26.15
   0   5  10   97.85   21.87
   1   5  10   18.14   11.83
  -1  -5 -10   16.25   13.72
   1   5  10   20.18   13.36
  -1  -5 -10    8.84   10.96
  -1  -5 -10   31.59   13.75
  -1  -5 -10   13.24    9.95
  -1  -5 -10    4.07   11.03
  -1  -5 -10    9.30    9.94
   1   5  10    8.67   11.09
   2   5  10  120.21   24.28
  -2  -5 -10  128.90   22.34
   2   5  10  100.22   19.83
  -2  -5 -10   82.38   16.90
  -2  -5 -10   52.04   15.55
  -2  -5 -10  124.54   25.21
  -2  -5 -10  116.48   22.55
  -2  -5 -10  106.80   21.30
   2   5  10  104.77   24.25
  -3  -5 -10  616.91   46.34
  -3  -5 -10  621.32   44.39
   3   5  10  612.74   48.98
  -3  -5 -10  582.10   42.59
   3   5  10  548.19   42.63
   3   5  10  619.15   50.35
  -3  -5 -10  609.61   39.87
  -3  -5 -10  589.57   43.79
  -4  -5 -10   81.38   20.14
  -4  -5 -10   66.88   15.06
   4   5  10   32.42   14.37
   4   5  10   60.65   20.99
   4   5  10   27.31   17.02
  -5  -5 -10   55.65   13.47
   5   5  10   42.08   20.38
   5   5  10   37.21   19.02
   5   5  10   40.28   17.03
   4  -6 -10   15.79   16.98
  -4   6  10   -6.14   12.08
   4  -6 -10    2.20   11.74
  -3   6  10  160.57   25.14
   3  -6 -10  103.97   22.92
  -3   6  10  130.81   27.44
   3  -6 -10   40.73   17.66
  -2   6  10   85.24   20.05
   2  -6 -10   63.44   16.78
  -2   6  10   88.54   21.13
   2  -6 -10  114.37   23.61
  -2   6  10  109.80   24.71
   2  -6 -10   81.88   22.31
  -2   6  10   38.85   17.31
   1  -6 -10  204.11   29.63
  -1   6  10  235.05   29.07
   1  -6 -10  261.42   31.87
  -1   6  10  261.91   31.55
   1  -6 -10  215.63   29.85
   1  -6 -10  190.89   26.14
  -1   6  10  181.25   28.68
  -1   6  10  219.43   30.68
   0  -6 -10  534.48   40.51
   0   6  10  546.29   46.18
   0  -6 -10  494.61   43.51
   0  -6 -10  521.77   43.62
   0   6  10  526.18   40.28
   0  -6 -10  588.89   45.94
   0   6  10  484.08   44.81
  -1  -6 -10   65.69   17.52
  -1  -6 -10   74.65   17.67
   1   6  10   70.23   20.69
  -1  -6 -10   61.42   18.67
  -1  -6 -10   72.44   22.78
   1   6  10   73.95   18.67
  -1  -6 -10   77.19   19.61
   1   6  10   91.75   22.58
  -1  -6 -10   29.15   15.56
   2   6  10  167.61   29.50
   2   6  10  148.18   27.39
  -2  -6 -10  143.64   25.21
   2   6  10  122.23   23.01
  -2  -6 -10  140.43   21.81
  -2  -6 -10  196.37   30.95
  -2  -6 -10  133.43   23.72
  -2  -6 -10  160.67   25.49
   3   6  10  234.23   33.61
  -3  -6 -10  160.49   25.44
  -3  -6 -10  180.11   23.73
   3   6  10  197.85   31.51
   3   6  10  182.24   26.49
  -4  -6 -10    6.24    9.62
   4   6  10    7.01   11.99
   4   6  10   -0.14   13.56
   4   6  10   -3.83   12.27
   5   6  10  103.09   25.93
   5   6  10   71.61   23.73
  -5  -6 -10   62.43   15.72
   5   6  10   99.65   23.92
   3  -7 -10   95.47   21.90
  -3   7  10   54.10   17.75
   3  -7 -10   51.51   20.69
  -2   7  10   36.76   17.15
  -2   7  10   36.75   16.44
  -2   7  10   49.69   16.57
   2  -7 -10   58.66   16.89
   2  -7 -10    9.91   13.41
  -2   7  10   20.67   15.16
   1  -7 -10  198.31   29.60
  -1   7  10  164.40   28.70
  -1   7  10  174.35   28.80
  -1   7  10  208.60   29.06
  -1   7  10  137.97   24.03
   1  -7 -10  185.51   26.49
   1  -7 -10  132.09   26.39
   0   7  10   30.44   14.13
   0   7  10   37.72   17.15
   0   7  10   34.33   16.06
   0  -7 -10   48.04   15.06
   0  -7 -10   40.72   15.83
   0  -7 -10   38.47   16.72
   1   7  10   32.88   16.04
   1   7  10   20.60   14.89
  -1  -7 -10   40.53   15.08
  -1  -7 -10   44.38   16.72
  -1  -7 -10   22.01   14.67
   1   7  10   21.56   13.60
  -1  -7 -10   29.25   14.35
   2   7  10  205.50   33.10
   2   7  10  240.26   34.83
  -2  -7 -10  227.00   31.23
  -2  -7 -10  224.74   27.55
  -3  -7 -10   -3.87    7.92
   3   7  10   11.48   15.55
   3   7  10   14.17   11.92
   3   7  10   21.01   14.33
   4   7  10  173.04   29.46
   4   7  10  245.69   36.57
  -4  -7 -10  214.73   26.59
  -3   8  10   17.16   14.40
   3  -8 -10   26.85   17.04
  -2   8  10  224.41   31.62
   2  -8 -10  231.88   31.26
   2  -8 -10  181.25   30.83
  -2   8  10  244.92   30.41
   1  -8 -10   53.02   18.44
  -1   8  10   56.56   19.45
  -1   8  10   55.17   20.24
  -1   8  10   85.18   23.62
   1  -8 -10   64.76   18.77
  -1   8  10   72.89   19.22
   0   8  10  157.17   30.21
   0  -8 -10  132.33   24.03
   0   8  10  126.93   24.21
   0  -8 -10  123.11   24.71
   0   8  10  129.05   26.34
   1   8  10  267.59   36.39
   1   8  10  341.72   35.36
  -1  -8 -10  320.21   33.40
  -2  -8 -10   -8.82   14.51
   2   8  10    7.02   12.91
   2   8  10   -2.42    9.81
  -2  -8 -10    2.71   10.02
  -3  -8 -10  447.73   39.54
   3   8  10  508.90   49.67
   3   8  10  433.72   43.08
   4   8  10  176.67   30.46
  -2   9  10   47.56   18.69
   2  -9 -10   46.39   18.16
  -1   9  10   34.59   16.92
   1  -9 -10   -3.57    9.64
  -1   9  10   -7.79   10.14
   0   9  10   76.06   20.26
   0  -9 -10   77.33   21.11
   0   9  10   59.42   20.11
   1   9  10   -1.66   11.27
   1   9  10   -2.80   11.77
  -1  -9 -10  -12.42    8.61
  -2  -9 -10   74.00   20.24
   2   9  10   54.63   19.59
   2   9  10  111.67   27.86
   3   9  10  144.32   30.96
   3   9  10  110.37   27.02
   0  10  10   -3.20   13.30
   1   4 -11  128.97   25.41
  -1  -4  11  191.81   29.60
  -1  -4  11  162.03   30.07
   1   4 -11  103.45   20.88
  -1  -4  11  182.00   31.58
   0   4 -11   64.97   15.92
   0  -4  11   37.53   16.41
   1  -4  11   43.10   15.40
  -1   4 -11   53.50   11.07
   2  -4  11   78.09   18.85
  -2   4 -11   98.44   19.57
  -2  -3  11   70.01   23.38
   2   3 -11  131.63   24.14
  -2  -3  11   94.22   22.56
   2   3 -11   98.48   25.38
  -1  -3  11   73.07   23.19
   1   3 -11   64.36   19.81
   1   3 -11   56.62   16.57
  -1  -3  11   92.63   21.21
   0   3 -11   31.85   14.36
   0  -3  11   12.54   11.20
   0   3 -11   10.64    9.88
   0  -3  11   30.10   17.12
  -1   3 -11  164.79   23.51
  -1   3 -11  152.30   17.94
   1  -3  11  173.29   24.77
  -2   3 -11  143.17   22.11
   2  -3  11  124.13   21.29
   2  -3  11  111.83   24.48
   3  -3  11  134.52   24.36
  -3   3 -11  141.28   20.10
   3  -3  11   75.72   18.24
  -3  -2  11   79.16   24.11
  -3  -2  11   80.16   21.00
   2   2 -11  199.60   30.16
  -2  -2  11  198.21   32.27
   2   2 -11  175.45   26.63
  -2  -2  11  158.73   26.72
  -2  -2  11  192.58   33.22
   1   2 -11    6.19   10.08
   1   2 -11    1.46   11.28
  -1  -2  11   18.01   16.24
  -1  -2  11    4.61   11.54
   0  -2  11  113.24   21.40
   0   2 -11  109.34   18.88
   0  -2  11   91.88   22.84
   0   2 -11  106.37   21.28
  -1   2 -11  125.54   21.39
  -1   2 -11  114.45   16.47
   1  -2  11   84.46   21.27
   1  -2  11   70.42   20.99
   1  -2  11  108.67   20.45
  -1   2 -11  107.98   21.12
   2  -2  11    2.51    9.19
   2  -2  11    3.16   11.76
  -2   2 -11   13.22    6.54
  -2   2 -11   14.27   11.35
   2  -2  11   10.05   12.10
   3  -2  11  214.76   25.40
   3  -2  11  158.89   26.34
  -3   2 -11  193.59   23.40
  -4   2 -11   11.97   10.41
   4  -2  11   18.39   11.94
   4  -2  11   25.33   14.32
   3   1 -11  128.95   25.01
  -3  -1  11  113.64   24.40
  -3  -1  11  109.50   26.53
   2   1 -11    7.31   15.11
  -2  -1  11   -5.60   13.41
  -2  -1  11   -8.62    9.61
   2   1 -11   22.40   14.11
   2   1 -11   -5.50   10.07
   1   1 -11   64.09   16.72
  -1  -1  11   51.13   16.63
   1   1 -11   63.39   18.99
  -1  -1  11   62.14   20.69
   1   1 -11   90.38   22.13
   0   1 -11  131.62   20.14
   0   1 -11   76.92   19.67
   0   1 -11  129.01   22.48
   0   1 -11   77.30   19.65
   0  -1  11   76.89   17.80
  -1   1 -11    1.35    9.46
   1  -1  11    1.94   11.66
  -1   1 -11    3.82    8.05
  -1   1 -11   -0.92    8.86
   1  -1  11    0.69    8.16
   1  -1  11   13.68   13.12
  -2   1 -11  291.99   29.19
  -2   1 -11  308.61   21.92
   2  -1  11  283.67   29.06
  -2   1 -11  237.62   26.70
   2  -1  11  281.62   32.95
   2  -1  11  358.24   36.82
   3  -1  11   11.68   10.75
   3  -1  11   -9.37    8.35
   3  -1  11    4.20   13.08
  -3   1 -11    6.09    9.43
   4  -1  11   76.32   19.68
  -4   1 -11  132.58   19.19
   4  -1  11  147.07   24.36
   4  -1  11  111.45   20.32
  -3   0  11   17.09   15.05
  -3   0  11   43.00   16.40
   3   0 -11   26.70   15.50
  -2   0  11   97.44   21.14
   2   0 -11   72.27   18.78
   2   0 -11   64.25   19.47
   2   0 -11   25.70   17.38
  -2   0  11   39.33   19.26
  -1   0  11  112.76   21.92
   1   0 -11  106.14   22.01
   1   0 -11   76.26   18.35
   1   0 -11  125.67   24.74
   0   0 -11   -5.38    6.48
   0   0 -11   -6.40   10.15
   0   0  11   15.10   12.74
   0   0 -11   -2.94   11.20
   0   0 -11   -4.94    9.28
   0   0  11   -1.78    8.62
   0   0 -11    0.93    8.60
   1   0  11  194.87   29.50
  -1   0 -11  294.26   29.79
  -1   0 -11  211.11   25.49
  -1   0 -11  266.76   28.70
   1   0  11  235.96   30.88
  -1   0 -11  241.60   27.97
  -1   0 -11  252.15   24.44
   1   0  11  229.40   27.35
  -2   0 -11  171.35   23.43
   2   0  11  141.46   25.35
  -2   0 -11  171.22   18.00
   2   0  11  112.54   22.39
  -2   0 -11  109.82   19.83
   2   0  11  129.16   21.26
   3   0  11   -1.37    8.89
  -3   0 -11    2.05    8.57
  -3   0 -11   -3.32    9.00
   3   0  11    7.40   11.36
   3   0  11    5.09   10.19
   3   0  11   12.68   13.87
  -3   0 -11    1.75    5.10
   4   0  11  111.83   23.78
   4   0  11   94.38   20.92
  -4   0 -11   86.64   17.24
   4   0  11  102.01   20.01
  -4   1  11    9.43   12.62
  -3   1  11   56.32   17.60
   3  -1 -11   47.75   16.81
   2  -1 -11  161.86   26.80
   2  -1 -11  117.33   22.32
  -2   1  11   85.40   20.62
   2  -1 -11   88.21   24.34
   1  -1 -11   -1.08    7.64
  -1   1  11   10.32   10.37
   1  -1 -11    3.05    9.52
   1  -1 -11    8.76   10.16
   1  -1 -11   11.38   13.32
   0  -1 -11  153.50   24.68
   0  -1 -11  114.75   19.65
   0  -1 -11  146.87   26.23
   0   1  11  166.36   27.11
   0  -1 -11  101.75   21.34
   0   1  11  147.35   23.15
   0  -1 -11   91.65   21.57
   0  -1 -11  139.86   23.82
  -1  -1 -11  202.22   26.05
  -1  -1 -11  172.82   21.42
  -1  -1 -11  189.84   26.16
   1   1  11  181.90   24.56
   1   1  11  183.57   17.85
  -1  -1 -11  199.83   26.42
  -1  -1 -11  201.96   25.29
   1   1  11  205.19   29.30
   1   1  11  182.25   27.45
   2   1  11   26.86   15.14
   2   1  11   10.25    8.20
   2   1  11    7.23    9.84
   2   1  11   19.63   12.21
  -2  -1 -11   17.50   11.74
  -2  -1 -11   16.92   10.83
  -2  -1 -11    4.36    8.92
  -2  -1 -11   13.17    8.88
   2   1  11    0.22    8.24
  -3  -1 -11  261.42   20.78
   3   1  11  272.93   33.33
   3   1  11  244.62   31.46
   3   1  11  281.64   29.27
  -3  -1 -11  375.09   32.35
   3   1  11  291.74   32.37
  -3  -1 -11  299.86   29.68
  -4  -1 -11   46.34   14.84
   4   1  11   94.18   21.54
   4   1  11   39.05   14.76
   4   1  11   78.85   21.19
   5   1  11   43.31   16.09
  -4   2  11   -0.83   12.14
   4  -2 -11   -8.76    9.50
   3  -2 -11  126.28   24.88
  -3   2  11  143.31   24.65
  -2   2  11    9.80   10.67
   2  -2 -11    8.11   15.82
   2  -2 -11   -0.50   10.27
   2  -2 -11    7.10   10.88
   1  -2 -11  134.18   24.56
   1  -2 -11  164.51   23.77
  -1   2  11  143.68   26.71
   1  -2 -11  123.87   24.46
   1  -2 -11   97.46   21.42
  -1   2  11  116.15   21.71
   0  -2 -11  328.34   35.60
   0  -2 -11  267.74   31.33
   0   2  11  295.61   26.38
   0  -2 -11  298.22   33.30
   0   2  11  259.41   33.50
   0  -2 -11  293.15   29.08
   0   2  11  252.10   29.34
   0  -2 -11  308.64   32.93
  -1  -2 -11    3.98    8.56
   1   2  11   15.34   10.82
  -1  -2 -11   12.33   11.27
  -1  -2 -11    8.66   12.32
   1   2  11   -3.90   11.01
  -1  -2 -11    3.07   10.48
  -1  -2 -11   -7.29    8.07
   1   2  11    6.03    8.46
   1   2  11    4.14   11.00
   2   2  11  197.75   21.81
  -2  -2 -11  198.41   25.98
  -2  -2 -11  173.59   22.98
   2   2  11  162.10   27.27
  -2  -2 -11  149.56   23.59
   2   2  11  144.28   26.13
   2   2  11  194.28   25.26
  -2  -2 -11  225.60   26.57
  -2  -2 -11  143.32   19.39
   2   2  11  200.71   28.45
   3   2  11  235.34   31.82
  -3  -2 -11  221.08   20.93
   3   2  11  293.99   34.74
  -3  -2 -11  247.51   27.57
  -3  -2 -11  261.41   28.72
   3   2  11  167.45   24.69
   3   2  11  235.38   30.23
  -4  -2 -11    9.15    6.80
   4   2  11    1.47   11.72
   4   2  11   -9.02   11.98
   4   2  11    6.52   10.66
  -4  -2 -11    9.57   10.83
   4   2  11    1.22   11.92
   5   2  11  297.10   36.57
   5   2  11  261.25   30.13
   4  -3 -11    1.93   12.71
  -4   3  11   13.79   13.72
   3  -3 -11    2.53   10.52
  -3   3  11    3.02   11.62
   2  -3 -11   84.04   19.19
  -2   3  11  110.70   22.23
   2  -3 -11  145.13   26.28
  -1   3  11  104.21   19.91
   1  -3 -11  114.89   23.45
   1  -3 -11   96.57   19.28
  -1   3  11  141.66   26.57
   1  -3 -11   80.75   21.11
  -1   3  11   97.34   20.56
   1  -3 -11   85.04   22.46
   0   3  11    4.47    9.53
   0  -3 -11    0.80   12.31
   0  -3 -11   10.99   14.35
   0  -3 -11    3.66    8.89
   0  -3 -11    0.07    7.72
   0   3  11   17.06   12.85
   0  -3 -11   -6.53   10.74
   0   3  11    0.19    9.23
   0  -3 -11   -4.94    9.40
  -1  -3 -11  419.86   37.92
  -1  -3 -11  338.35   34.13
  -1  -3 -11  358.83   31.46
   1   3  11  384.43   39.72
   1   3  11  359.53   34.61
  -1  -3 -11  404.71   39.37
  -1  -3 -11  359.20   34.79
   1   3  11  425.68   33.22
  -1  -3 -11  381.06   36.72
   1   3  11  390.61   39.68
  -2  -3 -11   82.09   16.29
  -2  -3 -11  103.08   21.26
  -2  -3 -11  127.84   21.69
   2   3  11  100.20   22.52
  -2  -3 -11   63.45   17.63
   2   3  11   58.79   16.49
   2   3  11   69.87   20.86
   2   3  11  112.61   23.85
  -2  -3 -11   90.38   19.81
   3   3  11   -8.18   10.69
  -3  -3 -11    3.30    9.97
  -3  -3 -11   13.27    8.49
   3   3  11   -6.62   11.14
  -3  -3 -11    9.45   11.07
   3   3  11   13.24   11.04
  -4  -3 -11  158.15   17.47
   4   3  11  178.50   26.16
   4   3  11  167.50   30.17
  -4  -3 -11  167.42   24.81
   4   3  11  194.43   30.80
   5   3  11   -0.67   11.56
  -3   4  11   12.07   11.88
   3  -4 -11   34.48   14.78
   2  -4 -11  135.01   24.13
  -2   4  11  112.07   23.02
  -2   4  11  125.14   25.86
  -1   4  11  -10.25    9.92
   1  -4 -11   -5.87   10.10
  -1   4  11    5.96   10.69
  -1   4  11    6.68   10.92
   1  -4 -11   -8.39    7.87
   1  -4 -11    4.64   11.91
   1  -4 -11    3.92   13.61
   0  -4 -11   52.43   18.64
   0   4  11   27.99   13.52
   0  -4 -11   33.18   14.56
   0   4  11   46.56   17.20
   0   4  11   27.94   13.06
   0  -4 -11   50.53   14.63
   0  -4 -11   75.70   20.00
   1   4  11  344.33   38.19
  -1  -4 -11  374.30   36.86
   1   4  11  362.22   40.05
   1   4  11  442.37   37.20
  -1  -4 -11  487.29   43.77
  -1  -4 -11  361.73   36.10
   1   4  11  316.58   33.65
  -1  -4 -11  335.47   31.25
   2   4  11   10.99   11.49
  -2  -4 -11   18.85   12.56
  -2  -4 -11   15.69    9.50
  -2  -4 -11    6.82   11.31
   2   4  11    3.57   11.33
  -2  -4 -11   11.87   12.71
   2   4  11    5.81   12.65
   3   4  11  132.64   27.64
   3   4  11  120.73   23.29
  -3  -4 -11  118.71   18.33
   3   4  11  144.80   28.42
  -3  -4 -11  169.67   25.91
   4   4  11   17.52   15.91
   4   4  11   30.18   17.34
   4   4  11   24.39   14.00
  -4  -4 -11   27.96   10.56
  -4  -4 -11   22.30   13.25
  -3   5  11   59.02   19.80
   3  -5 -11   49.85   17.86
   2  -5 -11   36.13   14.49
  -2   5  11    8.06   11.30
  -2   5  11    8.55   12.55
  -2   5  11    8.55   12.99
   1  -5 -11   13.00   12.63
   1  -5 -11   42.58   16.67
   1  -5 -11   36.28   14.28
  -1   5  11   37.28   15.29
  -1   5  11   32.09   15.27
  -1   5  11   44.71   19.09
   0  -5 -11   30.19   12.36
   0   5  11    7.58   11.39
   0  -5 -11   50.00   18.57
   0   5  11   42.49   17.03
   0  -5 -11   67.14   19.40
   0  -5 -11   53.93   17.04
   0   5  11   31.31   14.58
  -1  -5 -11   11.10   13.61
   1   5  11   -9.08   10.96
   1   5  11   22.15   13.65
  -1  -5 -11   18.55   10.69
  -1  -5 -11   11.19   11.50
  -1  -5 -11    4.19   11.56
   1   5  11    3.42   10.59
   1   5  11   29.29   15.58
  -2  -5 -11  216.95   25.08
   2   5  11  184.82   31.30
   2   5  11  184.47   27.03
  -2  -5 -11  169.83   27.97
   2   5  11  178.95   30.41
  -2  -5 -11  196.71   27.60
  -3  -5 -11   31.21   15.71
   3   5  11   29.57   18.12
   3   5  11   16.06   15.30
   3   5  11   18.09   12.13
  -3  -5 -11   21.87   10.38
  -4  -5 -11   20.76   10.74
   4   5  11   -2.38   14.76
   4   5  11    5.77   14.34
  -4  -5 -11   38.40   15.57
   4   5  11   31.09   15.51
   3  -6 -11   49.72   17.95
  -3   6  11   40.33   18.02
  -2   6  11   58.73   19.63
   2  -6 -11   53.94   17.68
  -2   6  11   55.79   20.80
  -2   6  11   54.77   18.67
  -1   6  11  372.74   38.06
   1  -6 -11  449.97   39.26
  -1   6  11  368.02   41.28
  -1   6  11  390.56   40.58
   0   6  11   25.44   15.65
   0   6  11   46.33   18.86
   0  -6 -11   55.71   20.29
   0  -6 -11   41.61   14.97
   0   6  11   52.55   17.79
   1   6  11   11.12   13.25
   1   6  11    8.01   11.55
  -1  -6 -11    1.79   12.68
  -1  -6 -11    2.13   12.00
  -1  -6 -11    4.20    9.40
   1   6  11    3.54   11.97
  -2  -6 -11   87.48   22.47
  -2  -6 -11   51.83   18.34
   2   6  11   85.67   22.76
  -2  -6 -11   61.25   16.88
   2   6  11  102.20   22.09
   3   6  11   -6.16   11.90
  -3  -6 -11   -9.64    7.80
  -3  -6 -11   -1.75   11.65
   3   6  11   -4.88   10.55
  -4  -6 -11  284.82   28.86
   4   6  11  384.22   39.05
   4   6  11  354.55   42.95
  -4  -6 -11  278.87   35.81
  -2   7  11   99.14   23.04
   2  -7 -11  129.86   25.36
  -2   7  11  103.96   25.27
  -1   7  11   30.33   16.22
   1  -7 -11    7.23   12.28
  -1   7  11   30.59   17.73
  -1   7  11   17.94   14.19
   0   7  11   68.70   20.61
   0  -7 -11   50.06   16.89
   0   7  11   44.55   18.70
   0   7  11   55.41   20.45
  -1  -7 -11   47.71   19.24
   1   7  11   90.01   22.06
  -1  -7 -11   74.51   18.99
   1   7  11   66.65   22.24
   1   7  11   65.58   20.12
  -2  -7 -11   -2.49   12.17
   2   7  11    0.65   12.14
   2   7  11    5.30   10.71
  -2  -7 -11    2.48    9.75
  -3  -7 -11   67.90   21.92
  -3  -7 -11   58.36   17.19
   3   7  11  140.29   26.64
   3   7  11  105.91   28.47
  -1   8  11   18.16   16.13
  -1   8  11   -8.59   11.64
   1  -8 -11   21.64   14.63
   0   8  11    3.79   13.90
   0   8  11   36.14   17.66
   0  -8 -11   31.01   15.63
   1   8  11   35.36   19.03
   1   8  11   11.46   14.50
  -1  -8 -11   15.00   13.84
   2   8  11  352.12   38.47
   2   8  11  295.72   41.61
  -1  -2  12    1.42   11.77
   0   2 -12   15.16   13.02
   0  -2  12   16.27   12.72
   0   2 -12   17.20   11.38
  -1   2 -12    3.37    9.33
   1  -2  12   -4.14    9.27
   2  -2  12  111.85   22.80
   1   1 -12    8.61   11.58
   1   1 -12    6.18   12.44
  -1  -1  12   -1.83    9.69
   0   1 -12   54.31   15.81
   0   1 -12   59.75   18.86
   0  -1  12   40.37   16.08
   1  -1  12   78.04   19.29
   1  -1  12   85.15   23.93
  -1   1 -12   61.92   15.21
  -1   1 -12   67.25   18.73
  -2   1 -12  153.52   16.68
   2  -1  12  119.89   26.29
   2  -1  12  162.53   25.25
   3  -1  12   56.96   16.64
  -2   0  12  110.50   24.05
   1   0 -12   -9.82   10.60
   1   0 -12    5.02    9.73
  -1   0  12    6.80   11.49
   0   0  12   43.00   15.72
   0   0  12    1.91   14.10
   0   0 -12   17.29   10.03
   0   0 -12   15.83   12.63
  -1   0 -12   91.53   17.53
   1   0  12  162.58   29.13
  -1   0 -12   91.37   21.07
   1   0  12   68.77   18.42
  -2   0 -12    0.40    7.19
   2   0  12   -1.01   13.38
   2   0  12   11.24   10.52
   3   0  12  270.56   30.68
   2  -1 -12   -0.53   10.79
  -2   1  12   -4.66   10.17
   1  -1 -12   46.97   16.78
  -1   1  12   59.19   18.47
   1  -1 -12   73.60   18.77
   0   1  12   80.25   23.89
   0  -1 -12  104.60   22.10
   0  -1 -12  108.22   20.71
   0   1  12   62.27   18.33
  -1  -1 -12    8.38    9.10
  -1  -1 -12   14.60   12.16
   1   1  12   24.99   16.22
   1   1  12    5.61   10.00
  -2  -1 -12   77.13   19.03
   2   1  12  105.86   21.49
   2   1  12   96.23   24.33
  -2  -1 -12  134.89   18.34
   3   1  12   42.46   17.86
  -3  -1 -12   27.90    9.55
   3   1  12   20.48   13.99
   3   1  12   11.62   14.27
  -2   2  12    2.69   11.23
   2  -2 -12   22.58   14.72
  -1   2  12   36.31   17.37
   1  -2 -12   43.15   19.90
   1  -2 -12   89.00   20.36
  -1   2  12   66.75   19.16
   1  -2 -12   89.74   22.67
   0  -2 -12   16.23   12.05
   0   2  12   49.12   18.88
   0   2  12   17.19   12.78
   0  -2 -12   31.37   16.33
   1   2  12  226.67   29.39
  -1  -2 -12  229.29   26.25
  -1  -2 -12  247.61   31.59
   1   2  12  298.56   37.38
  -2  -2 -12  107.97   18.17
   2   2  12   86.23   23.65
  -2  -2 -12  110.94   22.76
   2   2  12  115.16   26.30
   2   2  12  129.38   23.68
  -3  -2 -12    1.34    7.78
   3   2  12    1.82   14.31
   3   2  12   -1.91    9.93
   3   2  12    2.79   12.39
  -2   3  12  111.28   23.68
   2  -3 -12   91.76   22.30
  -1   3  12    2.11   10.59
   1  -3 -12   -4.77   11.29
  -1   3  12  -13.43   11.65
   1  -3 -12   -2.77    8.75
   1  -3 -12   16.86   16.73
   0  -3 -12   74.73   22.21
   0   3  12   84.77   21.46
   0  -3 -12   61.49   19.21
   0   3  12   48.37   16.06
   0   3  12   20.86   16.65
   0  -3 -12   61.42   16.93
  -1  -3 -12  105.98   23.52
  -1  -3 -12  116.25   20.49
   1   3  12  155.69   26.20
   1   3  12  128.09   20.77
   1   3  12   87.45   24.56
  -2  -3 -12   12.52   12.52
  -2  -3 -12    7.65    9.53
   2   3  12    5.70   10.40
   2   3  12   18.23   14.83
   2   3  12    6.39   10.59
   2   3  12   -4.01   13.12
   3   3  12   59.32   21.68
  -3  -3 -12   52.20   14.13
   3   3  12   92.97   26.70
   3   3  12   22.86   14.58
  -3  -3 -12   78.70   20.35
  -2   4  12   26.39   15.24
   2  -4 -12   20.32   13.81
  -1   4  12   23.79   13.82
  -1   4  12   49.55   17.62
   1  -4 -12   48.86   16.76
  -1   4  12   61.41   21.55
   0  -4 -12   32.29   18.68
   0   4  12   30.75   16.25
   0  -4 -12   48.97   15.81
   0  -4 -12   18.30   15.35
   0   4  12   45.74   15.90
   0   4  12   25.14   15.27
   1   4  12    5.88   11.35
   1   4  12   10.20   13.38
  -1  -4 -12   15.62   10.98
  -1  -4 -12   12.56   12.73
   1   4  12   18.24   13.09
  -2  -4 -12  149.35   27.18
   2   4  12  157.18   29.75
   2   4  12  164.00   31.79
  -2  -4 -12  166.09   22.87
   2   4  12  123.45   24.58
   2   4  12  121.18   23.30
  -3  -4 -12   63.96   15.94
  -3  -4 -12   54.71   18.30
   3   4  12   83.10   24.80
   3   4  12   52.19   18.60
   3   4  12   83.69   25.25
   2  -5 -12   -3.07   10.85
  -2   5  12    8.08   13.41
  -2   5  12   13.65   16.36
  -2   5  12   16.48   14.12
  -1   5  12  150.25   26.89
  -1   5  12  153.62   30.70
   1  -5 -12  187.62   28.37
  -1   5  12  176.88   29.20
   0   5  12   -3.04    9.38
   0  -5 -12   17.04   11.29
   0  -5 -12    7.61   14.40
   0   5  12    2.76   12.41
   0  -5 -12    7.71   17.07
   0   5  12   35.11   18.05
  -1  -5 -12   29.98   16.78
  -1  -5 -12   13.34   11.69
   1   5  12   44.97   18.53
   1   5  12   21.13   17.45
   1   5  12   47.93   18.33
  -2  -5 -12   61.78   17.10
   2   5  12   92.71   22.08
  -2  -5 -12   75.92   22.02
   2   5  12   75.07   23.89
   2   5  12   94.91   23.74
   3   5  12    2.33   15.22
  -3  -5 -12   17.60   14.19
  -3  -5 -12   10.02   10.40
   3   5  12   12.32   13.39
   1  -6 -12   26.58   14.83
  -1   6  12   33.02   16.62
  -1   6  12   14.50   16.29
  -1   6  12   23.57   16.86
   0  -6 -12   25.77   14.80
   0   6  12   32.81   16.85
   0   6  12    3.48   13.45
   0   6  12   37.89   18.06
   1   6  12  113.77   24.67
  -1  -6 -12   80.94   23.73
  -1  -6 -12  123.80   23.34
   1   6  12  186.62   31.31
   1   6  12  111.38   28.20
  -2  -6 -12   19.01   11.97
   2   6  12    6.93   12.63
   2   6  12    8.77   16.04
  -2  -6 -12   24.86   15.79
   0   7  12  227.86   32.40
   0   7  12  214.24   36.31
   1   7  12   -2.52   14.31
   1   7  12   73.90   24.46
   1   7  12    7.30   12.33
   0   2  13  132.13   30.33
   0  -2 -13  112.23   26.12
   0   2  13   80.31   21.31
  -1  -2 -13   81.75   23.22
   1   2  13   45.91   17.83
  -1  -2 -13   65.60   17.54
   1   2  13   34.16   20.24
   0   3  13  178.59   29.60
   0  -3 -13  147.70   29.87
   0   3  13  234.30   36.12
   1   3  13    1.87   16.67
  -1  -3 -13   10.41   15.43
   1   3  13   22.60   15.66
   0   0   0    0.00    0.00
;
_shelx_hkl_checksum              79897
loop_
_space_group_symop_operation_xyz
'x, y, z'
'-x, -y, -z'
loop_
_atom_site_label
_atom_site_type_symbol
_atom_site_fract_x
_atom_site_fract_y
_atom_site_fract_z
_atom_site_U_iso_or_equiv
_atom_site_adp_type
_atom_site_occupancy
_atom_site_site_symmetry_order
_atom_site_calc_flag
_atom_site_refinement_flags_posn
_atom_site_refinement_flags_adp
_atom_site_refinement_flags_occupancy
_atom_site_disorder_assembly
_atom_site_disorder_group
Zr1 Zr 0.31140(4) 0.84260(2) 0.83962(2) 0.01849(8) Uani 1 1 d . . . . .
C1 C 0.5600(3) 1.0368(2) 0.9418(2) 0.0200(6) Uani 1 1 d . . . . .
C2 C -0.0280(4) 0.9162(3) 0.6740(2) 0.0219(6) Uani 1 1 d . . . . .
C3 C 0.0144(4) 1.0390(3) 0.7266(2) 0.0229(6) Uani 1 1 d . . . . .
C4 C 0.4856(4) 0.5779(3) 0.8125(3) 0.0256(6) Uani 1 1 d . . . . .
C5 C 0.6370(4) 0.6460(3) 0.8770(3) 0.0250(6) Uani 1 1 d . . . . .
O1 O 0.4466(3) 0.9020(2) 0.64926(18) 0.0296(5) Uani 1 1 d D . . . .
H1 H 0.553(4) 0.936(3) 0.635(3) 0.035 Uiso 1 1 d D U . . .
H2 H 0.424(4) 0.861(3) 0.589(3) 0.035 Uiso 1 1 d D U . . .
O2 O 0.0825(3) 0.7335(2) 0.9620(2) 0.0336(5) Uani 1 1 d D . . . .
H3 H 0.006(4) 0.688(3) 0.938(3) 0.040 Uiso 1 1 d D U . . .
H4 H 0.089(4) 0.709(3) 1.042(3) 0.040 Uiso 1 1 d D U . . .
O3 O 0.3191(3) 0.88200(18) 1.03668(17) 0.0262(4) Uani 1 1 d . . . . .
O4 O 0.5277(2) 1.00969(17) 0.83624(16) 0.0237(4) Uani 1 1 d . . . . .
O5 O 0.1469(3) 1.02283(17) 0.80715(18) 0.0272(4) Uani 1 1 d . . . . .
O6 O 0.0829(2) 0.82109(17) 0.71125(17) 0.0251(4) Uani 1 1 d . . . . .
O7 O 0.3370(3) 0.64821(17) 0.78541(18) 0.0285(4) Uani 1 1 d . . . . .
O8 O 0.5789(3) 0.75479(18) 0.90301(19) 0.0327(5) Uani 1 1 d . . . . .
O9 O -0.1584(3) 0.91605(19) 0.60054(18) 0.0306(5) Uani 1 1 d . . . . .
O10 O -0.0717(3) 1.14060(18) 0.69051(19) 0.0320(5) Uani 1 1 d . . . . .
O11 O 0.7951(3) 0.5964(2) 0.8968(2) 0.0390(5) Uani 1 1 d . . . . .
O12 O 0.5141(3) 0.46793(19) 0.7922(2) 0.0381(5) Uani 1 1 d . . . . .
O13 O 1.0878(3) 0.5467(2) 0.6354(2) 0.0427(6) Uani 1 1 d D . . . .
H5 H 1.162(5) 0.589(3) 0.669(3) 0.051 Uiso 1 1 d D U . . .
H6 H 1.036(5) 0.478(3) 0.688(3) 0.051 Uiso 1 1 d D U . . .
H7 H 0.960(4) 0.608(3) 0.588(3) 0.051 Uiso 1 1 d D U . . .
O14 O 0.8189(3) 0.6772(2) 0.5470(2) 0.0437(6) Uani 1 1 d D . . . .
H8 H 0.826(5) 0.759(3) 0.562(3) 0.052 Uiso 1 1 d D U . . .
H9 H 0.792(5) 0.677(3) 0.475(3) 0.052 Uiso 1 1 d D U . . .
O15 O 0.6331(4) 0.2056(3) 0.5336(2) 0.0566(7) Uani 1 1 d D . . . .
H10 H 0.718(5) 0.164(4) 0.578(3) 0.068 Uiso 1 1 d D U . . .
H11 H 0.542(5) 0.226(4) 0.586(3) 0.068 Uiso 1 1 d D U . . .
O16 O 0.8873(3) 0.3610(2) 0.7889(2) 0.0320(5) Uani 1 1 d D . . . .
H12 H 0.888(4) 0.297(3) 0.756(3) 0.038 Uiso 1 1 d D U . . .
H13 H 0.781(4) 0.391(3) 0.791(3) 0.038 Uiso 1 1 d D U . . .
O17 O 0.3325(3) 0.2828(2) 0.6897(2) 0.0392(5) Uani 1 1 d D . . . .
H14 H 0.279(5) 0.226(3) 0.747(3) 0.047 Uiso 1 1 d D U . . .
H15 H 0.370(5) 0.342(3) 0.724(3) 0.047 Uiso 1 1 d D U . . .
loop_
_atom_site_aniso_label
_atom_site_aniso_U_11
_atom_site_aniso_U_22
_atom_site_aniso_U_33
_atom_site_aniso_U_23
_atom_site_aniso_U_13
_atom_site_aniso_U_12
Zr1 0.01843(13) 0.01807(14) 0.02156(14) -0.00800(10) -0.00792(10) -0.00169(10)
C1 0.0197(13) 0.0158(13) 0.0265(14) -0.0068(11) -0.0086(11) 0.0020(11)
C2 0.0185(13) 0.0254(15) 0.0232(14) -0.0079(11) -0.0036(11) -0.0022(11)
C3 0.0193(13) 0.0254(15) 0.0263(14) -0.0112(12) -0.0003(11) -0.0024(12)
C4 0.0219(14) 0.0248(16) 0.0322(15) -0.0089(12) -0.0070(12) -0.0029(12)
C5 0.0223(14) 0.0216(15) 0.0331(15) -0.0077(12) -0.0089(12) -0.0017(12)
O1 0.0276(11) 0.0387(12) 0.0257(11) -0.0140(9) -0.0035(9) -0.0103(9)
O2 0.0328(12) 0.0436(13) 0.0263(11) -0.0099(10) -0.0064(9) -0.0185(10)
O3 0.0274(10) 0.0284(11) 0.0247(10) -0.0088(8) -0.0050(8) -0.0122(8)
O4 0.0280(10) 0.0250(10) 0.0198(9) -0.0072(8) -0.0063(8) -0.0076(8)
O5 0.0249(10) 0.0260(10) 0.0355(11) -0.0141(9) -0.0127(8) 0.0018(8)
O6 0.0262(10) 0.0214(10) 0.0314(10) -0.0097(8) -0.0144(8) 0.0026(8)
O7 0.0241(10) 0.0243(10) 0.0420(12) -0.0137(9) -0.0157(9) 0.0017(8)
O8 0.0326(11) 0.0262(11) 0.0467(12) -0.0186(9) -0.0216(9) 0.0080(9)
O9 0.0257(10) 0.0355(12) 0.0351(11) -0.0140(9) -0.0150(9) 0.0044(9)
O10 0.0330(11) 0.0251(11) 0.0423(12) -0.0139(9) -0.0144(9) 0.0085(9)
O11 0.0258(11) 0.0342(12) 0.0644(15) -0.0219(11) -0.0210(10) 0.0055(9)
O12 0.0319(11) 0.0259(11) 0.0644(15) -0.0225(10) -0.0187(10) 0.0052(9)
O13 0.0396(13) 0.0300(13) 0.0612(16) -0.0126(11) -0.0123(12) -0.0055(10)
O14 0.0542(14) 0.0339(13) 0.0481(14) -0.0135(11) -0.0254(12) 0.0027(11)
O15 0.0454(15) 0.092(2) 0.0463(15) -0.0413(14) -0.0229(12) 0.0238(14)
O16 0.0357(12) 0.0240(12) 0.0391(12) -0.0121(9) -0.0047(10) 0.0046(9)
O17 0.0465(14) 0.0307(13) 0.0449(14) -0.0152(10) -0.0134(11) -0.0031(10)
loop_
_atom_type_symbol
_atom_type_description
_atom_type_scat_dispersion_real
_atom_type_scat_dispersion_imag
_atom_type_scat_source
C C 0.0033 0.0016 'International Tables Vol C Tables 4.2.6.8 and 6.1.1.4'
H H 0.0000 0.0000 'International Tables Vol C Tables 4.2.6.8 and 6.1.1.4'
O O 0.0106 0.0060 'International Tables Vol C Tables 4.2.6.8 and 6.1.1.4'
Zr Zr -2.9673 0.5597 'International Tables Vol C Tables 4.2.6.8 and 6.1.1.4'
loop_
_geom_angle_atom_site_label_1
_geom_angle_atom_site_label_2
_geom_angle_atom_site_label_3
_geom_angle
_geom_angle_site_symmetry_1
_geom_angle_site_symmetry_3
_geom_angle_publ_flag
O1 Zr1 O2 147.72(7) . . ?
O1 Zr1 O8 89.42(8) . . ?
O2 Zr1 O8 106.52(8) . . ?
O1 Zr1 O5 88.45(7) . . ?
O2 Zr1 O5 93.42(8) . . ?
O8 Zr1 O5 144.89(7) . . ?
O1 Zr1 O6 75.32(7) . . ?
O2 Zr1 O6 74.71(7) . . ?
O8 Zr1 O6 140.70(7) . . ?
O5 Zr1 O6 71.87(6) . . ?
O1 Zr1 O3 141.40(7) . . ?
O2 Zr1 O3 70.62(7) . . ?
O8 Zr1 O3 77.09(7) . . ?
O5 Zr1 O3 82.99(7) . . ?
O6 Zr1 O3 135.40(7) . . ?
O1 Zr1 O7 80.74(7) . . ?
O2 Zr1 O7 78.42(8) . . ?
O8 Zr1 O7 70.95(6) . . ?
O5 Zr1 O7 142.80(6) . . ?
O6 Zr1 O7 70.96(6) . . ?
O3 Zr1 O7 126.19(7) . . ?
O1 Zr1 O4 70.55(7) . . ?
O2 Zr1 O4 140.55(7) . . ?
O8 Zr1 O4 72.83(7) . . ?
O5 Zr1 O4 73.45(6) . . ?
O6 Zr1 O4 131.26(6) . . ?
O3 Zr1 O4 70.93(6) . . ?
O7 Zr1 O4 133.41(7) . . ?
O4 C1 O3 127.7(2) . 2_677 ?
O4 C1 C1 116.4(3) . 2_677 ?
O3 C1 C1 115.9(3) 2_677 2_677 ?
O9 C2 O6 125.4(2) . . ?
O9 C2 C3 120.4(2) . . ?
O6 C2 C3 114.2(2) . . ?
O10 C3 O5 125.7(2) . . ?
O10 C3 C2 120.8(2) . . ?
O5 C3 C2 113.5(2) . . ?
O12 C4 O7 126.8(2) . . ?
O12 C4 C5 120.4(2) . . ?
O7 C4 C5 112.8(2) . . ?
O11 C5 O8 126.7(2) . . ?
O11 C5 C4 120.2(2) . . ?
O8 C5 C4 113.1(2) . . ?
C1 O3 Zr1 119.38(16) 2_677 . ?
C1 O4 Zr1 116.91(16) . . ?
C3 O5 Zr1 120.20(16) . . ?
C2 O6 Zr1 119.83(15) . . ?
C4 O7 Zr1 120.32(15) . . ?
C5 O8 Zr1 122.41(16) . . ?
loop_
_geom_bond_atom_site_label_1
_geom_bond_atom_site_label_2
_geom_bond_distance
_geom_bond_site_symmetry_2
_geom_bond_publ_flag
Zr1 O1 2.147(2) . ?
Zr1 O2 2.154(2) . ?
Zr1 O8 2.1555(18) . ?
Zr1 O5 2.1789(18) . ?
Zr1 O6 2.1994(16) . ?
Zr1 O3 2.2212(17) . ?
Zr1 O7 2.2228(18) . ?
Zr1 O4 2.2940(17) . ?
C1 O4 1.247(3) . ?
C1 O3 1.256(3) 2_677 ?
C1 C1 1.516(5) 2_677 ?
C2 O9 1.234(3) . ?
C2 O6 1.271(3) . ?
C2 C3 1.534(4) . ?
C3 O10 1.223(3) . ?
C3 O5 1.286(3) . ?
C4 O12 1.224(3) . ?
C4 O7 1.279(3) . ?
C4 C5 1.540(4) . ?
C5 O11 1.223(3) . ?
C5 O8 1.280(3) . ?
O3 C1 1.256(3) 2_677 ?
