#------------------------------------------------------------------------------
#$Date: 2020-08-04 05:10:40 +0300 (Tue, 04 Aug 2020) $
#$Revision: 254764 $
#$URL: file:///home/coder/svn-repositories/cod/cif/4/51/78/4517846.cif $
#------------------------------------------------------------------------------
#
# This file is available in the Crystallography Open Database (COD),
# http://www.crystallography.net/
#
# All data on this site have been placed in the public domain by the
# contributors.
#
data_4517846
loop_
_publ_author_name
'Pisarek, Joanna'
'Malinska, Maura'
_publ_section_title
;
 Structure and Morphology of Indole Analogue Crystals.
;
_journal_issue                   28
_journal_name_full               'ACS omega'
_journal_page_first              17141
_journal_page_last               17151
_journal_paper_doi               10.1021/acsomega.0c01020
_journal_volume                  5
_journal_year                    2020
_chemical_absolute_configuration unk
_chemical_formula_moiety         'C8 H8 N2'
_chemical_formula_sum            'C8 H8 N2'
_chemical_formula_weight         132.16
_chemical_name_systematic        5-aminoindole
_space_group_crystal_system      orthorhombic
_space_group_IT_number           33
_space_group_name_Hall           'P 2c -2n'
_space_group_name_H-M_alt        'P n a 21'
_atom_sites_solution_hydrogens   mixed
_atom_sites_solution_primary     direct
_audit_creation_date             2018-11-20
_audit_creation_method
;
Olex2 1.2
(compiled May 29 2018 13:30:08 for OlexSys, GUI svn.r5506)
;
_cell_angle_alpha                90
_cell_angle_beta                 90
_cell_angle_gamma                90
_cell_formula_units_Z            4
_cell_length_a                   8.4520(3)
_cell_length_b                   10.5415(4)
_cell_length_c                   7.3742(3)
_cell_measurement_reflns_used    5253
_cell_measurement_temperature    100(2)
_cell_measurement_theta_max      31.8660
_cell_measurement_theta_min      3.0740
_cell_volume                     657.02(4)
_computing_cell_refinement       'CrysAlisPro 1.171.38.46 (Rigaku OD, 2015)'
_computing_data_collection       'CrysAlisPro 1.171.38.46 (Rigaku OD, 2015)'
_computing_data_reduction        'CrysAlisPro 1.171.38.46 (Rigaku OD, 2015)'
_computing_molecular_graphics    'Olex2 (Dolomanov et al., 2009)'
_computing_publication_material  'Olex2 (Dolomanov et al., 2009)'
_computing_structure_refinement  'ShelXL (Sheldrick, 2015)'
_computing_structure_solution    'XS (Sheldrick, 2008)'
_diffrn_ambient_environment      N~2~
_diffrn_ambient_temperature      100.00(1)
_diffrn_detector                 'CCD plate'
_diffrn_detector_area_resol_mean 16.0026
_diffrn_detector_type            Eos
_diffrn_measured_fraction_theta_full 1.000
_diffrn_measured_fraction_theta_max 1.000
_diffrn_measurement_details
;
List of Runs (angles in degrees, time in seconds):

  # Type    Start    End  Width  t~exp~   \w     \q     \k     \f   Frames
--------------------------------------------------------------------------
  1  \w     49.00 103.00   1.00   45.00    --   29.20 160.00-150.00   54
  2  \w     -4.00 102.00   1.00   45.00    --   29.20  77.00 -90.00  106
  3  \w   -104.00  46.00   1.00   45.00    --  -29.36   0.00   0.00  150
  4  \w     -6.00  44.00   1.00   45.00    --   29.20  82.00-152.00   50
  5  \w   -109.00 -21.00   1.00   45.00    --  -29.36 160.00  90.00   88
  6  \w   -102.00   4.00   1.00   45.00    --  -29.36 -77.00   0.00  106
  7  \w    -44.00 -19.00   1.00   45.00    --  -29.36 -82.00  86.00   25
  8  \w    -53.00  17.00   1.00   45.00    --  -29.36  57.00  30.00   70
;
_diffrn_measurement_device       'four-circle diffractometer'
_diffrn_measurement_device_type  'SuperNova, Single source at offset, Eos'
_diffrn_measurement_method       '\w scans'
_diffrn_orient_matrix_type
'CrysAlisPro convention (1999,Acta A55,543-557)'
_diffrn_orient_matrix_UB_11      -0.0613543000
_diffrn_orient_matrix_UB_12      0.0455406000
_diffrn_orient_matrix_UB_13      0.0076233000
_diffrn_orient_matrix_UB_21      0.0398351000
_diffrn_orient_matrix_UB_22      0.0395757000
_diffrn_orient_matrix_UB_23      -0.0630004000
_diffrn_orient_matrix_UB_31      -0.0411899000
_diffrn_orient_matrix_UB_32      -0.0297227000
_diffrn_orient_matrix_UB_33      -0.0722904000
_diffrn_radiation_monochromator  mirror
_diffrn_radiation_probe          x-ray
_diffrn_radiation_type           MoK\a
_diffrn_radiation_wavelength     0.71073
_diffrn_reflns_av_R_equivalents  0.0272
_diffrn_reflns_av_unetI/netI     0.0230
_diffrn_reflns_Laue_measured_fraction_full 1.000
_diffrn_reflns_Laue_measured_fraction_max 1.000
_diffrn_reflns_limit_h_max       12
_diffrn_reflns_limit_h_min       -12
_diffrn_reflns_limit_k_max       15
_diffrn_reflns_limit_k_min       -15
_diffrn_reflns_limit_l_max       10
_diffrn_reflns_limit_l_min       -10
_diffrn_reflns_number            9489
_diffrn_reflns_point_group_measured_fraction_full 1.000
_diffrn_reflns_point_group_measured_fraction_max 0.997
_diffrn_reflns_theta_full        25.242
_diffrn_reflns_theta_max         30.989
_diffrn_reflns_theta_min         3.089
_diffrn_source                   'micro-focus sealed X-ray tube'
_diffrn_source_type              'SuperNova (Mo) X-ray Source'
_exptl_absorpt_coefficient_mu    0.083
_exptl_absorpt_correction_T_max  1.00000
_exptl_absorpt_correction_T_min  0.92521
_exptl_absorpt_correction_type   multi-scan
_exptl_absorpt_process_details
;
CrysAlisPro 1.171.38.46 (Rigaku Oxford Diffraction, 2015)
Empirical absorption correction using spherical harmonics,
 implemented in SCALE3 ABSPACK scaling algorithm.
;
_exptl_crystal_colour            'clear light brown'
_exptl_crystal_colour_lustre     clear
_exptl_crystal_colour_modifier   light
_exptl_crystal_colour_primary    brown
_exptl_crystal_density_diffrn    1.336
_exptl_crystal_description       block
_exptl_crystal_F_000             280
_exptl_crystal_size_max          0.12
_exptl_crystal_size_mid          0.1
_exptl_crystal_size_min          0.08
_refine_diff_density_max         0.265
_refine_diff_density_min         -0.202
_refine_diff_density_rms         0.040
_refine_ls_abs_structure_details
;
 Flack x determined using 884 quotients [(I+)-(I-)]/[(I+)+(I-)]
 (Parsons, Flack and Wagner, Acta Cryst. B69 (2013) 249-259).
;
_refine_ls_abs_structure_Flack   0.4(8)
_refine_ls_extinction_method     none
_refine_ls_goodness_of_fit_ref   1.043
_refine_ls_hydrogen_treatment    mixed
_refine_ls_matrix_type           full
_refine_ls_number_parameters     103
_refine_ls_number_reflns         2098
_refine_ls_number_restraints     1
_refine_ls_restrained_S_all      1.043
_refine_ls_R_factor_all          0.0360
_refine_ls_R_factor_gt           0.0340
_refine_ls_shift/su_max          0.000
_refine_ls_shift/su_mean         0.000
_refine_ls_structure_factor_coef Fsqd
_refine_ls_weighting_details
'w=1/[\s^2^(Fo^2^)+(0.0523P)^2^+0.0989P] where P=(Fo^2^+2Fc^2^)/3'
_refine_ls_weighting_scheme      calc
_refine_ls_wR_factor_gt          0.0890
_refine_ls_wR_factor_ref         0.0911
_reflns_Friedel_coverage         0.863
_reflns_Friedel_fraction_full    1.000
_reflns_Friedel_fraction_max     0.993
_reflns_number_gt                2003
_reflns_number_total             2098
_reflns_threshold_expression     'I > 2\s(I)'
_cod_data_source_file            ao0c01020_si_001.cif
_cod_data_source_block           5aI
_cod_depositor_comments
'Adding full bibliography for 4517840--4517846.cif.'
_cod_database_code               4517846
_shelx_shelxl_version_number     2018/3
_chemical_oxdiff_formula         C8H8N2
_chemical_oxdiff_usercomment     100K
_shelx_space_group_comment
;
The symmetry employed for this shelxl refinement is uniquely defined
by the following loop, which should always be used as a source of
symmetry information in preference to the above space-group names.
They are only intended as comments.
;
_shelx_estimated_absorpt_t_max   0.993
_shelx_estimated_absorpt_t_min   0.990
_reflns_odcompleteness_completeness 100.00
_reflns_odcompleteness_iscentric 1
_reflns_odcompleteness_theta     30.44
_olex2_refinement_description
;
1. Fixed Uiso
 At 1.2 times of:
  All C(H) groups
2.a Aromatic/amide H refined with riding coordinates:
 C6(H6), C4(H4), C7(H7), C2(H2), C3(H3)
;
_shelx_res_file
;
TITL 2017_10_23_MM_AI_amber in Pna21 #33
    2017_10_23_mm_ai_amber.res
    created by SHELXL-2018/3 at 11:44:13 on 20-Nov-2018
REM reset to Pna21 #33
CELL 0.71073 8.452038 10.541527 7.37416 90 90 90
ZERR 4 0.000286 0.000356 0.000266 0 0 0
LATT -1
SYMM -X,-Y,0.5+Z
SYMM 0.5-X,0.5+Y,0.5+Z
SYMM 0.5+X,0.5-Y,+Z
SFAC C H N
UNIT 32 32 8

L.S. 21
PLAN  8
SIZE 0.08 0.1 0.12
TEMP -173.15(10)
BOND
fmap 2
acta
SHEL 100 0.69
REM <olex2.extras>
REM <HklSrc "%./2017_10_23_MM_AI_amber.hkl">
REM </olex2.extras>

WGHT    0.052300    0.098900
FVAR       8.48953
N2    3   -0.050105   -0.239558   -0.339308    11.00000    0.01707    0.02007 =
         0.02324   -0.00109   -0.00447   -0.00130
H2A   2   -0.130532   -0.272163   -0.278086    11.00000    0.02988
C6    1    0.126993   -0.059138   -0.297781    11.00000    0.01812    0.01595 =
         0.01806    0.00046    0.00064    0.00286
AFIX  43
H6    2    0.106095   -0.035043   -0.419586    11.00000   -1.20000
AFIX   0
C9    1    0.181011   -0.131329    0.061069    11.00000    0.01562    0.01440 =
         0.01854   -0.00170    0.00200    0.00179
C4    1    0.074971   -0.202185   -0.045513    11.00000    0.01676    0.01373 =
         0.02059   -0.00049    0.00258   -0.00031
AFIX  43
H4    2    0.022141   -0.273823    0.003912    11.00000   -1.20000
AFIX   0
N1    3    0.355810    0.026935    0.116431    11.00000    0.01851    0.01778 =
         0.02307   -0.00359   -0.00008   -0.00205
H1    2    0.412949    0.094238    0.101901    11.00000    0.02913
C5    1    0.048667   -0.165961   -0.223752    11.00000    0.01342    0.01435 =
         0.02081   -0.00319    0.00068    0.00228
C7    1    0.233734    0.011076   -0.195842    11.00000    0.01839    0.01397 =
         0.02174    0.00024    0.00321   -0.00044
AFIX  43
H7    2    0.286955    0.082141   -0.246393    11.00000   -1.20000
AFIX   0
C8    1    0.260427   -0.026038   -0.016629    11.00000    0.01528    0.01451 =
         0.01964   -0.00264    0.00177    0.00028
C2    1    0.334861   -0.040210    0.274253    11.00000    0.02246    0.02306 =
         0.01887   -0.00374   -0.00212    0.00222
AFIX  43
H2    2    0.385404   -0.021553    0.386188    11.00000   -1.20000
AFIX   0
C3    1    0.230734   -0.137855    0.247171    11.00000    0.02463    0.01879 =
         0.01899   -0.00027    0.00054    0.00161
AFIX  43
H3    2    0.197649   -0.198401    0.334736    11.00000   -1.20000
AFIX   0
H2B   2   -0.091518   -0.193259   -0.431792    11.00000    0.04691
HKLF 4




REM  2017_10_23_MM_AI_amber in Pna21 #33
REM wR2 = 0.0911, GooF = S = 1.043, Restrained GooF = 1.043 for all data
REM R1 = 0.0340 for 2003 Fo > 4sig(Fo) and 0.0360 for all 2098 data
REM 103 parameters refined using 1 restraints

END

WGHT      0.0522      0.0993

REM Highest difference peak  0.265,  deepest hole -0.202,  1-sigma level  0.040
Q1    1   0.1272 -0.1661  0.0001  11.00000  0.05    0.27
Q2    1   0.1616 -0.0216 -0.2199  11.00000  0.05    0.26
Q3    1   0.0983 -0.1153 -0.2594  11.00000  0.05    0.26
Q4    1   0.2245 -0.0006 -0.0972  11.00000  0.05    0.25
Q5    1   0.2168 -0.0814  0.0221  11.00000  0.05    0.25
Q6    1   0.2087 -0.1379  0.1566  11.00000  0.05    0.24
Q7    1   0.3437  0.0005  0.2025  11.00000  0.05    0.24
Q8    1   0.0649 -0.1838 -0.1304  11.00000  0.05    0.23
;
_shelx_res_checksum              73334
_shelx_hkl_file
;
   0   0 -10 5823.87 454.627   1
   0   0  -9-65.9924 53.5575   1
   0   0  -8 367.284 106.492   1
   0   0  -7-56.3527 54.7979   5
   0   0  -7 33.2368 51.3055   1
   0   0  -6 29010.1 670.921   5
   0   0  -6 29196.7 461.526   8
   0   0  -6 28529.0 711.072   1
   0   0  -5 50.7844 32.7844   5
   0   0  -5 41.0916 42.4857   1
   0   0  -4 50178.1 700.816   5
   0   0  -4 50407.4 747.028   1
   0   0  -3 1.19886 22.7010   5
   0   0  -3-11.6255 20.8713   1
   0   0  -2 199156. 964.490   5
   0   0  -2 192431. 1029.92   1
   0   0  -1 1.09957 12.6211   1
   0   0  -1 5.04546 8.57035   5
   0   0   1 200.621 22.1138   3
   0   0   2 194654. 946.477   3
   0   0   3 42.4843 24.8786   3
   0   0   4 50799.7 697.366   3
   0   0   5 53.7879 27.1045   3
   0   0   6 28199.6 647.502   3
   0   0   7-1.18692 34.3794   3
   0   0   7 70.2040 74.4742   7
   0   0   8 425.211 119.226   7
   0   0   9 67.4733 82.8301   7
   0   0  10 5080.56 474.223   7
   0  -1 -10 7.68979 66.7815   1
   0   1 -10 76.2785 79.5060   1
   0   1  -9 65.0587 58.9247   1
   0  -1  -9 9.61636 63.6674   1
   0  -1  -8 20.5481 54.4867   1
   0  -1  -8 144.053 99.0172   5
   0   1  -8 17.1181 54.6596   1
   0   1  -7 11331.3 434.441   5
   0   1  -7 10768.2 483.551   1
   0  -1  -7 10287.0 464.610   5
   0  -1  -7 10969.1 487.381   1
   0  -1  -6-75.9477 47.3748   5
   0   1  -6-34.5793 34.7845   1
   0   1  -6-12.3199 27.2150   5
   0  -1  -6-2.66034 37.2904   1
   0   1  -5 4927.15 268.701   1
   0  -1  -5 4385.09 250.741   5
   0  -1  -5 5041.13 149.253   8
   0  -1  -5 4346.57 252.280   1
   0   1  -5 4462.40 220.848   5
   0  -1  -4 22.4604 24.5006   1
   0  -1  -4-9.00297 29.8564   5
   0   1  -4 11.3617 34.0977   1
   0  -1  -4-5.13226 9.93908   8
   0   1  -4 18.3240 22.1921   5
   0  -1  -3 105313. 959.396   5
   0  -1  -3 108103. 510.959   8
   0   1  -3 109699. 783.387   5
   0   1  -3 106537. 942.989   1
   0   1  -3 105166. 796.123   2
   0  -1  -3 104516. 928.906   1
   0   1  -2-6.35216 15.7298   2
   0   1  -2 8.69972 12.1167   5
   0   1  -2-29.4054 25.8986   1
   0  -1  -2 12.2456 19.0726   1
   0  -1  -2-7.17554 19.0732   5
   0  -1  -1 75111.2 455.011   1
   0   1  -1 77492.2 400.702   2
   0  -1  -1 75392.6 534.758   5
   0   1   0 2.98165 7.18447   4
   0  -1   0-3.38623 6.27250   3
   0  -1   1 75462.6 549.853   7
   0  -1   1 76711.3 558.878   3
   0  -1   2 32.8942 36.0379   7
   0   1   2 14.2435 15.0271   3
   0  -1   2 26.3206 21.3332   3
   0  -1   3 104414. 957.008   3
   0  -1   3 103958. 1031.46   7
   0   1   3 106854. 785.475   3
   0  -1   4-18.3621 35.0079   3
   0  -1   4 16.9982 38.1646   7
   0   1   4 3.09644 24.0244   3
   0  -1   5 4869.72 261.854   3
   0   1   5 4780.50 228.215   3
   0  -1   5 4556.58 286.439   7
   0  -1   6-5.12689 53.3321   7
   0   1   6 16.8178 25.3584   3
   0  -1   6 36.6052 43.3046   3
   0  -1   7 10134.0 447.088   3
   0  -1   7 10267.8 524.389   7
   0  -1   8-3.75211 52.6838   7
   0  -1   9 5.71663 80.3825   7
   0   1   9-57.7420 90.0186   7
   0  -1  10 97.9421 73.4614   7
   0   1  10-94.8610 96.4460   7
   0  -2 -10 12792.3 677.316   1
   0   2 -10 11189.5 630.710   1
   0   2  -9 52.7781 75.1390   1
   0  -2  -9 39.3273 62.1805   1
   0  -2  -8 2910.95 281.718   5
   0  -2  -8 2457.18 257.368   1
   0   2  -8 2938.97 276.600   1
   0  -2  -7 28.9228 52.3289   1
   0  -2  -7 24.8682 53.8018   5
   0   2  -7 131.977 77.2315   1
   0  -2  -6 2905.82 237.079   5
   0  -2  -6 2886.96 229.084   1
   0   2  -6 2856.24 183.214   5
   0   2  -6 2783.56 224.716   1
   0  -2  -5 11.8863 31.4764   1
   0  -2  -5-19.6580 29.7526   5
   0   2  -5-12.9181 46.3091   1
   0   2  -5 0.75933 18.4657   5
   0  -2  -5 3.15831 6.98660   8
   0  -2  -4 26231.7 542.450   1
   0   2  -4 27547.2 564.564   1
   0   2  -4 26379.6 454.734   2
   0   2  -4 26986.9 420.408   5
   0  -2  -4 26312.1 588.423   5
   0   2  -3 8.02691 22.2950   1
   0   2  -3 29.1414 21.8193   2
   0  -2  -3 23.8723 29.0577   5
   0  -2  -3 14.0393 20.5157   1
   0   2  -3 7.13832 22.9987   5
   0   2  -2 10779.9 253.615   1
   0  -2  -2 10740.7 288.769   5
   0   2  -2 10782.1 212.571   2
   0  -2  -2 10429.5 244.385   1
   0   2  -1 12.7251 15.5561   2
   0  -2  -1 3.56076 19.7340   5
   0  -2  -1 65.1019 18.9735   3
   0  -2   0 99418.3 553.340   5
   0   2   0 97728.0 623.661   4
   0  -2   0 99798.5 666.806   3
   0   2   1 20.6957 23.3804   4
   0  -2   1 11.6481 20.6113   3
   0  -2   2 10455.0 295.272   3
   0  -2   3-19.3700 30.4310   3
   0  -2   3 56.3300 47.9652   7
   0   2   3 9.36807 14.4718   3
   0  -2   4 26893.3 597.194   3
   0  -2   4 26632.5 624.432   7
   0   2   4 26368.2 439.564   3
   0   2   5 43.4811 38.1151   3
   0  -2   5-95.5736 47.6751   3
   0  -2   5-40.0967 47.9752   7
   0   2   6 2844.80 185.895   3
   0  -2   6 2778.05 230.897   3
   0  -2   6 2634.88 248.853   7
   0  -2   7-14.5833 61.5421   3
   0  -2   7 21.3011 80.6269   7
   0  -2   8 2490.36 253.532   3
   0  -2   8 3079.07 322.696   7
   0  -2   9 41.3473 81.8273   7
   0  -2  10 11792.7 731.091   7
   0   2  10 11647.1 724.847   7
   0   3 -10 11.0401 67.9847   1
   0  -3 -10 49.2574 81.3902   1
   0   3  -9 5586.38 416.915   1
   0  -3  -9 5621.18 420.356   1
   0  -3  -9 5495.07 435.131   5
   0   3  -8 30.1266 62.5825   1
   0  -3  -8-9.20891 58.0037   1
   0  -3  -8 25.0039 54.6914   5
   0   3  -7 7650.02 410.059   1
   0  -3  -7 7822.96 420.098   1
   0  -3  -7 7433.44 437.471   5
   0   3  -6 12.9801 54.7201   1
   0  -3  -6-46.5716 60.8646   5
   0  -3  -6-5.29990 48.0079   1
   0   3  -5 5160.96 278.221   1
   0   3  -5 5377.27 230.336   2
   0  -3  -5 4801.99 267.414   1
   0  -3  -5 4870.10 299.792   5
   0  -3  -4-0.76553 25.6625   1
   0   3  -4-18.6720 27.4622   1
   0   3  -4-8.39810 20.8705   2
   0  -3  -4-3.34112 34.8416   5
   0   3  -3 3558.12 178.997   1
   0  -3  -3 3409.97 204.297   5
   0  -3  -3 3519.78 174.827   1
   0   3  -3 3807.21 155.172   2
   0   3  -2 21.6634 18.8931   2
   0  -3  -2 24.2967 30.3332   5
   0  -3  -1 53024.8 544.340   3
   0  -3  -1 51478.0 599.447   5
   0   3  -1 51796.3 498.895   2
   0  -3   0-15.7241 23.4394   3
   0  -3   0 14.1055 17.7867   5
   0  -3   0 17.1351 10.7391   6
   0   3   0 74.6756 34.0611   4
   0  -3   1 53516.0 410.855   6
   0  -3   1 52407.2 662.698   3
   0  -3   1 52948.7 376.272   5
   0   3   1 53131.1 610.519   4
   0  -3   2 24.4054 30.0116   3
   0  -3   3 3516.20 214.034   3
   0   3   3 3943.49 150.179   3
   0   3   4 6.49195 21.3754   3
   0  -3   4 7.27724 29.9941   3
   0  -3   4 71.6731 56.2708   7
   0  -3   5 4928.33 298.683   3
   0  -3   5 5050.10 318.667   7
   0   3   5 4957.67 211.601   3
   0  -3   6 22.4632 38.3297   3
   0  -3   6-39.1910 54.3770   7
   0  -3   7 7756.93 433.115   3
   0  -3   7 7257.65 458.290   7
   0  -3   8 10.1088 71.8222   3
   0  -3   8 157.780 91.1495   7
   0  -3   9 5232.48 459.465   7
   0  -3  10-97.8037 122.044   7
   0   4 -10 3318.30 352.801   1
   0   4  -9 10.6861 58.1142   1
   0  -4  -9-3.40026 54.6759   1
   0  -4  -9-78.7178 72.5434   5
   0   4  -8 32.4221 66.4188   1
   0  -4  -8 71.5627 67.0115   5
   0  -4  -8 41.1455 70.8624   1
   0  -4  -7-17.9428 41.4164   1
   0  -4  -7-16.2405 66.7856   5
   0   4  -7 39.5678 42.6943   1
   0  -4  -6 44653.9 1027.23   5
   0   4  -6 43792.1 908.741   1
   0   4  -6 45994.5 744.939   2
   0  -4  -6 46643.7 930.784   1
   0   4  -5 62.1967 39.8530   1
   0   4  -5-4.75607 21.0809   2
   0  -4  -5-12.8771 39.3274   1
   0  -4  -5 3.83100 39.5581   5
   0  -4  -4 21590.2 505.891   1
   0   4  -4 20905.3 418.697   2
   0  -4  -4 20766.7 589.720   5
   0   4  -4 20929.0 504.207   1
   0   4  -3 71.0546 34.1959   1
   0  -4  -3-37.8527 37.8778   5
   0   4  -3-0.11925 24.1456   2
   0  -4  -2 1413.80 101.803   3
   0  -4  -2 1003.47 109.150   5
   0   4  -2 1281.47 92.1292   2
   0  -4  -1 33.6615 26.0934   3
   0   4  -1 97.7794 33.3016   2
   0  -4  -1 7.33421 25.1150   5
   0   4   0 116696. 984.490   4
   0  -4   0 117891. 573.293   6
   0  -4   0 117286. 875.102   5
   0  -4   0 116386. 1035.90   3
   0  -4   1-26.8273 28.2964   3
   0   4   1-25.1061 29.2810   4
   0  -4   1 7.68176 15.7239   5
   0  -4   1 5.69559 11.1129   6
   0   4   2 1617.30 134.156   4
   0  -4   2 1135.27 122.319   3
   0  -4   2 1299.00 54.7701   5
   0  -4   3 26.0257 45.6299   3
   0   4   4 21073.5 399.320   3
   0  -4   4 21570.7 615.940   3
   0   4   5 34.8214 33.4169   3
   0  -4   5-35.6120 48.5559   3
   0  -4   6 44388.4 1023.18   3
   0  -4   7 46.4840 56.5124   3
   0  -4   8-44.2229 56.8970   3
   0   5 -10 168.440 80.6126   1
   0  -5 -10 62.8411 104.429   5
   0   5  -9 1106.31 197.599   1
   0  -5  -9 970.923 199.632   5
   0  -5  -8-34.5309 73.8393   5
   0   5  -8 34.8925 57.3966   1
   0   5  -7 15595.8 602.406   1
   0  -5  -7 15432.2 677.688   5
   0   5  -6 14.5237 36.6101   1
   0   5  -6 6.18117 31.4758   2
   0  -5  -6-13.9055 46.5393   5
   0   5  -5 3762.56 200.194   2
   0   5  -5 3734.20 244.714   1
   0  -5  -5 3573.45 283.433   5
   0   5  -4-8.77698 22.7594   2
   0   5  -4 41.6605 31.5118   1
   0  -5  -4 28.6981 49.7505   5
   0   5  -3 117459. 1098.36   1
   0  -5  -3 118766. 1364.40   5
   0   5  -3 118831. 991.675   2
   0   5  -2 12.2863 20.9539   2
   0  -5  -2 41.6498 36.8391   5
   0  -5  -2-3.78302 24.5680   3
   0  -5  -1 70251.9 864.394   5
   0   5  -1 72190.8 775.962   2
   0  -5  -1 70635.2 847.949   3
   0   5   0 29.7554 33.3798   4
   0  -5   0 32.5201 35.0849   3
   0  -5   0 9.03892 27.3817   5
   0  -5   0 26.4798 13.3330   6
   0   5   0 49.1977 33.5754   2
   0   5   1 70293.9 883.009   4
   0  -5   1 70500.5 963.365   3
   0  -5   1 70673.4 652.171   5
   0  -5   1 69370.7 536.994   6
   0  -5   2 5.69399 16.8308   6
   0   5   2-8.09999 26.6819   4
   0  -5   2 58.0179 57.0053   3
   0  -5   2-13.9012 12.1982   5
   0  -5   3 118226. 1439.78   3
   0   5   3 119030. 1342.17   4
   0   5   4 106.772 65.7106   4
   0  -5   4 18.4999 38.3089   3
   0   5   5 4239.63 197.919   3
   0  -5   5 3945.43 305.267   3
   0  -5   6 27.5266 57.1679   3
   0  -5   7 14943.2 667.938   3
   0  -5   8-51.4816 69.0359   3
   0  -5   9 1250.94 217.278   3
   0  -6 -10 181.850 108.658   5
   0   6  -9 47.8400 48.3874   1
   0  -6  -9 16.4749 132.430   5
   0  -6  -8 1092.88 207.875   5
   0   6  -8 953.150 168.211   1
   0   6  -7 57.6325 68.5354   1
   0  -6  -7-1.61206 64.5923   5
   0  -6  -6 16244.7 674.729   5
   0   6  -6 17188.2 586.240   1
   0   6  -5-11.7825 41.3437   1
   0  -6  -5 118.613 77.4536   5
   0   6  -5 70.2493 45.8273   2
   0   6  -4 29497.1 553.266   2
   0   6  -4 29784.6 637.414   1
   0  -6  -4 29140.8 776.730   5
   0  -6  -3 17.2789 49.9887   5
   0   6  -3-3.24311 25.7422   2
   0   6  -2 18320.1 420.667   2
   0  -6  -2 17971.3 450.433   3
   0  -6  -2 18569.8 529.221   5
   0  -6  -1-13.0072 37.0548   3
   0  -6  -1 37.4659 32.1968   5
   0   6  -1-9.43341 24.4937   2
   0   6   0 35755.0 642.596   2
   0  -6   0 34850.5 702.388   3
   0   6   0 36227.7 683.092   4
   0  -6   0 36209.1 377.045   6
   0  -6   0 36525.5 607.063   5
   0  -6   1 33.7846 26.7015   5
   0   6   1 14.8165 31.1581   4
   0  -6   1-9.70481 32.1479   3
   0  -6   1-9.66748 14.9896   6
   0   6   2 18294.7 522.651   4
   0  -6   2 18387.7 572.807   3
   0  -6   2 18881.5 318.012   5
   0  -6   2 18868.3 350.640   6
   0   6   3-19.3420 43.4625   4
   0  -6   3-16.3242 46.6803   3
   0  -6   3 8.70466 5.83881   5
   0  -6   3-22.3084 16.9275   6
   0   6   4 29441.2 769.572   4
   0  -6   4 29491.1 822.594   3
   0  -6   5 82.6473 61.5115   3
   0   6   5-57.3794 68.8052   4
   0  -6   6 16878.3 701.068   3
   0   6   6 16518.0 670.769   4
   0  -6   7-26.3554 64.8717   3
   0  -6   8 854.089 176.444   3
   0  -6   9-71.1319 106.420   3
   0   7  -9 1616.86 235.634   1
   0  -7  -9 1760.70 279.074   5
   0   7  -8 92.1689 82.4214   1
   0  -7  -8-27.2030 73.7642   5
   0  -7  -7 4744.37 411.788   5
   0   7  -7 4863.47 346.647   1
   0   7  -6-28.7957 34.5137   1
   0  -7  -6-13.4865 57.0011   5
   0   7  -5 12456.6 465.924   1
   0   7  -5 11638.8 379.536   2
   0  -7  -5 11501.0 553.132   5
   0   7  -4 81.1365 46.7798   1
   0  -7  -4 76.7218 72.5949   5
   0   7  -4 14.6724 27.2514   2
   0  -7  -3 15629.0 445.169   3
   0   7  -3 14589.5 405.225   2
   0  -7  -3 14545.7 540.539   5
   0   7  -2 38.6918 35.1440   2
   0  -7  -2-22.0478 43.0890   5
   0  -7  -2 43.4826 40.7673   3
   0  -7  -1 1146.01 134.484   5
   0  -7  -1 947.701 120.587   3
   0   7  -1 1026.08 114.699   2
   0  -7   0 152.211 72.2219   3
   0   7   0 0.79772 28.7326   2
   0  -7   0 44.9779 32.7138   5
   0  -7   0 11.6830 14.5433   6
   0  -7   1 906.342 93.0034   5
   0  -7   1 1016.83 70.2682   6
   0  -7   1 1239.59 157.107   3
   0   7   1 1037.67 133.294   4
   0  -7   2-2.72931 18.9181   5
   0  -7   2 24.8895 21.7901   6
   0   7   2 27.6570 42.5932   4
   0  -7   2 38.6365 39.4735   3
   0   7   3 14181.0 523.249   4
   0  -7   3 14143.5 570.451   3
   0  -7   3 15546.3 379.261   6
   0   7   4 96.5210 54.0807   4
   0  -7   4 105.244 81.5284   3
   0  -7   4-5.31856 30.0508   6
   0  -7   5 10972.0 565.155   3
   0  -7   5 12180.7 438.522   6
   0   7   5 12252.5 554.094   4
   0   7   6-56.6557 75.5786   4
   0  -7   6-28.7404 45.6103   6
   0  -7   6-107.983 70.5546   3
   0   7   7 5111.44 415.929   4
   0  -7   7 4942.47 424.184   3
   0   7   8-14.2010 87.4267   4
   0  -7   8-273.435 115.098   3
   0   7   9 1715.49 281.240   4
   0  -7   9 1646.17 232.645   6
   0  -7   9 1575.68 263.623   3
   0  -8  -9 40.5987 78.9571   5
   0   8  -9 80.3038 87.8953   1
   0   8  -8 914.438 165.026   1
   0  -8  -8 1189.12 236.645   5
   0  -8  -7 102.836 70.4847   5
   0   8  -7-75.2615 69.5743   1
   0  -8  -6 304.787 127.180   5
   0   8  -6 18.4073 42.5750   1
   0  -8  -5-53.6191 73.3768   5
   0   8  -5-15.9816 43.0976   1
   0   8  -4 6846.97 300.382   2
   0  -8  -4 6380.18 403.579   5
   0   8  -4 6775.08 318.702   1
   0   8  -3 18.9447 34.6130   2
   0  -8  -3-18.9735 34.1405   3
   0  -8  -3 83.0194 68.3630   5
   0  -8  -2 5785.93 335.631   5
   0  -8  -2 5872.08 310.916   3
   0   8  -2 5729.75 278.567   2
   0  -8  -1-47.2411 59.7641   3
   0   8  -1 22.1458 39.7150   2
   0  -8  -1 1.24939 32.1955   5
   0  -8   0 7507.33 382.933   3
   0  -8   0 7363.78 325.057   5
   0   8   0 7441.48 343.392   2
   0  -8   1-9.89202 12.8716   6
   0   8   1 35.3599 49.0031   4
   0  -8   1 56.4378 28.4399   5
   0  -8   1 13.1398 73.3164   3
   0  -8   2 5904.44 376.399   3
   0  -8   2 5975.52 228.439   5
   0  -8   2 5642.27 194.854   6
   0   8   2 6276.29 349.621   4
   0   8   3-62.6648 56.5249   4
   0  -8   3 2.37763 73.7931   3
   0  -8   3 1.83032 26.8125   6
   0   8   4 6540.06 397.376   4
   0  -8   4 7060.42 297.139   6
   0  -8   4 7327.01 458.466   3
   0  -8   5 166.638 91.7553   3
   0   8   5 2.45366 69.5152   4
   0  -8   5 33.2514 30.2736   6
   0   8   6 46.9237 68.8258   4
   0  -8   6 21.2380 65.5859   3
   0   8   7 51.4392 84.2165   4
   0  -8   7 24.7923 68.0177   3
   0  -8   8 1118.00 235.622   3
   0   8   8 1090.96 211.808   4
   0  -8   9-330.132 138.046   3
   0  -9  -8-45.5581 78.3723   5
   0   9  -7 116.027 78.4334   1
   0  -9  -7 24.1095 79.9539   5
   0  -9  -6 147.716 127.435   5
   0   9  -6 117.524 69.1742   1
   0  -9  -5 19290.7 787.635   5
   0   9  -5 19918.6 613.161   1
   0   9  -4 85.1658 47.7465   1
   0  -9  -4 12.4796 57.2520   5
   0   9  -4-15.0097 30.9862   2
   0  -9  -3 20145.5 709.661   5
   0  -9  -3 20556.4 596.709   3
   0   9  -3 19232.6 533.627   2
   0  -9  -2 21.2848 45.5371   5
   0   9  -2-1.43147 36.8958   2
   0  -9  -2-58.6377 52.7760   3
   0  -9  -1 4299.30 298.065   3
   0   9  -1 4534.61 276.350   2
   0  -9  -1 4017.69 278.749   5
   0   9   0 11.2799 37.2835   2
   0  -9   0-17.2517 53.8638   3
   0  -9   0-28.2708 46.7834   5
   0  -9   1 4592.39 250.956   5
   0   9   1 4659.85 317.360   4
   0  -9   1 4814.95 345.830   3
   0   9   1 4285.18 292.648   2
   0   9   2 33.2039 61.1993   4
   0  -9   2 40.3338 48.0712   3
   0  -9   3 19930.5 766.248   3
   0   9   3 19682.8 687.342   4
   0   9   4-20.2287 59.5259   4
   0  -9   4-101.651 64.5629   3
   0   9   5 20329.3 770.382   4
   0  -9   5 20313.1 850.204   3
   0  -9   6 35.7185 62.8585   3
   0   9   6 189.768 125.978   4
   0  -9   7-43.4482 60.7325   3
   0   9   7 96.7495 74.2574   4
   0   9   8-35.2514 73.4911   4
   0  -9   8 30.0139 69.5974   3
   0 -10  -7 241.288 112.881   5
   0 -10  -6 2738.54 331.192   5
   0 -10  -5-23.1046 55.3994   5
   0 -10  -4 1548.85 228.844   5
   0 -10  -3-72.2766 77.8276   5
   0  10  -3 29.7016 47.4493   2
   0 -10  -3-46.6168 42.8086   3
   0  10  -2 23468.8 644.858   2
   0 -10  -2 23854.1 764.571   5
   0 -10  -2 25064.0 735.072   3
   0 -10  -1-14.1836 39.6315   5
   0 -10  -1 54.5455 54.9426   3
   0  10  -1 146.917 80.4728   2
   0 -10   0 9576.57 422.114   5
   0 -10   0 9025.78 481.487   3
   0  10   0 9532.14 448.855   2
   0  10   1 11.9337 48.5705   4
   0  10   1-37.2528 53.9354   2
   0 -10   1-18.8328 62.4408   3
   0 -10   1 11.7012 39.1273   5
   0  10   2 25351.1 805.688   4
   0 -10   2 23115.3 834.252   3
   0  10   3-20.5690 52.9395   4
   0 -10   3 37.2705 67.7762   3
   0 -10   4 1139.32 211.659   3
   0  10   4 1047.03 178.611   4
   0 -10   5 46.5460 81.8299   3
   0  10   5 9.50890 66.2804   4
   0 -10   6 3442.70 384.558   3
   0  10   6 3077.97 333.169   4
   0  10   7 56.4306 80.3369   4
   0 -10   7-4.66599 79.9732   3
   0 -10   8 2489.84 354.741   3
   0 -11  -7 311.554 123.792   5
   0 -11  -6-147.135 118.214   5
   0 -11  -5 2294.28 304.706   5
   0 -11  -4 64.8151 74.4958   5
   0 -11  -3 20949.7 800.471   5
   0  11  -2 69.1555 60.3083   2
   0 -11  -2-24.4754 44.1081   3
   0 -11  -2 12.2814 53.3569   5
   0  11  -1 12070.5 512.434   2
   0 -11  -1 11623.6 553.108   3
   0 -11  -1 11911.9 533.741   5
   0 -11   0 75.4496 74.1043   5
   0  11   0-24.8818 62.9788   2
   0 -11   0 83.0176 72.4740   3
   0 -11   1 11869.9 606.552   3
   0  11   1 11771.5 545.685   2
   0  11   2-71.6831 70.7324   2
   0  11   2-39.9232 61.2614   4
   0 -11   2 56.6477 74.0887   3
   0 -11   3 21151.1 882.411   3
   0  11   3 21477.4 804.904   4
   0 -11   4-0.65873 71.7000   3
   0  11   4 25.9524 63.7013   4
   0  11   5 2213.24 284.166   4
   0 -11   5 1984.20 295.398   3
   0  11   6 113.897 97.8110   4
   0 -11   6 214.769 124.995   3
   0 -11   7 515.209 186.274   3
   0  11   7 907.380 199.328   4
   0 -12  -6 2648.20 350.310   5
   0 -12  -5-60.7541 71.7020   5
   0 -12  -4 1460.27 244.640   5
   0 -12  -3-24.5876 55.0522   5
   0  12  -2 6750.53 392.761   2
   0 -12  -2 6169.29 411.396   3
   0 -12  -2 6805.46 455.155   5
   0  12  -1 41.7713 60.6483   2
   0 -12  -1 50.8783 82.3061   3
   0 -12  -1-34.3084 53.2784   5
   0 -12   0 4198.61 365.568   3
   0  12   0 4271.54 334.457   2
   0 -12   1-37.2818 52.3441   3
   0  12   1 113.198 85.0559   2
   0  12   2 6723.75 468.137   4
   0 -12   2 6233.76 483.220   3
   0  12   2 6444.76 441.358   2
   0  12   3-204.399 93.2074   4
   0  12   3 77.2836 57.0803   2
   0 -12   3 80.4911 79.4154   3
   0 -12   4 1445.00 261.394   3
   0  12   4 1231.60 217.553   4
   0  12   5 87.6372 104.648   4
   0 -12   5-22.0257 73.9131   3
   0  12   6 2764.19 342.557   4
   0 -12   6 2687.91 375.916   3
   0 -13  -5 4474.05 458.223   5
   0 -13  -4-56.0382 73.3339   5
   0 -13  -3 816.372 183.020   5
   0 -13  -2 130.314 92.7162   5
   0 -13  -1 3967.03 364.383   3
   0  13  -1 4801.21 362.173   2
   0 -13   0 116.171 87.5266   3
   0  13   0 127.809 80.9542   2
   0 -13   1 4907.05 437.759   3
   0  13   1 4891.27 389.992   2
   0 -13   2-91.9046 94.1602   3
   0  13   2-94.0551 84.4120   2
   0 -13   3 746.556 188.646   3
   0  13   3 459.485 136.181   2
   0  13   3 514.103 135.192   4
   0  13   4 83.8928 96.9337   4
   0 -13   4-87.2391 69.2975   3
   0  13   4 38.1866 98.2408   2
   0 -13   5 5111.54 514.800   3
   0  13   5 4771.68 447.747   4
   0  13   5 4206.36 418.391   2
   0 -14  -4 114.783 84.6268   5
   0 -14  -3-201.808 107.399   5
   0 -14  -2 344.285 110.434   5
   0 -14  -1-53.7113 89.2293   3
   0 -14   0 331.669 122.331   3
   0  14   0 18.5158 45.5947   2
   0  14   1-42.7350 66.5678   2
   0 -14   1-14.6807 81.7937   3
   0 -14   2 673.529 187.467   3
   0  14   2 266.171 98.9179   2
   0  14   3 73.3576 100.469   2
   0 -14   3-102.736 96.7462   3
   0  14   3 76.5395 79.2881   4
   0 -14   4 118.503 100.735   3
   0  14   4 319.746 132.749   2
   0 -15  -3 1611.07 273.847   5
   0 -15   0 91.0013 74.5947   3
   0 -15   1 1510.75 266.543   3
   0  15   1 1088.94 212.304   2
   0 -15   2-196.248 135.844   3
   0  15   2-0.65277 58.7069   2
  -1   0 -10-91.5386 76.1691   1
   1   0 -10-62.1379 79.2934   1
   1   0  -9 22.3218 57.5053   1
  -1   0  -9 18.7953 66.9689   1
  -1   0  -8-43.6608 49.1788   1
   1   0  -8-30.1672 55.2709   1
   1   0  -7-14.0911 54.8577   1
   1   0  -7-26.0982 38.6649   5
  -1   0  -7-15.0489 53.4478   5
  -1   0  -7 18.9018 47.2778   1
  -1   0  -6-15.0486 45.8627   5
  -1   0  -6-19.3632 29.4359   8
   1   0  -6-31.0397 44.7712   5
   1   0  -6-52.4948 49.0119   1
  -1   0  -6 25.7139 43.8232   1
  -1   0  -5 16.1675 36.1851   5
  -1   0  -5 43.1632 41.6081   1
  -1   0  -5-31.4848 20.7760   8
   1   0  -5 4.89142 24.5122   5
   1   0  -5-14.9576 44.3297   1
  -1   0  -4-0.05631 14.6697   8
  -1   0  -4 46.2122 37.1076   1
  -1   0  -4-27.3898 28.6675   5
   1   0  -4-12.2157 24.2682   5
   1   0  -4 8.22536 27.7525   1
   1   0  -3-18.4955 24.1905   5
   1   0  -3-11.0755 30.2471   2
  -1   0  -3 22.2748 25.4405   5
  -1   0  -3 2.00948 17.9977   8
   1   0  -3 14.3002 35.3561   1
  -1   0  -3 30.7191 32.2053   1
   1   0  -2-22.6558 17.5326   5
  -1   0  -2 8.81669 15.4129   8
  -1   0  -2 0.74742 22.0125   5
   1   0  -2 0.87325 19.8843   1
  -1   0  -2 87.8588 26.8576   1
   1   0  -2 34.0627 24.9166   2
   1   0  -1 20.9608 17.3139   2
   1   0  -1 31.8273 20.2167   6
  -1   0  -1 1.11192 17.7042   5
  -1   0  -1 8.73773 13.0239   8
  -1   0   0 11.5269 10.4802   8
   1   0   0 4.42307 7.33752   2
   1   0   0 4.92231 5.58276   6
  -1   0   1 5.72313 14.9633   3
   1   0   1 37.0238 13.7081   3
  -1   0   2 13.3081 19.7282   3
   1   0   2 6.25631 15.3315   3
   1   0   3 26.0923 22.2136   3
  -1   0   3 2.57279 22.9754   3
  -1   0   4 21.4039 30.9898   3
   1   0   4 8.71829 19.8659   3
  -1   0   5-9.91196 28.7067   3
   1   0   5-7.39546 23.6198   3
  -1   0   6-35.9382 49.9237   3
   1   0   6-29.0809 33.1340   3
  -1   0   7 42.9289 38.5400   3
   1   0   7-22.3805 54.7925   7
  -1   0   7 11.2459 79.8718   7
  -1   0   8-0.26503 72.2761   7
   1   0   8-35.4272 65.3307   7
   1   0   9-24.9893 77.7337   7
  -1   0   9-94.4200 87.9813   7
  -1   0  10-211.328 112.758   7
   1   0  10-132.534 119.313   7
   1  -1 -10 258.404 119.002   1
   1   1 -10 271.336 114.011   1
  -1   1 -10 302.448 117.117   1
  -1  -1 -10 255.053 111.624   1
  -1   1  -9 1807.09 243.884   1
   1  -1  -9 1931.03 244.600   1
  -1  -1  -9 2304.44 269.660   1
   1   1  -9 2475.45 278.542   1
   1  -1  -8 3390.34 285.519   5
  -1  -1  -8 2964.80 278.795   5
   1  -1  -8 3787.21 315.763   1
   1   1  -8 3888.13 320.762   1
  -1  -1  -8 2836.44 274.478   1
  -1   1  -8 3498.14 303.152   1
   1   1  -7 18418.0 636.386   1
  -1   1  -7 17380.4 566.583   5
   1  -1  -7 17992.2 600.835   5
  -1   1  -7 18083.7 623.953   1
  -1  -1  -7 16751.9 604.216   1
   1  -1  -7 18012.1 621.671   1
  -1  -1  -7 17141.5 618.229   5
   1   1  -6 3450.23 254.304   1
   1  -1  -6 3242.73 235.778   5
  -1  -1  -6 3339.40 164.747   8
  -1   1  -6 3515.07 252.001   1
   1   1  -6 3491.39 211.506   5
  -1  -1  -6 3691.75 260.656   1
  -1   1  -6 3468.05 232.290   5
   1  -1  -6 3632.79 254.775   1
  -1  -1  -6 3159.81 250.653   5
  -1   1  -5 1003.01 113.065   5
  -1  -1  -5 1033.07 125.702   1
  -1   1  -5 790.842 111.645   1
   1   1  -5 1029.60 128.993   1
   1  -1  -5 1084.55 130.577   1
   1  -1  -5 1103.95 126.091   5
   1  -1  -5 1017.40 51.1964   8
  -1  -1  -5 1060.93 129.033   5
   1   1  -5 1037.02 103.329   5
  -1  -1  -5 1084.64 87.1393   8
  -1  -1  -4 11297.6 257.844   8
   1  -1  -4 11479.9 354.222   5
   1   1  -4 11497.1 368.969   1
   1   1  -4 12008.1 298.695   5
   1   1  -4 11720.2 336.424   2
  -1  -1  -4 11359.3 361.392   1
  -1  -1  -4 11545.7 382.508   5
   1  -1  -4 10843.7 353.078   1
  -1   1  -4 11037.2 330.787   5
  -1   1  -4 11070.2 353.971   1
   1  -1  -3 14127.6 340.185   5
   1   1  -3 14369.9 361.092   1
  -1  -1  -3 14633.9 267.978   8
   1   1  -3 14878.9 335.018   2
  -1   1  -3 14601.4 350.203   1
  -1  -1  -3 14249.6 351.435   1
   1   1  -3 14266.2 268.054   5
   1  -1  -3 14342.5 345.194   1
  -1   1  -3 14420.7 334.678   5
  -1  -1  -3 14089.7 375.681   5
  -1   1  -2 3553.85 141.970   1
   1   1  -2 3419.78 139.803   2
  -1  -1  -2 3432.60 146.862   1
  -1   1  -2 3692.60 144.919   5
  -1  -1  -2 3707.88 127.621   8
  -1  -1  -2 3584.04 165.623   5
   1   1  -2 3494.29 100.951   5
   1  -1  -2 3619.94 146.711   5
   1  -1  -2 3517.74 141.118   1
   1  -1  -1 166536. 875.830   6
  -1  -1  -1 163102. 786.943   8
  -1   1  -1 163508. 686.415   1
  -1  -1  -1 158676. 911.927   5
   1   1  -1 162126. 804.807   2
   1   1   0 9813.08 127.888   6
   1   1   0 10199.7 178.032   2
   1   1   0 9902.96 139.883   4
   1  -1   0 9711.32 189.304   3
  -1  -1   0 9769.19 180.875   5
  -1  -1   0 9704.45 199.056   8
   1  -1   0 10019.2 176.029   6
  -1   1   0 10262.5 142.940   4
  -1  -1   0 9797.39 166.647   3
  -1  -1   1 161696. 801.379   7
  -1   1   1 164928. 539.571   8
   1  -1   1 161084. 803.301   7
   1  -1   1 162791. 812.572   6
   1  -1   1 162659. 845.013   3
  -1  -1   1 163313. 916.843   3
  -1  -1   2 3904.48 165.668   7
  -1   1   2 3437.99 143.980   3
   1  -1   2 3629.16 162.298   7
  -1  -1   2 3238.21 160.484   3
   1  -1   2 3676.93 148.346   3
  -1   1   3 14948.4 346.838   3
  -1  -1   3 14407.0 384.171   7
   1   1   3 14384.5 235.809   3
   1  -1   3 14793.1 341.227   3
  -1  -1   3 14235.6 381.056   3
   1  -1   3 14322.7 383.892   7
  -1  -1   4 11150.8 376.090   3
   1   1   4 10638.3 258.490   3
   1  -1   4 12064.9 349.803   3
  -1   1   4 11045.3 340.206   3
   1  -1   4 10980.5 393.091   7
  -1  -1   4 11910.8 407.641   7
   1   1   5 1021.25 94.5759   3
  -1  -1   5 1328.16 157.932   7
   1  -1   5 1169.64 146.125   7
  -1  -1   5 1118.01 133.317   3
  -1   1   5 1041.83 117.419   3
   1  -1   5 761.026 98.2259   3
  -1  -1   6 3432.36 256.581   3
  -1   1   6 3826.71 245.364   3
   1  -1   6 3166.23 266.601   7
   1  -1   6 3741.97 239.368   3
  -1  -1   6 3502.87 279.315   7
   1   1   6 3393.84 190.036   3
  -1  -1   7 17480.6 687.021   7
  -1   1   7 18264.2 590.105   3
   1  -1   7 18335.8 568.856   3
  -1  -1   7 18110.9 632.881   3
   1  -1   7 17182.4 684.735   7
   1  -1   8 3117.97 320.652   7
   1   1   8 3713.75 347.623   7
  -1  -1   8 3258.72 285.188   3
  -1   1   8 3416.68 333.601   7
  -1  -1   8 3043.06 314.060   7
  -1   1   9 2568.64 318.084   7
   1  -1   9 1869.47 262.869   7
   1   1   9 2270.57 304.962   7
  -1  -1   9 2129.02 287.360   7
  -1  -1  10 371.218 141.536   7
   1  -1  10 107.944 92.0081   7
   1   1  10 143.745 116.568   7
  -1   1  10 347.691 149.727   7
  -1   2 -10 3473.30 354.037   1
  -1  -2 -10 2905.80 328.634   1
   1   2 -10 2619.65 315.315   1
   1  -2 -10 3129.77 332.655   1
  -1   2  -9 156.954 81.5655   1
   1  -2  -9 33.2692 53.4053   1
   1   2  -9 129.883 91.3640   1
  -1  -2  -9 74.6653 94.3393   5
  -1  -2  -9 218.763 98.2809   1
  -1  -2  -8 4.40726 48.7948   1
   1  -2  -8 83.7923 54.5300   5
  -1  -2  -8 133.912 76.4617   5
   1  -2  -8 5.80761 56.2178   1
   1   2  -8 107.946 58.4510   1
  -1   2  -8 52.0306 65.4679   1
   1  -2  -7 2477.79 235.203   1
  -1  -2  -7 2040.60 219.169   1
  -1   2  -7 2264.47 225.310   1
   1  -2  -7 2435.05 236.217   5
   1   2  -7 2638.47 248.241   1
  -1  -2  -7 1872.56 219.018   5
  -1  -2  -6 6821.26 357.418   1
  -1   2  -6 6401.51 338.664   1
   1  -2  -6 6619.98 354.419   5
  -1   2  -6 6593.21 301.053   5
  -1  -2  -6 6365.60 362.648   5
   1   2  -6 6590.33 351.743   1
   1  -2  -6 6692.71 345.995   1
   1   2  -5 2809.25 183.407   2
   1  -2  -5 2583.51 203.458   5
   1  -2  -5 2810.41 202.820   1
   1   2  -5 2643.99 204.683   1
  -1   2  -5 2659.44 199.108   1
  -1  -2  -5 2716.55 133.052   8
  -1   2  -5 2713.39 177.436   5
  -1  -2  -5 3024.62 230.354   5
  -1  -2  -5 2532.84 196.734   1
   1   2  -5 2736.63 151.484   5
   1   2  -4 36539.5 671.141   1
  -1  -2  -4 37057.5 463.800   8
   1   2  -4 37504.9 452.200   5
   1  -2  -4 36424.8 636.509   1
  -1  -2  -4 37431.8 728.701   5
   1  -2  -4 36108.7 679.381   5
   1   2  -4 36973.9 600.628   2
  -1   2  -4 36162.5 636.446   1
  -1  -2  -4 35448.3 655.064   1
   1  -2  -3 19223.6 438.424   5
   1   2  -3 18816.8 380.740   2
   1  -2  -3 18015.1 385.640   1
  -1  -2  -3 18651.4 465.499   5
   1   2  -3 18753.7 245.690   5
  -1   2  -3 19604.1 402.221   1
  -1  -2  -3 18124.1 405.903   1
  -1  -2  -3 19035.6 319.168   8
  -1  -2  -2 8841.70 281.036   5
  -1   2  -2 8756.86 219.714   1
   1   2  -2 8652.03 231.464   2
  -1   2  -2 8683.10 139.832   2
   1  -2  -2 8559.45 216.811   1
  -1  -2  -2 8560.55 211.849   8
   1  -2  -2 9215.80 262.483   5
  -1  -2  -1 61200.2 629.579   5
   1  -2  -1 62222.8 396.470   1
   1  -2  -1 62591.6 575.752   6
  -1   2  -1 61922.8 409.993   1
   1   2  -1 61870.4 558.658   2
  -1   2  -1 63710.2 318.102   2
  -1  -2  -1 62062.2 386.892   3
  -1   2   0 249325. 1001.22   4
   1   2   0 252912. 1097.64   2
  -1  -2   0 252891. 1073.69   3
   1  -2   0 253450. 1199.41   3
  -1  -2   0 251678. 1030.51   5
   1   2   0 255858. 1014.25   4
   1  -2   0 246433. 970.555   6
  -1   2   1 61215.8 576.047   4
  -1  -2   1 62028.0 652.037   3
   1   2   1 61199.1 575.624   4
   1  -2   1 61784.7 532.573   6
   1  -2   1 61312.8 640.372   3
  -1  -2   2 8770.32 288.746   3
   1  -2   2 8603.44 266.962   3
  -1  -2   3 17970.6 452.598   7
   1  -2   3 18212.7 453.222   7
   1   2   3 18517.1 220.841   3
   1  -2   3 18170.8 428.301   3
  -1  -2   3 19187.6 472.334   3
  -1   2   3 18617.0 383.032   3
  -1   2   4 37173.0 603.695   3
  -1  -2   4 35474.7 724.172   7
  -1  -2   4 36221.5 721.980   3
   1  -2   4 35055.1 660.561   3
   1  -2   4 36972.8 738.163   7
   1   2   4 36258.3 412.565   3
  -1  -2   5 3046.27 236.875   7
   1   2   5 2835.77 138.463   3
   1  -2   5 2746.41 202.630   3
   1  -2   5 2758.04 228.759   7
  -1   2   5 2939.32 189.611   3
  -1  -2   5 2443.46 208.229   3
   1  -2   6 6405.03 385.084   7
  -1  -2   6 6963.66 397.351   7
  -1  -2   6 6455.33 366.709   3
  -1   2   6 6897.45 321.537   3
   1  -2   6 6657.16 341.294   3
   1  -2   7 2121.98 243.886   7
  -1  -2   7 2167.53 235.046   3
   1  -2   7 2136.15 207.688   3
  -1   2   7 2051.10 191.028   3
  -1  -2   7 2214.75 252.414   7
  -1  -2   8 28.5145 46.1221   3
   1  -2   8 72.1766 74.3895   7
  -1  -2   8 89.0665 75.5533   7
  -1  -2   9 107.720 69.7465   7
   1  -2   9 44.4032 65.1754   7
  -1   2  10 2596.23 345.732   7
  -1  -2  10 3525.38 400.173   7
   1  -2  10 2458.94 336.559   7
   1   2  10 2655.41 350.489   7
   1   3 -10 2472.07 308.272   1
  -1   3 -10 2600.67 308.639   1
   1  -3 -10 1979.86 273.645   1
   1   3  -9 1512.13 223.190   1
   1  -3  -9 1408.65 214.647   1
  -1  -3  -9 1209.07 213.266   5
   1  -3  -9 1157.32 197.530   5
  -1   3  -9 1146.35 191.857   1
  -1  -3  -8 884.707 171.446   5
   1  -3  -8 926.784 170.622   5
  -1  -3  -8 1003.10 169.916   1
  -1   3  -8 1038.51 168.812   1
   1  -3  -8 1147.97 176.117   1
   1   3  -8 1188.92 183.166   1
   1  -3  -7 11136.9 526.833   5
  -1   3  -7 11947.2 509.338   1
  -1  -3  -7 11722.2 557.218   5
  -1  -3  -7 11909.0 519.838   1
   1   3  -7 10911.0 502.751   1
   1  -3  -7 11780.7 506.137   1
   1   3  -6 13349.6 436.157   2
  -1  -3  -6 13460.2 507.099   1
   1  -3  -6 13259.0 486.380   1
  -1  -3  -6 13587.8 553.816   5
   1  -3  -6 13403.7 532.532   5
  -1   3  -6 13840.2 499.936   1
   1   3  -6 13700.7 516.371   1
  -1  -3  -5 4919.21 276.137   1
   1   3  -5 4918.33 279.970   1
  -1  -3  -5 5072.30 310.015   5
  -1   3  -5 4595.49 261.290   1
   1   3  -5 4766.52 158.677   5
   1  -3  -5 4997.58 270.600   1
   1   3  -5 4834.72 243.446   2
   1  -3  -5 4828.93 291.927   5
  -1  -3  -5 5113.69 176.983   8
  -1   3  -4 2764.14 127.502   2
  -1  -3  -4 2889.14 190.966   1
  -1  -3  -4 2596.93 204.664   5
   1   3  -4 2718.80 187.924   1
  -1   3  -4 2835.21 180.537   1
   1  -3  -4 2184.63 179.849   5
   1   3  -4 2449.25 85.3584   5
   1  -3  -4 2738.03 175.411   1
   1   3  -4 2682.96 165.588   2
   1  -3  -3 4199.93 186.245   1
  -1   3  -3 4206.48 190.725   1
  -1  -3  -3 4181.17 237.672   5
   1   3  -3 4449.86 192.328   2
  -1   3  -3 4420.52 136.707   2
   1  -3  -3 4059.88 220.502   5
   1  -3  -2 348.966 59.7166   5
  -1   3  -2 468.747 53.6251   1
  -1  -3  -2 384.570 65.9716   5
  -1   3  -2 401.674 37.1100   2
  -1  -3  -2 452.666 38.4047   3
   1  -3  -2 399.582 47.8539   1
   1   3  -2 510.441 62.5051   2
   1  -3  -1 21234.7 233.767   1
  -1   3  -1 21283.9 246.866   1
  -1  -3  -1 20640.0 403.825   5
   1   3  -1 21299.2 368.151   2
  -1   3  -1 20434.8 270.193   2
  -1  -3  -1 21285.3 313.569   3
   1  -3  -1 20570.7 350.908   6
   1  -3  -1 21299.0 393.519   3
   1  -3  -1 20836.5 384.190   5
   1   3   0 182749. 1098.61   2
  -1  -3   0 182629. 1095.97   3
   1   3   0 182850. 1059.49   4
   1  -3   0 180762. 1194.14   3
  -1  -3   0 182228. 1003.15   5
  -1   3   0 182784. 1063.08   4
   1  -3   0 179922. 906.684   6
   1  -3   1 21097.4 333.817   6
   1  -3   1 21042.3 438.339   3
  -1  -3   1 20507.2 426.934   3
  -1   3   1 20994.0 385.207   4
   1   3   1 21314.8 387.748   4
  -1  -3   1 21181.1 259.110   5
  -1   3   2 390.363 65.6846   4
   1   3   2 401.377 66.3211   4
   1  -3   2 426.402 57.5830   6
  -1  -3   2 454.296 74.4230   3
   1  -3   2 370.329 69.2623   3
   1   3   3 4472.18 113.006   3
   1  -3   3 4258.75 230.108   3
  -1  -3   3 4361.71 246.033   3
   1   3   4 2626.76 102.845   3
  -1  -3   4 2844.17 216.288   7
  -1   3   4 2899.96 169.331   3
   1  -3   4 2766.17 205.143   3
  -1  -3   4 2949.18 222.365   3
   1  -3   4 2740.89 211.915   7
  -1   3   5 5057.59 246.598   3
   1  -3   5 5101.70 299.089   3
  -1  -3   5 5369.64 324.503   3
   1  -3   5 4921.65 315.113   7
  -1  -3   5 4440.99 297.983   7
   1   3   5 4764.38 163.235   3
   1  -3   6 13680.0 569.672   7
  -1  -3   6 12557.7 547.350   7
   1  -3   6 13171.8 515.038   3
  -1   3   6 14208.5 450.952   3
  -1  -3   6 13315.4 547.715   3
   1  -3   7 11595.5 513.667   3
  -1  -3   7 12187.4 563.108   3
  -1  -3   7 11796.6 578.917   7
   1  -3   7 11145.9 564.764   7
  -1  -3   8 1127.60 183.704   3
   1  -3   8 1162.73 204.427   7
  -1  -3   8 922.020 181.018   7
   1  -3   9 1050.33 221.465   7
  -1  -3   9 1389.10 242.921   7
  -1  -3  10 2259.73 328.795   7
   1   3  10 2376.12 333.518   7
   1  -3  10 2082.64 316.747   7
   1   4 -10 1665.82 253.298   1
  -1   4 -10 1882.34 266.351   1
  -1  -4 -10 1877.53 289.314   5
   1  -4 -10 1719.40 260.836   1
  -1  -4  -9 1426.18 241.826   5
  -1   4  -9 1350.32 207.308   1
   1   4  -9 1190.76 200.437   1
   1  -4  -9 1198.16 199.585   1
   1  -4  -9 1168.04 213.518   5
   1  -4  -8 30.0457 71.0884   1
  -1   4  -8-8.72534 46.9389   1
   1  -4  -8-42.0201 75.0942   5
   1   4  -8 66.5439 57.0247   1
  -1  -4  -8 37.7808 58.7319   5
   1   4  -7 3989.38 305.020   1
   1  -4  -7 3794.89 291.295   1
   1  -4  -7 4016.24 327.394   5
  -1  -4  -7 4168.63 350.548   5
  -1   4  -7 3986.55 299.669   1
  -1   4  -6 4524.12 286.555   1
   1   4  -6 4299.55 292.194   1
  -1  -4  -6 4317.18 329.372   5
   1  -4  -6 4543.26 327.015   5
   1  -4  -6 4290.85 281.007   1
   1   4  -6 4276.05 251.010   2
  -1  -4  -5 6690.54 376.638   5
   1  -4  -5 6600.92 360.881   5
  -1   4  -5 6654.61 229.649   2
  -1   4  -5 6988.17 322.266   1
   1   4  -5 6774.55 334.665   1
   1  -4  -5 7232.63 325.532   1
   1   4  -5 7143.72 297.819   2
   1   4  -4 8886.16 348.313   1
   1  -4  -4 9296.71 323.352   1
  -1   4  -4 9228.84 328.903   1
   1  -4  -4 9186.77 387.563   5
   1   4  -4 9335.90 316.617   2
  -1   4  -4 9050.96 237.097   2
  -1  -4  -4 9475.04 413.202   5
   1  -4  -3 11460.3 307.387   1
  -1  -4  -3 11613.4 415.235   5
   1   4  -3 11327.3 323.833   2
  -1   4  -3 11446.0 239.415   2
  -1   4  -3 11935.3 320.542   1
   1  -4  -3 11513.1 398.184   5
   1  -4  -2 364.389 46.6763   1
  -1  -4  -2 464.034 50.5245   3
  -1  -4  -2 376.728 72.6729   5
  -1   4  -2 346.029 45.7645   1
   1  -4  -2 382.152 69.3184   5
  -1   4  -2 375.677 42.2442   2
   1   4  -2 498.617 66.7205   2
   1  -4  -1 4737.30 203.738   5
   1  -4  -1 4938.15 213.881   3
  -1   4  -1 5302.86 132.671   1
   1   4  -1 5238.45 205.026   2
  -1   4  -1 4862.10 160.655   2
   1  -4  -1 4950.49 182.987   6
  -1  -4  -1 4859.35 216.790   5
  -1  -4  -1 5032.34 187.587   3
   1  -4   0 42.1969 21.7599   6
   1  -4   0 161.159 53.0603   3
   1   4   0 72.7717 36.0064   4
   1  -4   0 104.589 31.5242   5
   1   4   0 50.4553 31.9039   2
  -1  -4   0 40.8066 25.7608   5
  -1   4   0 48.8641 27.6100   4
  -1  -4   0 41.6656 25.3847   3
  -1  -4   1 5013.19 152.176   5
  -1  -4   1 4956.93 234.046   3
   1  -4   1 5066.64 241.109   3
   1  -4   1 5042.02 174.681   6
  -1   4   1 4879.11 210.624   4
   1   4   1 5017.82 214.606   4
   1  -4   2 479.579 81.9150   3
  -1  -4   2 280.470 67.1578   3
   1   4   2 436.126 74.7754   4
  -1   4   2 386.367 69.9042   4
   1  -4   2 404.641 56.8663   6
   1  -4   3 11566.4 340.520   6
   1  -4   3 11929.2 422.235   3
   1   4   3 11422.2 393.979   4
  -1  -4   3 11452.2 427.651   3
  -1   4   3 11878.9 403.063   4
  -1  -4   4 8762.75 404.915   3
   1  -4   4 9385.14 400.359   3
  -1   4   4 8988.43 306.052   3
   1   4   4 9369.53 200.578   3
  -1   4   5 6737.52 284.729   3
  -1  -4   5 6476.60 374.832   3
   1  -4   5 6895.70 369.209   3
   1  -4   6 3586.05 285.425   3
  -1   4   6 4142.74 239.746   3
  -1  -4   6 4037.19 319.794   3
  -1  -4   7 3973.21 338.332   3
   1  -4   7 3960.12 319.805   3
  -1  -4   8 44.1514 65.9965   3
   1  -4   8 48.7147 53.9363   3
  -1  -4   9 1197.66 216.001   3
  -1  -5 -10 1182.07 245.783   5
   1  -5 -10 1372.49 249.801   5
   1   5 -10 1076.36 209.713   1
  -1   5 -10 1228.29 214.742   1
   1  -5  -9 488.715 127.487   1
   1  -5  -9 460.927 146.983   5
  -1   5  -9 875.759 160.242   1
   1   5  -9 750.154 165.252   1
  -1  -5  -9 775.368 183.525   5
  -1   5  -8 822.158 155.193   1
  -1  -5  -8 732.207 162.718   5
   1  -5  -8 723.626 140.367   1
   1   5  -8 746.296 152.118   1
   1  -5  -8 436.500 126.322   5
   1   5  -7 4527.94 333.791   1
  -1   5  -7 4621.44 322.381   1
   1  -5  -7 3904.24 299.369   1
   1   5  -7 4215.66 266.845   2
  -1  -5  -7 4420.81 373.957   5
   1  -5  -7 4615.16 368.122   5
   1   5  -6 3584.59 273.104   1
  -1  -5  -6 3548.73 312.573   5
  -1   5  -6 3453.36 254.182   1
   1  -5  -6 3192.78 240.664   1
   1   5  -6 3707.79 236.545   2
   1  -5  -6 3271.11 292.977   5
   1   5  -5 13659.2 486.116   1
   1  -5  -5 12801.4 436.333   1
  -1  -5  -5 13263.7 551.126   5
  -1   5  -5 13541.1 333.825   2
  -1   5  -5 12860.2 440.992   1
   1   5  -5 13727.7 420.730   2
   1  -5  -5 12365.8 515.145   5
  -1   5  -4 2276.23 124.139   2
   1  -5  -4 2005.94 194.248   5
   1  -5  -4 2259.75 160.772   1
  -1   5  -4 2302.34 165.540   1
  -1  -5  -4 2354.04 218.845   5
   1   5  -4 2405.42 168.195   2
  -1  -5  -3 1567.02 164.458   5
  -1   5  -3 1521.28 118.594   1
   1   5  -3 1496.76 126.933   2
  -1   5  -3 1504.97 96.7829   2
   1  -5  -3 1466.87 154.091   5
  -1  -5  -2 6241.54 294.269   5
  -1   5  -2 6556.83 202.138   1
   1   5  -2 6575.84 254.577   2
   1  -5  -2 6647.19 269.545   3
   1  -5  -2 6587.82 291.210   5
  -1  -5  -2 6516.48 222.781   3
  -1   5  -2 6187.67 195.450   2
   1   5  -1 20678.6 448.883   2
   1  -5  -1 20652.2 467.460   5
  -1  -5  -1 20840.6 482.897   5
   1  -5  -1 20561.2 486.140   3
   1  -5  -1 20496.2 388.121   6
  -1   5  -1 20061.2 382.960   2
  -1  -5  -1 20272.5 436.376   3
  -1  -5   0 4544.30 226.933   3
   1  -5   0 4637.98 200.908   5
  -1  -5   0 4899.76 208.112   5
   1  -5   0 4424.69 165.975   6
   1   5   0 5012.62 232.148   2
   1   5   0 5104.40 231.600   4
   1  -5   0 4733.64 242.102   3
  -1   5   0 4886.52 227.399   4
  -1  -5   1 20371.4 518.587   3
   1   5   1 22029.3 491.334   4
  -1   5   1 20357.0 475.976   4
  -1  -5   1 21211.3 364.968   5
   1  -5   1 20503.6 366.708   6
  -1  -5   1 19978.3 195.085   6
   1  -5   1 20940.6 538.666   3
  -1  -5   2 6173.30 139.288   5
  -1   5   2 6705.70 291.433   4
   1  -5   2 6610.87 230.172   6
   1   5   2 6286.61 283.989   4
   1  -5   2 6051.45 307.497   3
  -1  -5   2 5944.24 307.177   3
   1  -5   3 1616.02 129.481   6
   1   5   3 1448.89 149.054   4
   1  -5   3 1253.61 152.209   3
  -1  -5   3 1441.63 165.936   3
  -1   5   3 1566.24 159.266   4
   1   5   4 2266.97 204.763   4
   1   5   4 2331.15 113.789   3
  -1   5   4 2519.93 216.846   4
   1  -5   4 2304.96 215.561   3
  -1  -5   4 2242.03 216.275   3
   1  -5   4 2599.61 184.169   6
  -1   5   5 13204.1 407.669   3
  -1  -5   5 13027.2 561.831   3
   1  -5   5 12664.6 536.764   3
  -1  -5   6 3221.49 298.677   3
   1  -5   6 3454.06 297.741   3
  -1  -5   7 3864.20 350.167   3
   1  -5   7 4477.58 356.465   3
   1  -5   8 696.129 153.078   3
  -1  -5   8 705.855 155.793   3
  -1  -5   9 739.533 177.773   3
  -1   6 -10 2578.49 315.864   1
   1  -6 -10 2298.76 334.443   5
  -1  -6 -10 2019.25 316.619   5
   1  -6  -9 224.959 119.101   5
   1   6  -9 394.692 126.436   1
  -1  -6  -9 113.563 70.1842   5
  -1   6  -9 139.914 79.1691   1
  -1   6  -8 208.258 89.1909   1
   1   6  -8 244.829 93.7313   1
  -1  -6  -8 44.5454 106.385   5
   1  -6  -8 310.674 113.237   5
  -1   6  -7 3091.53 266.906   1
   1  -6  -7 3436.46 328.636   5
   1   6  -7 3337.80 290.661   1
  -1  -6  -7 2981.08 315.583   5
   1   6  -6 5527.47 343.038   1
  -1  -6  -6 5550.12 402.210   5
  -1   6  -6 5462.87 321.870   1
   1  -6  -6 5484.08 389.182   5
   1   6  -6 5655.07 297.991   2
  -1  -6  -5 5846.03 382.733   5
   1   6  -5 7120.26 359.533   1
  -1   6  -5 5900.50 303.187   1
   1  -6  -5 6399.29 396.246   5
   1   6  -5 6462.05 301.248   2
  -1   6  -4 18126.2 377.979   2
  -1  -6  -4 17596.9 616.291   5
   1  -6  -4 19064.7 627.339   5
   1   6  -4 18689.0 486.510   2
  -1   6  -4 19071.2 485.323   1
  -1  -6  -3 1338.73 159.688   5
  -1   6  -3 895.307 82.7898   2
   1  -6  -3 1108.06 144.818   5
  -1   6  -3 1061.14 101.813   1
   1   6  -3 1188.25 120.254   2
  -1  -6  -3 1207.66 103.464   3
   1   6  -2 17497.0 446.535   2
   1  -6  -2 17565.1 481.029   3
  -1   6  -2 17261.2 341.642   1
  -1  -6  -2 17522.0 419.350   3
  -1  -6  -2 16414.1 510.498   5
   1  -6  -2 17166.9 502.625   5
  -1   6  -2 16759.4 365.386   2
   1  -6  -1 12618.8 419.680   3
  -1   6  -1 12755.9 344.667   2
   1   6  -1 12347.0 379.398   2
   1  -6  -1 12850.4 399.987   5
   1  -6  -1 13084.1 325.650   6
  -1  -6  -1 12349.8 381.659   3
  -1  -6  -1 12252.3 402.107   5
   1   6   0 336.479 67.7510   2
  -1  -6   0 369.322 65.1646   5
  -1   6   0 270.063 69.0581   4
   1  -6   0 435.640 86.3010   3
   1  -6   0 379.826 53.5833   6
   1  -6   0 420.147 66.4806   5
   1   6   0 364.942 72.2817   4
  -1  -6   0 438.689 82.1866   3
   1  -6   1 12797.1 328.957   5
   1   6   1 13019.9 418.194   4
   1  -6   1 12707.2 457.615   3
  -1  -6   1 12650.7 450.237   3
   1  -6   1 12894.1 303.860   6
  -1   6   1 12654.8 410.193   4
  -1  -6   1 12756.7 321.420   5
   1   6   1 12466.5 414.691   2
   1  -6   2 17545.5 391.818   6
  -1  -6   2 17699.6 290.264   6
  -1  -6   2 18216.5 572.976   3
   1  -6   2 17585.3 566.073   3
   1   6   2 17227.0 504.046   4
  -1   6   2 18497.2 521.340   4
  -1  -6   2 17289.5 288.913   5
   1  -6   2 16952.3 340.615   5
  -1  -6   3 875.978 135.553   3
   1  -6   3 966.507 144.049   3
   1  -6   3 1116.87 112.706   6
  -1   6   3 908.352 128.221   4
   1   6   3 1119.85 141.920   4
   1  -6   4 18456.6 649.718   3
  -1   6   4 18944.0 612.210   4
   1   6   4 19352.2 619.144   4
  -1  -6   4 18055.0 649.932   3
   1  -6   4 18252.8 496.247   6
  -1   6   5 6190.17 290.008   3
   1   6   5 6217.65 381.682   4
  -1  -6   5 6494.71 418.214   3
   1  -6   5 6231.15 400.290   3
  -1   6   5 6335.72 387.316   4
   1  -6   5 6316.26 326.327   6
  -1  -6   6 5866.75 425.906   3
   1  -6   6 5744.96 404.939   3
   1  -6   6 5714.06 340.438   6
   1   6   6 5260.76 378.171   4
  -1   6   6 5207.06 375.810   4
  -1  -6   7 2929.07 318.152   3
   1  -6   7 3144.55 319.481   3
   1  -6   7 3914.84 310.112   6
   1  -6   8 73.0131 58.5134   3
  -1  -6   8 77.0963 71.6540   3
   1  -6   8 325.556 108.350   6
  -1  -6   9 320.030 140.478   3
   1  -6   9 206.411 93.1369   6
   1  -6  10 2392.30 305.738   6
   1   7  -9 1192.01 207.474   1
  -1  -7  -9 1493.73 263.187   5
  -1   7  -9 1087.53 193.184   1
   1  -7  -9 949.724 209.094   5
  -1   7  -8 1963.23 235.398   1
   1   7  -8 1589.96 222.205   1
  -1  -7  -8 1883.39 287.763   5
   1  -7  -8 1724.90 257.374   5
  -1  -7  -7 4671.92 413.368   5
   1  -7  -7 4666.95 407.317   5
  -1   7  -7 5123.36 347.610   1
   1   7  -7 5295.18 372.237   1
   1   7  -6 1636.10 192.440   1
   1  -7  -6 1903.31 238.380   5
   1   7  -6 2109.13 189.316   2
  -1  -7  -6 1900.76 248.334   5
  -1   7  -6 1947.43 195.464   1
  -1  -7  -5 10762.1 545.086   5
   1   7  -5 9872.04 432.988   1
  -1   7  -5 11005.7 421.414   1
   1   7  -5 10150.7 388.848   2
   1  -7  -5 10670.1 530.015   5
   1   7  -4 14787.6 452.813   2
  -1   7  -4 14988.1 438.018   1
  -1   7  -4 14247.1 363.363   2
  -1  -7  -4 15108.5 602.817   5
   1  -7  -4 15015.9 586.192   5
  -1   7  -3 5013.12 215.831   2
  -1  -7  -3 5402.93 239.463   3
  -1  -7  -3 4921.01 321.996   5
  -1   7  -3 4722.91 218.594   1
   1  -7  -3 4747.07 308.661   5
   1   7  -3 4558.56 246.059   2
  -1  -7  -2 1874.74 155.544   3
  -1   7  -2 1960.33 119.763   1
  -1  -7  -2 1856.14 182.682   5
   1   7  -2 1949.25 161.490   2
   1  -7  -2 2288.88 197.087   5
  -1   7  -2 1850.90 136.060   2
   1  -7  -2 1661.47 165.282   3
  -1  -7  -1 12348.1 434.757   5
   1  -7  -1 13394.8 340.498   6
  -1   7  -1 13025.3 382.248   2
   1   7  -1 14072.7 441.078   2
   1  -7  -1 13052.3 433.918   5
   1  -7  -1 13203.5 467.865   3
  -1  -7  -1 13361.9 436.887   3
   1  -7   0 3977.33 221.745   5
  -1  -7   0 3946.84 253.414   3
   1  -7   0 3858.86 173.082   6
   1   7   0 4369.00 253.934   2
  -1  -7   0 3982.44 223.107   5
   1  -7   0 4272.99 274.843   3
   1  -7   1 13465.0 322.951   6
  -1  -7   1 13539.1 364.103   5
   1   7   1 13236.6 457.566   4
  -1  -7   1 13583.7 500.565   3
   1   7   1 13533.1 466.761   2
  -1   7   1 13458.5 462.850   4
   1  -7   1 13199.0 368.131   5
   1  -7   1 13255.9 505.545   3
  -1  -7   2 1767.24 91.4211   6
   1  -7   2 1993.72 136.372   6
  -1   7   2 1706.29 171.877   4
   1   7   2 1706.61 172.729   4
  -1  -7   2 1496.53 177.682   3
  -1  -7   2 1989.64 112.947   5
   1  -7   2 1724.86 120.656   5
   1  -7   2 1931.14 207.034   3
  -1  -7   3 5376.25 203.664   6
   1  -7   3 4818.25 173.665   5
   1  -7   3 4714.84 231.617   6
  -1  -7   3 5051.07 348.642   3
  -1   7   3 4484.13 293.108   4
   1   7   3 4170.07 281.886   4
   1  -7   3 4877.41 337.486   3
  -1  -7   4 14997.3 629.030   3
  -1   7   4 15091.4 574.256   4
   1   7   4 14985.9 566.260   4
   1  -7   4 14291.1 603.023   3
   1  -7   4 14467.4 451.129   6
   1  -7   5 11420.0 569.234   3
   1   7   5 10561.0 514.575   4
  -1   7   5 10575.1 514.325   4
   1  -7   5 10730.2 427.739   6
  -1  -7   5 10354.7 554.774   3
  -1   7   6 1966.53 240.696   4
   1  -7   6 1775.18 194.356   6
  -1  -7   6 2102.63 267.663   3
   1   7   6 2087.79 246.169   4
   1  -7   6 1621.10 231.452   3
   1   7   7 4935.77 409.155   4
  -1  -7   7 5424.57 449.149   3
   1  -7   7 5030.99 353.943   6
  -1   7   7 5083.97 412.244   4
   1  -7   7 4551.43 402.273   3
  -1   7   8 1750.10 263.288   4
   1  -7   8 1574.04 217.972   6
  -1  -7   8 2002.72 294.956   3
   1  -7   8 1780.07 267.115   3
   1   7   8 1714.40 261.546   4
  -1  -7   9 1143.84 238.051   3
   1   7   9 803.236 196.561   4
  -1   7   9 1012.37 213.717   4
   1  -7   9 1333.20 213.366   6
   1  -7   9 1483.40 254.334   3
   1   8  -9 1757.92 256.281   1
  -1  -8  -9 1831.11 301.012   5
   1  -8  -9 2041.28 309.555   5
  -1   8  -8 1219.79 187.754   1
   1   8  -8 1473.03 215.899   1
  -1  -8  -8 1413.95 251.719   5
   1  -8  -8 1414.57 256.915   5
  -1  -8  -7 715.408 185.401   5
   1  -8  -7 773.662 179.104   5
  -1   8  -7 844.207 149.072   1
   1   8  -7 904.938 158.782   1
   1  -8  -6 825.607 173.854   5
  -1   8  -6 556.218 111.427   1
   1   8  -6 495.509 109.402   1
  -1  -8  -6 379.551 129.428   5
   1   8  -5 817.924 135.426   1
  -1  -8  -5 1161.12 188.933   5
  -1   8  -5 1164.08 141.020   1
   1  -8  -5 1096.67 188.420   5
   1   8  -5 808.917 116.497   2
  -1   8  -4 14538.6 439.588   1
   1  -8  -4 14758.5 612.656   5
  -1  -8  -4 14230.9 613.153   5
   1   8  -4 14156.3 470.033   2
  -1  -8  -3 18873.5 660.134   5
  -1   8  -3 18468.9 450.601   2
  -1   8  -3 18625.0 442.691   1
   1  -8  -3 18991.6 653.688   5
  -1  -8  -3 18161.2 485.775   3
   1   8  -3 19913.9 550.126   2
  -1   8  -2 1033.58 111.296   2
   1   8  -2 1084.40 132.698   2
  -1  -8  -2 980.007 124.303   3
   1  -8  -2 842.474 123.313   3
  -1  -8  -2 852.608 130.663   5
   1  -8  -2 792.702 127.793   5
  -1   8  -2 922.171 85.5474   1
   1   8  -1 758.869 114.982   2
  -1  -8  -1 792.590 119.737   3
  -1   8  -1 817.815 109.153   2
   1  -8  -1 934.963 129.613   5
  -1  -8  -1 798.819 121.419   5
   1  -8  -1 947.618 137.046   3
   1  -8  -1 731.110 83.1800   6
   1  -8   0 7424.11 247.494   6
   1  -8   0 7668.74 333.342   5
  -1   8   0 7718.29 340.189   2
   1  -8   0 8058.18 405.488   3
  -1  -8   0 7873.62 387.179   3
   1   8   0 7581.00 360.099   2
  -1  -8   0 7466.27 330.983   5
   1   8   1 690.493 109.248   2
  -1   8   1 868.676 133.885   4
   1  -8   1 862.574 143.130   3
  -1  -8   1 850.866 138.911   3
   1  -8   1 933.807 107.481   5
   1   8   1 1119.39 147.764   4
   1  -8   1 837.914 83.4941   6
  -1  -8   1 869.135 101.297   5
  -1  -8   2 890.649 154.324   3
   1  -8   2 790.774 88.5759   6
  -1  -8   2 859.995 84.0025   5
   1   8   2 928.502 141.750   4
  -1   8   2 1030.60 147.359   4
   1  -8   2 954.205 98.9987   5
   1  -8   2 866.532 151.246   3
   1   8   3 18387.0 627.497   4
  -1   8   3 19028.0 636.637   4
  -1  -8   3 18327.6 697.412   3
   1  -8   3 19216.0 475.887   6
   1  -8   3 19458.9 713.567   3
  -1   8   4 15898.7 617.317   4
   1   8   4 14498.6 586.536   4
   1  -8   4 14231.6 639.737   3
  -1  -8   4 14440.3 653.376   3
   1  -8   4 15367.0 469.797   6
  -1  -8   5 1213.53 204.369   3
   1  -8   5 1097.27 188.262   3
   1   8   5 1046.61 175.321   4
  -1   8   5 1257.60 189.154   4
   1  -8   5 970.851 133.610   6
   1  -8   6 747.825 178.986   3
  -1  -8   6 642.443 163.011   3
  -1   8   6 439.500 125.794   4
   1  -8   6 626.132 118.557   6
   1   8   6 586.118 135.961   4
   1  -8   7 777.099 143.219   6
  -1  -8   7 849.083 192.359   3
   1   8   7 1048.24 195.898   4
   1  -8   7 826.619 190.697   3
  -1   8   7 643.230 155.918   4
   1   8   8 1303.96 227.656   4
  -1  -8   8 1459.15 261.090   3
  -1   8   8 1420.99 245.461   4
   1  -8   8 1770.71 272.054   3
   1  -8   9 1689.98 278.795   3
  -1  -8   9 1445.20 265.897   3
   1   9  -9-35.1711 56.7673   1
   1   9  -8-6.89705 60.2804   1
   1  -9  -8 101.093 112.431   5
  -1  -9  -7 2012.85 293.658   5
   1  -9  -7 1758.72 275.469   5
   1   9  -7 2266.68 255.626   1
  -1  -9  -6 341.432 131.874   5
   1  -9  -6 650.241 150.823   5
   1   9  -6 654.317 135.523   1
   1  -9  -5 3764.54 351.307   5
  -1  -9  -5 3687.58 343.676   5
   1   9  -5 4180.22 297.795   1
   1   9  -5 3964.32 263.433   2
   1   9  -4 1306.35 149.794   2
   1  -9  -4 1279.37 203.368   5
  -1  -9  -4 2201.36 252.137   5
  -1  -9  -3 3101.80 283.586   5
   1  -9  -3 3030.37 245.807   3
  -1   9  -3 2965.39 195.551   2
   1  -9  -3 3347.22 290.151   5
  -1  -9  -3 3431.93 230.491   3
   1   9  -3 3431.41 242.236   2
  -1  -9  -2 4066.91 268.658   3
   1   9  -2 3563.73 250.913   2
  -1  -9  -2 3733.90 293.789   5
   1  -9  -2 3299.32 271.925   5
  -1   9  -2 3766.76 229.531   2
   1  -9  -2 3525.79 268.430   3
  -1   9  -1 4115.20 253.020   2
   1   9  -1 4158.62 275.285   2
  -1  -9  -1 4095.39 284.319   3
  -1  -9  -1 4309.51 291.912   5
   1  -9  -1 4170.40 282.599   5
   1  -9  -1 3966.88 294.740   3
   1   9   0 405.291 90.4830   2
   1  -9   0 338.469 100.188   3
  -1   9   0 438.605 95.4540   2
  -1  -9   0 380.999 81.0714   5
   1  -9   0 467.891 95.9076   5
  -1  -9   0 615.083 124.172   3
  -1   9   1 4651.81 318.828   4
  -1  -9   1 4062.82 315.634   3
  -1  -9   1 3881.58 230.633   5
   1  -9   1 3936.22 237.583   5
   1   9   1 3956.67 289.475   2
   1  -9   1 3990.34 316.776   3
   1   9   1 4694.41 317.712   4
   1   9   2 3206.92 268.953   4
   1  -9   2 4076.56 332.329   3
   1   9   2 3414.87 279.412   2
  -1   9   2 3390.72 278.063   4
   1  -9   2 3305.55 197.939   5
  -1  -9   2 3684.07 316.614   3
   1  -9   3 3264.62 311.159   3
   1   9   3 3114.33 278.636   4
  -1   9   3 3146.08 278.784   4
  -1  -9   3 3099.63 306.440   3
  -1   9   4 1398.21 198.191   4
   1  -9   4 1423.47 224.694   3
  -1  -9   4 1449.33 222.601   3
   1   9   4 1604.06 212.372   4
  -1  -9   5 4109.12 391.692   3
   1   9   5 3899.86 338.224   4
  -1   9   5 3741.45 334.987   4
   1  -9   5 3889.06 370.088   3
  -1   9   6 503.211 132.951   4
   1  -9   6 702.995 179.157   3
  -1  -9   6 542.481 161.302   3
   1   9   6 673.440 152.940   4
  -1  -9   7 2174.65 314.357   3
   1  -9   7 1666.20 270.733   3
  -1   9   7 1865.70 266.547   4
   1   9   7 2507.96 309.573   4
   1   9   8 18.9743 69.8628   4
  -1  -9   8 66.8774 85.2268   3
   1  -9   8 9.93964 87.9040   3
  -1   9   8-63.0771 102.744   4
   1  -9   9-231.389 121.846   3
  -1 -10  -7 531.267 176.020   5
   1 -10  -7 727.222 183.168   5
   1 -10  -6 1562.21 259.124   5
  -1 -10  -6 1579.20 255.887   5
   1 -10  -5 2153.00 278.709   5
  -1 -10  -5 2196.06 283.281   5
   1  10  -5 2333.44 226.951   1
  -1 -10  -4 8338.47 513.301   5
   1 -10  -4 8845.99 529.002   5
   1  10  -4 8085.16 392.735   2
   1 -10  -3 337.007 115.218   5
   1 -10  -3 465.093 113.790   3
   1  10  -3 271.821 76.9895   2
  -1 -10  -3 118.212 76.6366   5
   1 -10  -2 4246.83 316.072   3
  -1 -10  -2 4338.46 333.158   5
  -1 -10  -2 4606.19 304.331   3
   1  10  -2 4663.09 304.314   2
   1 -10  -2 4289.33 326.932   5
  -1  10  -2 4611.21 274.810   2
   1 -10  -1 2841.30 251.219   5
   1  10  -1 2769.85 238.783   2
  -1 -10  -1 2785.00 246.577   5
  -1 -10  -1 2261.90 228.725   3
  -1  10  -1 2786.62 225.269   2
   1 -10  -1 3406.70 288.720   3
  -1  10   0 1402.86 172.010   2
   1  10   0 1189.41 168.793   2
  -1 -10   0 1299.51 157.020   5
   1 -10   0 1251.68 187.091   3
   1 -10   0 1144.52 155.199   5
  -1 -10   0 1150.48 172.835   3
   1 -10   1 2584.06 205.436   5
  -1  10   1 2589.27 242.818   2
   1  10   1 2675.21 257.383   4
   1  10   1 2741.28 258.224   2
  -1  10   1 3267.27 283.272   4
   1 -10   1 2678.45 278.561   3
  -1 -10   1 2682.35 274.673   3
  -1 -10   2 4931.28 386.169   3
   1  10   2 4632.90 341.594   2
  -1  10   2 5165.14 366.281   4
   1  10   2 4464.86 339.821   4
   1 -10   2 4623.76 376.175   3
   1  10   3 225.397 83.1428   2
  -1  10   3 372.418 113.306   4
   1  10   3 327.566 103.228   4
   1 -10   3 352.802 115.288   3
  -1 -10   3 187.172 99.5186   3
   1 -10   4 7925.68 536.994   3
   1  10   4 8763.70 504.087   4
  -1 -10   4 8051.79 538.444   3
  -1  10   4 8693.84 501.050   4
   1  10   5 2158.12 266.248   4
   1 -10   5 1963.46 275.904   3
  -1 -10   5 1649.32 264.416   3
  -1  10   5 2199.00 272.510   4
  -1  10   6 2155.86 275.211   4
   1  10   6 1689.51 248.662   4
   1 -10   6 1973.94 291.840   3
  -1 -10   6 1447.26 265.006   3
  -1 -10   7 506.037 157.550   3
  -1  10   7 586.101 161.414   4
   1 -10   7 544.600 152.388   3
   1  10   7 506.658 140.483   4
  -1 -10   8 302.739 144.356   3
   1 -10   8 252.578 124.691   3
  -1 -11  -7 839.965 215.604   5
   1 -11  -7 1136.68 241.891   5
   1 -11  -6 2823.30 359.453   5
  -1 -11  -6 2829.98 355.534   5
  -1 -11  -5 7217.72 535.550   5
   1 -11  -5 6600.05 504.404   5
  -1 -11  -4 1659.22 239.050   5
   1 -11  -4 1598.16 238.958   5
  -1 -11  -3 2751.56 297.518   5
   1  11  -3 3448.71 273.390   2
   1 -11  -3 3750.64 305.187   3
   1 -11  -3 3582.05 341.828   5
  -1 -11  -2 2753.69 277.115   5
   1 -11  -2 3069.50 286.663   3
  -1 -11  -2 2423.70 238.673   3
   1 -11  -2 3108.88 296.852   5
  -1  11  -2 3021.26 237.025   2
   1  11  -2 2790.64 250.114   2
   1  11  -1 10948.7 505.502   2
  -1 -11  -1 11558.0 545.659   3
  -1 -11  -1 11700.5 535.703   5
   1 -11  -1 12316.2 584.641   3
  -1  11  -1 11371.2 481.616   2
   1 -11  -1 11434.4 526.507   5
   1  11   0 115.553 55.0702   2
  -1 -11   0 52.3846 54.9435   5
   1 -11   0 186.717 82.4305   3
  -1 -11   0 122.251 60.1016   3
   1 -11   0 29.2257 56.8902   5
  -1  11   0 197.907 82.9185   2
  -1  11   1 11269.9 524.736   2
  -1 -11   1 11699.6 601.446   3
   1 -11   1 11947.0 615.122   3
   1  11   1 11473.7 550.238   2
   1  11   2 3020.03 293.307   2
   1  11   2 3361.12 310.379   4
  -1  11   2 2949.79 295.328   4
  -1 -11   2 3042.71 322.050   3
   1 -11   2 2938.84 315.195   3
  -1  11   3 3897.83 345.816   4
   1  11   3 4140.11 359.955   4
  -1 -11   3 3326.37 356.997   3
   1 -11   3 3642.32 369.981   3
   1  11   3 3317.23 317.253   2
  -1 -11   4 1919.95 280.366   3
   1  11   4 2040.01 259.960   4
  -1  11   4 1789.94 248.140   4
   1 -11   4 1938.18 278.772   3
   1  11   5 7640.93 519.197   4
   1 -11   5 7796.27 579.131   3
  -1  11   5 7980.72 530.526   4
  -1 -11   5 7695.68 580.918   3
  -1 -11   6 2779.60 370.340   3
  -1  11   6 2504.10 311.807   4
   1  11   6 2296.37 303.877   4
   1 -11   6 2299.68 325.649   3
   1 -11   7 1153.90 256.331   3
   1  11   7 1583.31 260.846   4
  -1 -11   7 1405.90 273.732   3
  -1  11   7 802.801 193.889   4
   1 -12  -6 1905.44 306.653   5
  -1 -12  -6 2145.21 324.048   5
  -1 -12  -5 1630.54 271.852   5
   1 -12  -5 1979.33 295.595   5
   1 -12  -4 1377.13 236.241   5
  -1 -12  -4 1857.62 268.129   5
   1  12  -3 2516.09 246.909   2
  -1 -12  -3 1901.45 254.552   5
   1 -12  -3 1363.20 223.028   5
  -1 -12  -2 8709.88 515.314   5
   1 -12  -2 8386.39 507.257   5
   1 -12  -2 8387.26 493.883   3
   1  12  -2 9884.20 498.576   2
   1 -12  -1 3599.82 334.815   3
  -1  12  -1 3982.93 302.826   2
   1 -12  -1 3630.70 319.931   5
  -1 -12  -1 3950.93 326.852   5
   1  12  -1 3954.95 322.745   2
  -1 -12  -1 3628.54 325.015   3
   1  12   0 4574.62 355.249   2
  -1 -12   0 4317.14 369.309   3
   1 -12   0 4732.33 337.784   5
   1 -12   0 4797.94 400.358   3
  -1  12   0 4148.88 324.706   2
   1 -12   1 4065.44 381.847   3
  -1  12   1 3702.25 320.259   2
   1  12   1 3446.00 313.220   2
  -1 -12   1 3839.89 365.376   3
   1  12   2 7828.46 492.809   2
  -1 -12   2 8505.88 567.857   3
   1 -12   2 9517.11 600.834   3
   1  12   2 9723.84 563.120   4
  -1  12   2 9713.23 560.287   4
  -1  12   2 8834.93 509.425   2
  -1 -12   3 1935.14 286.791   3
   1 -12   3 2035.03 293.406   3
   1  12   3 1860.41 250.134   2
  -1  12   3 1981.92 263.970   4
   1  12   3 2424.84 291.199   4
   1  12   4 2194.04 284.736   4
  -1 -12   4 1939.38 292.544   3
  -1  12   4 1957.85 265.809   4
   1 -12   4 1873.79 291.177   3
   1  12   4 2321.14 290.411   2
  -1  12   5 1953.47 279.541   4
   1  12   5 1819.97 269.003   4
   1 -12   5 1540.90 282.183   3
   1  12   5 2315.17 304.372   2
  -1 -12   5 1724.69 297.889   3
   1 -12   6 2056.81 324.987   3
   1  12   6 1457.51 249.118   4
  -1  12   6 2392.15 319.824   4
  -1 -12   6 1585.93 295.685   3
   1 -13  -5 770.711 197.201   5
  -1 -13  -5 1006.00 216.539   5
   1 -13  -4 197.021 90.3926   5
  -1 -13  -4 310.568 125.422   5
  -1 -13  -3 2774.23 326.094   5
   1 -13  -3 3152.93 347.130   5
   1 -13  -2 4666.23 399.882   5
   1 -13  -2 4324.55 377.520   3
  -1 -13  -2 3694.40 355.281   5
   1  13  -2 4304.14 347.810   2
   1  13  -1 2366.11 261.066   2
   1 -13  -1 3001.81 301.986   5
  -1 -13  -1 2816.92 302.650   3
   1 -13  -1 2424.69 290.493   3
  -1  13   0 1757.12 220.246   2
   1 -13   0 2292.73 295.513   3
   1  13   0 1994.58 249.083   2
  -1 -13   0 2050.10 272.232   3
   1  13   1 2572.54 286.427   2
  -1  13   1 3467.51 326.501   2
   1 -13   1 2903.40 333.210   3
  -1 -13   1 3046.27 343.914   3
  -1  13   2 3757.50 350.286   2
   1 -13   2 4933.56 458.802   3
   1  13   2 4295.62 384.562   2
  -1 -13   2 3822.98 403.934   3
   1  13   3 3295.66 355.260   4
   1  13   3 3060.73 336.909   2
  -1  13   3 3265.82 355.004   4
  -1  13   3 2779.85 317.626   2
  -1 -13   3 2767.51 350.840   3
   1 -13   3 2843.08 354.948   3
  -1 -13   4 291.366 153.907   3
   1  13   4 294.653 110.043   2
   1 -13   4 366.058 168.917   3
   1  13   4 333.426 131.542   4
  -1  13   4 313.326 142.699   4
   1 -13   5 980.504 233.356   3
   1  13   5 904.505 203.178   4
  -1  13   5 990.863 205.929   4
  -1 -13   5 1033.08 241.223   3
   1  13   5 734.203 186.095   2
  -1 -14  -4 691.681 196.333   5
   1 -14  -4 587.357 180.347   5
   1 -14  -3 1125.36 218.746   5
  -1 -14  -3 1193.68 229.351   5
   1 -14  -2 2583.44 310.898   5
   1  14  -1 905.597 170.369   2
   1 -14  -1 698.337 165.037   3
  -1 -14   0 8542.06 572.715   3
   1  14   0 6941.52 482.088   2
   1 -14   0 7614.94 554.047   3
  -1  14   1 830.622 171.872   2
   1 -14   1 741.669 186.825   3
  -1 -14   1 840.903 193.094   3
   1  14   1 920.562 192.442   2
   1  14   2 2409.59 306.708   2
  -1  14   2 2667.03 309.898   2
   1 -14   2 2757.93 357.622   3
  -1 -14   2 2754.52 359.403   3
  -1 -14   3 1420.36 263.970   3
   1  14   3 1450.74 261.786   4
   1 -14   3 1295.95 255.013   3
  -1  14   3 1407.85 251.354   4
  -1  14   3 824.705 185.246   2
   1  14   3 1213.81 218.157   2
  -1  14   4 557.266 164.783   2
   1  14   4 538.753 152.963   2
  -1 -14   4 581.630 180.679   3
   1 -15  -3 138.019 100.946   5
   1 -15  -1 258.683 112.449   3
   1 -15   0 872.524 200.682   3
   1  15   0 997.227 200.719   2
  -1 -15   0 1080.05 213.712   3
  -1 -15   1 227.709 110.526   3
  -1  15   1 325.021 99.4945   2
   1 -15   1 437.779 181.763   3
   1  15   1 255.741 104.783   2
  -1  15   2 1693.02 259.209   2
   1 -15   2 1730.31 300.391   3
  -1 -15   2 1645.27 287.624   3
   1  15   2 1712.19 267.023   2
   2   0 -10 730.754 176.187   1
  -2   0 -10 693.874 163.841   1
   2   0  -9 3703.36 344.893   1
  -2   0  -9 3659.47 345.060   1
   2   0  -8 2372.50 256.657   1
  -2   0  -8 2038.34 234.624   5
  -2   0  -8 2304.37 249.893   1
   2   0  -7 6101.99 329.913   5
  -2   0  -7 6498.38 387.914   5
   2   0  -7 6204.85 379.038   1
  -2   0  -7 6528.01 382.698   1
  -2   0  -6 1798.20 146.112   8
   2   0  -6 2126.59 178.036   5
  -2   0  -6 2044.96 202.760   5
   2   0  -6 2397.61 213.672   1
  -2   0  -6 1855.40 187.709   1
  -2   0  -5 10412.6 409.419   5
   2   0  -5 10133.0 396.745   1
  -2   0  -5 9674.16 319.181   8
   2   0  -5 10432.7 353.598   5
  -2   0  -5 10067.3 393.678   1
  -2   0  -4 53122.2 851.189   5
  -2   0  -4 52776.4 800.873   1
   2   0  -4 52451.5 782.761   2
  -2   0  -4 53015.6 699.202   8
   2   0  -4 51108.9 798.641   1
   2   0  -4 53141.6 703.999   5
   2   0  -3 8596.29 251.216   5
  -2   0  -3 8501.57 281.440   1
   2   0  -3 8223.52 276.542   2
  -2   0  -3 8514.03 259.919   8
  -2   0  -3 7975.98 300.738   5
   2   0  -2 12112.9 295.912   2
  -2   0  -2 12252.3 334.921   5
  -2   0  -2 11453.2 281.958   8
   2   0  -2 11987.1 316.609   6
  -2   0  -1 144475. 916.218   8
   2   0  -1 144647. 866.976   2
   2   0  -1 140890. 921.305   6
   2   0   0 92909.5 673.788   6
  -2   0   0 94588.1 718.468   8
   2   0   0 92433.0 587.095   2
  -2   0   1 144397. 883.191   8
  -2   0   1 141753. 962.058   3
   2   0   1 145321. 660.932   2
   2   0   1 140900. 891.233   6
  -2   0   2 12238.7 324.697   3
   2   0   2 11664.2 217.597   3
   2   0   2 11964.9 302.512   6
   2   0   3 8302.20 212.013   3
  -2   0   3 9198.21 316.908   3
   2   0   4 51671.4 606.680   3
  -2   0   4 51817.5 838.816   3
   2   0   5 10304.5 303.038   3
  -2   0   5 10605.0 417.788   3
   2   0   6 1996.79 147.438   3
  -2   0   6 1994.74 194.999   3
   2   0   6 1918.34 209.482   7
  -2   0   6 1928.24 206.108   7
  -2   0   7 5961.94 400.708   7
   2   0   7 6532.08 417.379   7
  -2   0   7 6649.70 389.540   3
   2   0   8 2305.52 275.855   7
  -2   0   8 2147.54 263.230   7
  -2   0   8 2333.97 247.856   3
  -2   0   9 3304.76 355.951   7
   2   0   9 2987.11 336.970   7
  -2   0  10 497.977 143.081   7
   2   0  10 712.586 184.664   7
  -2   1 -10 480.689 134.474   1
   2   1 -10 195.111 102.207   1
   2  -1 -10 67.4907 56.8568   1
   2  -1  -9 2636.84 294.213   1
  -2  -1  -9 3070.24 316.233   1
  -2   1  -9 2432.56 275.151   1
   2   1  -9 2395.39 276.797   1
  -2  -1  -8 2274.68 254.332   1
   2   1  -8 2045.54 239.312   1
  -2   1  -8 2280.34 249.856   1
  -2  -1  -8 1955.73 240.486   5
   2  -1  -8 2098.66 238.324   1
  -2   1  -7 2614.11 243.145   1
  -2   1  -7 2108.72 178.065   8
   2  -1  -7 2145.08 208.141   5
  -2   1  -7 2078.18 214.298   5
  -2  -1  -7 2859.17 257.062   1
  -2  -1  -7 2614.48 254.386   5
   2   1  -7 2282.05 230.680   1
   2  -1  -7 2354.91 229.862   1
  -2   1  -6 4387.71 241.341   8
  -2   1  -6 3826.69 265.993   5
   2  -1  -6 4360.67 272.191   5
   2   1  -6 4252.94 231.816   5
  -2  -1  -6 4238.94 290.157   1
  -2  -1  -6 4139.77 294.738   5
  -2   1  -6 4130.64 275.311   1
   2  -1  -6 4457.19 288.767   1
  -2  -1  -6 4325.75 218.617   8
   2   1  -6 4113.56 283.835   1
   2   1  -5 6554.55 257.088   5
  -2  -1  -5 6764.94 257.904   8
   2   1  -5 7203.58 316.445   2
  -2   1  -5 6164.39 308.175   5
  -2  -1  -5 6875.40 326.615   1
   2  -1  -5 7009.05 313.362   5
  -2   1  -5 6275.98 305.732   1
   2  -1  -5 6351.22 308.845   1
  -2  -1  -5 7263.25 356.735   5
  -2   1  -5 6668.88 275.737   8
   2   1  -5 6868.83 330.898   1
   2  -1  -4 6509.70 279.715   1
  -2  -1  -4 6756.39 244.362   8
   2  -1  -4 6570.49 270.774   5
   2   1  -4 6254.18 284.971   1
   2   1  -4 6918.00 282.279   2
  -2   1  -4 6519.92 278.580   1
  -2  -1  -4 6374.06 309.381   5
   2   1  -4 6429.83 224.837   5
  -2  -1  -4 6879.81 294.250   1
  -2   1  -4 6863.13 263.568   8
  -2   1  -4 6549.80 291.037   5
  -2  -1  -3 6393.80 278.385   5
   2  -1  -3 6873.22 245.075   5
   2   1  -3 6436.95 246.185   2
  -2   1  -3 6246.01 233.562   8
   2   1  -3 6621.91 195.682   5
   2  -1  -3 6179.40 234.546   1
  -2   1  -3 6303.09 236.184   1
  -2  -1  -3 6720.93 229.818   8
  -2  -1  -2 11019.1 277.180   8
   2  -1  -2 10560.7 280.519   2
  -2   1  -2 11209.4 266.268   1
  -2   1  -2 10761.3 279.831   8
   2  -1  -2 10755.3 310.465   6
  -2  -1  -2 10599.4 324.128   5
   2   1  -2 10686.4 280.994   2
   2   1  -1 185157. 1046.10   2
  -2   1  -1 187499. 1063.75   8
  -2  -1  -1 182854. 1214.59   5
   2  -1  -1 184876. 1103.91   6
  -2  -1  -1 186825. 1121.03   8
   2  -1  -1 188048. 994.504   2
   2   1  -1 190769. 1005.87   6
  -2  -1   0 62950.4 551.326   3
  -2   1   0 61829.2 563.150   8
  -2  -1   0 62125.7 646.481   8
  -2   1   0 65092.6 351.537   4
   2   1   0 62939.1 509.326   6
   2  -1   0 62988.1 447.049   2
   2  -1   0 61420.1 583.533   6
   2   1   0 62856.8 554.430   2
   2  -1   1 189884. 1032.71   3
   2  -1   1 190678. 1078.66   6
   2   1   1 187548. 966.423   6
   2   1   1 187313. 946.784   2
  -2   1   1 187453. 918.879   8
   2  -1   1 189388. 522.325   2
  -2  -1   1 187281. 1149.54   3
  -2   1   2 10980.5 216.247   8
  -2  -1   2 11071.1 277.838   7
   2  -1   2 10904.7 266.713   3
  -2  -1   2 10817.9 320.019   3
   2  -1   2 10914.8 276.685   7
  -2   1   2 11193.2 311.481   3
   2  -1   2 11070.0 292.947   6
   2  -1   3 6311.84 223.084   3
   2  -1   3 6252.50 253.962   7
   2   1   3 5998.94 122.295   3
  -2   1   3 6831.68 264.663   3
  -2  -1   3 6668.10 261.729   7
  -2  -1   3 5940.55 265.098   3
   2  -1   4 6823.12 308.323   7
  -2  -1   4 6876.94 317.105   3
  -2  -1   4 6650.87 304.407   7
  -2   1   4 6274.67 283.749   3
   2   1   4 6887.24 172.376   3
   2  -1   4 7111.58 260.977   3
  -2  -1   5 6994.76 353.932   7
  -2  -1   5 6779.21 346.142   3
   2  -1   5 7258.69 362.577   7
  -2   1   5 7052.93 331.110   3
   2  -1   5 6745.86 279.171   3
   2   1   5 6695.72 205.433   3
   2  -1   6 3966.82 233.635   3
   2  -1   6 4270.57 306.743   7
  -2  -1   6 3982.31 301.966   7
  -2  -1   6 4594.72 313.139   3
  -2   1   6 4462.25 285.823   3
  -2   1   7 2114.99 216.202   3
  -2  -1   7 2031.19 239.550   7
   2  -1   7 2007.23 236.484   7
  -2  -1   7 2135.47 229.521   3
   2   1   8 2208.02 276.525   7
  -2  -1   8 2141.57 245.210   3
  -2   1   8 2640.01 294.701   7
  -2  -1   8 2428.80 284.959   7
   2  -1   8 2254.26 269.684   7
   2  -1   9 2956.47 342.669   7
  -2   1   9 2153.54 287.214   7
  -2  -1   9 2488.81 318.439   7
   2   1   9 2788.15 325.312   7
  -2   1  10 43.9515 67.9551   7
   2  -1  10 322.753 142.718   7
  -2  -1  10 282.713 126.546   7
   2   1  10 70.7829 73.7661   7
   2   2 -10 1716.64 257.188   1
  -2   2 -10 2481.31 303.326   1
   2  -2 -10 2295.76 292.133   1
  -2  -2  -9 555.800 148.316   5
   2   2  -9 755.041 172.476   1
  -2   2  -9 248.147 103.556   1
   2  -2  -9 494.433 134.851   1
  -2  -2  -8 1055.97 187.488   5
   2  -2  -8 994.579 165.262   1
   2  -2  -8 759.721 142.677   5
  -2   2  -8 878.786 163.294   1
   2   2  -8 1135.44 183.195   1
  -2   2  -7 1583.57 186.240   1
   2   2  -7 1763.83 203.788   1
   2  -2  -7 1283.22 170.441   5
  -2  -2  -7 1787.47 223.240   5
  -2   2  -7 2055.39 185.086   8
   2  -2  -7 1723.13 197.541   1
   2   2  -6 23366.8 618.299   2
  -2  -2  -6 23640.1 733.175   5
   2  -2  -6 24393.8 667.193   1
   2  -2  -6 24507.9 681.774   5
  -2  -2  -6 24544.3 690.798   1
  -2   2  -6 24045.3 657.189   1
   2   2  -6 24679.8 695.826   1
   2   2  -5 5659.78 280.076   2
  -2  -2  -5 5276.99 228.602   8
  -2  -2  -5 5773.99 333.453   5
   2  -2  -5 5382.14 282.925   1
   2   2  -5 4945.49 288.413   1
   2   2  -5 5628.31 211.055   5
   2  -2  -5 5428.79 291.807   5
  -2   2  -5 5796.67 289.744   1
  -2  -2  -4 7051.86 253.546   8
   2  -2  -4 6932.48 298.486   5
  -2  -2  -4 6931.47 339.960   5
   2   2  -4 7228.62 291.619   2
   2   2  -4 7678.16 214.151   5
   2  -2  -4 7155.57 289.612   1
  -2   2  -4 6988.87 284.104   1
   2  -2  -3 8072.48 264.521   1
  -2   2  -3 7911.81 261.006   1
  -2  -2  -3 8122.44 329.988   5
  -2  -2  -3 7635.57 252.292   8
   2   2  -3 8063.65 278.590   2
   2   2  -3 7898.53 183.515   5
   2  -2  -3 8475.06 295.647   5
   2  -2  -2 1943.31 135.368   6
   2  -2  -2 1823.42 105.089   1
   2   2  -2 1753.67 123.520   2
  -2   2  -2 1868.04 105.226   1
  -2  -2  -2 1696.46 140.653   5
  -2  -2  -2 1806.92 122.009   8
  -2  -2  -1 253458. 1425.36   8
  -2  -2  -1 254713. 1485.13   5
   2  -2  -1 255509. 1377.59   6
   2   2  -1 256214. 1332.01   2
   2   2  -1 253553. 1088.24   6
  -2  -2   0 392289. 1507.32   3
   2  -2   0 393650. 1694.63   3
  -2  -2   0 383608. 1615.65   5
   2   2   0 386677. 1562.65   2
   2  -2   0 384229. 1561.88   6
   2   2   0 388208. 1152.42   6
  -2   2   0 394828. 1276.09   4
   2   2   1 257867. 1167.47   4
  -2  -2   1 252161. 1445.53   3
   2   2   1 254426. 1298.66   2
  -2   2   1 256787. 1173.20   4
   2  -2   1 254698. 1402.98   3
   2  -2   1 250396. 1323.92   6
   2   2   1 252792. 1075.94   6
  -2   2   1 260016. 1082.14   8
   2  -2   2 1785.08 126.844   3
  -2   2   2 1821.57 82.5505   8
   2  -2   2 1822.89 124.066   6
  -2  -2   2 1559.18 132.656   3
  -2  -2   3 7852.47 298.324   7
   2  -2   3 8087.54 293.560   6
  -2   2   3 8357.44 296.715   3
   2  -2   3 8290.64 291.320   3
   2  -2   3 8105.76 302.426   7
  -2  -2   3 7750.26 322.874   3
   2  -2   4 6957.47 290.405   3
  -2   2   4 7156.54 299.956   3
  -2  -2   4 7225.03 342.011   3
   2  -2   4 7142.98 326.471   7
  -2  -2   4 7024.33 322.824   7
   2  -2   5 5086.62 309.793   7
  -2   2   5 5535.45 287.552   3
  -2  -2   5 5619.87 323.910   7
  -2  -2   5 5644.16 329.374   3
   2  -2   5 5503.51 280.979   3
  -2  -2   6 25024.2 750.927   3
  -2  -2   6 23973.0 741.175   7
   2  -2   6 24143.0 745.296   7
  -2   2   6 23231.1 640.432   3
   2  -2   6 23258.9 618.178   3
  -2   2   7 1452.54 176.294   3
  -2  -2   7 1836.36 221.349   3
   2  -2   7 1606.10 216.194   7
  -2  -2   7 1672.18 216.906   7
  -2  -2   8 761.164 158.416   3
  -2  -2   8 782.821 163.818   7
   2  -2   8 1151.59 206.997   7
  -2  -2   9 395.844 121.718   3
   2   2   9 409.504 135.327   7
  -2   2   9 416.563 128.019   7
  -2  -2   9 611.237 160.764   7
   2  -2   9 563.479 154.377   7
  -2   2  10 2681.37 346.683   7
   2  -2  10 2009.80 307.560   7
   2   2  10 1744.13 285.829   7
  -2  -2  10 1905.75 301.552   7
   2  -3 -10 466.942 147.108   1
  -2   3 -10 558.145 151.227   1
   2   3 -10 256.320 107.922   1
  -2  -3  -9 298.068 110.746   5
   2  -3  -9 482.486 132.922   1
  -2   3  -9 156.794 83.8538   1
   2   3  -9 261.818 110.349   1
   2   3  -8 501.028 129.737   1
   2  -3  -8 633.302 139.921   5
   2  -3  -8 694.032 144.570   1
  -2   3  -8 532.587 129.285   1
  -2  -3  -8 533.352 135.547   5
   2  -3  -7 3530.34 277.108   1
  -2   3  -7 3584.67 280.771   1
  -2  -3  -7 3615.43 322.753   5
   2  -3  -7 3657.10 302.151   5
   2   3  -7 3535.17 290.004   1
   2   3  -6 5936.80 313.602   2
   2  -3  -6 6231.24 358.650   5
  -2  -3  -6 5565.25 369.772   5
   2  -3  -6 6314.24 339.229   1
  -2   3  -6 6402.51 338.689   1
   2   3  -6 5968.99 354.475   1
  -2  -3  -5 8472.62 421.493   5
  -2  -3  -5 7828.59 284.804   8
   2  -3  -5 8532.71 386.104   5
   2   3  -5 8705.10 386.001   1
  -2   3  -5 8951.42 364.234   1
   2  -3  -5 8484.09 350.166   1
   2   3  -5 8602.23 350.733   2
   2   3  -4 7971.66 171.178   5
  -2  -3  -4 7902.51 279.093   8
   2  -3  -4 8068.40 345.886   5
  -2   3  -4 7946.51 303.781   1
   2   3  -4 8276.11 316.790   2
   2  -3  -4 8282.58 304.519   1
  -2  -3  -4 7866.59 372.885   5
   2   3  -3 47681.8 357.437   5
  -2   3  -3 48936.8 644.654   1
   2   3  -3 49620.9 713.963   2
  -2  -3  -3 49254.8 860.952   5
   2  -3  -3 49210.8 640.539   1
   2  -3  -3 49810.7 774.807   5
  -2  -3  -3 49278.1 685.273   8
   2  -3  -2 98387.2 994.680   6
  -2  -3  -2 99782.1 965.805   8
  -2  -3  -2 96148.4 1084.52   5
  -2   3  -2 98489.8 743.798   1
   2  -3  -2 99861.9 999.373   5
   2   3  -2 97933.2 945.093   2
   2  -3  -2 98511.0 733.258   1
  -2  -3  -2 97439.6 465.102   3
   2  -3  -1 6269.18 224.883   6
   2   3  -1 5850.11 221.038   2
  -2  -3  -1 5774.91 238.918   5
   2  -3  -1 5956.69 125.976   1
  -2  -3  -1 5815.66 171.571   3
  -2  -3   0 60024.4 670.342   3
   2   3   0 59306.8 693.366   2
   2   3   0 60831.5 610.528   4
   2  -3   0 59457.8 648.219   6
  -2  -3   0 59099.6 669.008   5
   2  -3   0 58840.7 746.543   3
  -2   3   0 62678.6 619.816   4
   2   3   0 60402.3 394.514   6
   2  -3   1 5876.74 211.221   6
   2   3   1 6183.69 230.427   2
   2   3   1 5882.29 203.062   4
  -2   3   1 5814.67 202.309   4
   2  -3   1 5594.31 242.437   3
  -2  -3   1 6026.00 245.613   3
   2   3   1 6043.16 156.408   6
   2  -3   2 98816.9 941.524   6
  -2   3   2 96357.1 957.051   4
  -2  -3   2 96034.2 1099.27   3
   2   3   2 93612.6 945.837   4
   2  -3   2 98186.8 1046.59   3
  -2   3   2 97924.9 640.553   8
  -2   3   3 48433.0 358.977   8
   2  -3   3 47323.3 720.521   6
   2  -3   3 49985.5 795.474   3
  -2  -3   3 48999.2 862.295   3
   2  -3   4 8328.63 340.356   6
  -2   3   4 7926.34 315.967   3
  -2  -3   4 7755.34 371.048   3
   2  -3   4 7846.57 338.587   3
  -2  -3   5 8051.90 412.558   3
   2  -3   5 8652.79 416.405   7
  -2  -3   5 8676.82 415.623   7
  -2   3   5 8425.50 353.874   3
   2  -3   5 8346.81 375.565   3
   2  -3   6 5791.99 373.791   7
   2  -3   6 6058.32 341.755   3
  -2   3   6 5727.11 315.781   3
  -2  -3   6 6355.83 392.759   7
  -2  -3   6 5265.32 361.870   3
   2  -3   7 3343.61 316.131   7
  -2  -3   7 3190.98 303.693   7
  -2  -3   7 3269.48 306.598   3
  -2   3   7 3628.99 268.880   3
   2  -3   7 3186.16 264.355   3
  -2  -3   8 460.397 133.673   3
   2  -3   8 570.777 149.680   7
  -2  -3   8 498.505 138.837   7
  -2  -3   9 228.992 127.340   7
   2  -3   9 141.833 119.572   7
  -2  -3   9 116.604 95.0126   3
  -2   3  10 486.039 160.214   7
   2   3  10 489.740 170.715   7
   2  -4 -10 6639.18 491.943   1
  -2   4 -10 6473.36 483.665   1
   2   4 -10 7083.52 523.703   1
  -2  -4 -10 6401.62 533.121   5
  -2  -4  -9 257.695 104.379   5
   2  -4  -9 386.844 118.222   5
  -2   4  -9 475.631 128.890   1
   2  -4  -9 423.556 120.891   1
   2   4  -9 417.123 139.207   1
   2  -4  -8 106.495 68.2324   1
  -2  -4  -8 191.595 106.251   5
  -2   4  -8-13.0615 60.1504   1
   2  -4  -8 38.8459 59.0283   5
   2   4  -8 30.8384 59.1436   1
  -2  -4  -7 960.851 171.144   5
   2   4  -7 1034.92 143.982   2
   2  -4  -7 1039.53 153.146   1
   2  -4  -7 838.647 159.161   5
  -2   4  -7 865.712 142.776   1
   2   4  -7 681.161 138.559   1
  -2   4  -6 10713.2 441.333   1
   2   4  -6 9936.30 409.173   2
   2  -4  -6 11366.9 514.465   5
   2   4  -6 10516.8 470.352   1
   2  -4  -6 10706.6 440.998   1
  -2  -4  -6 11266.0 543.980   5
  -2  -4  -5 9219.33 461.587   5
   2   4  -5 10828.9 438.652   1
   2  -4  -5 9479.58 433.172   5
  -2   4  -5 9483.12 376.050   1
   2   4  -5 10352.6 390.833   2
   2  -4  -5 9591.91 374.201   1
   2  -4  -4 8659.91 380.702   5
   2   4  -4 8689.20 334.713   2
  -2   4  -4 8211.82 304.368   1
   2  -4  -4 8247.58 302.280   1
  -2  -4  -4 8896.89 414.377   5
  -2   4  -3 10801.9 162.065   2
   2  -4  -3 10710.5 294.229   1
  -2   4  -3 11190.1 307.132   1
   2   4  -3 10592.0 348.694   2
  -2  -4  -3 10896.5 425.165   5
   2  -4  -3 10442.1 383.681   5
   2   4  -2 33966.4 592.932   2
  -2   4  -2 34104.6 428.498   1
   2  -4  -2 34365.2 608.143   6
   2  -4  -2 34903.6 638.670   5
   2  -4  -2 33878.8 410.847   1
  -2  -4  -2 33648.9 392.979   3
  -2  -4  -2 33902.1 682.213   5
  -2   4  -2 33761.8 305.159   2
   2  -4  -1 16207.5 381.825   6
   2   4  -1 16524.6 402.423   2
   2  -4  -1 16638.4 431.461   3
   2  -4  -1 16273.7 182.992   1
  -2  -4  -1 16101.9 422.148   5
  -2  -4  -1 15886.9 332.504   3
  -2   4  -1 15709.6 198.786   1
   2  -4   0 853.997 102.802   3
   2   4   0 760.973 89.4846   2
  -2  -4   0 833.662 87.5524   5
   2   4   0 749.131 80.9897   4
  -2  -4   0 820.429 90.4709   3
  -2   4   0 780.666 83.0948   4
   2  -4   0 710.888 76.5302   6
  -2  -4   1 16074.7 438.251   3
   2   4   1 15527.5 407.874   2
   2   4   1 15717.0 375.754   4
  -2  -4   1 16060.9 322.275   5
   2   4   1 16086.7 239.006   6
   2  -4   1 15763.5 445.045   3
  -2   4   1 15751.0 377.454   4
   2  -4   1 16133.1 363.421   6
  -2   4   2 35736.1 622.909   4
   2   4   2 33332.8 599.867   4
   2  -4   2 34642.6 690.214   3
   2  -4   2 33481.9 566.741   6
  -2  -4   2 34701.3 703.909   3
   2   4   3 10015.3 370.745   4
  -2   4   3 11117.4 390.946   4
   2  -4   3 10487.6 351.528   6
  -2   4   3 10897.5 199.584   8
   2  -4   3 10924.7 413.173   3
  -2  -4   3 10583.0 428.501   3
  -2   4   4 8477.05 335.351   3
   2  -4   4 7945.63 336.441   6
  -2  -4   4 8182.18 408.530   3
   2  -4   4 8626.40 385.272   3
   2  -4   5 10359.7 450.567   3
  -2  -4   5 9991.55 483.958   3
   2  -4   5 10052.7 420.420   6
  -2   4   5 10130.2 393.541   3
  -2   4   6 10752.1 431.276   3
  -2  -4   6 10364.8 523.714   3
   2  -4   6 10602.4 481.994   3
   2  -4   7 1139.67 172.897   3
  -2  -4   7 866.086 168.977   3
  -2  -4   8-57.5066 92.3929   3
   2  -4   9 505.103 135.479   6
  -2  -4   9 385.760 139.757   3
   2  -4  10 7730.28 557.480   6
   2  -5 -10 6201.00 477.250   1
  -2  -5 -10 6743.66 568.421   5
  -2   5 -10 6549.82 488.691   1
   2  -5  -9 1579.90 252.632   5
  -2  -5  -9 1375.81 246.504   5
   2  -5  -9 1359.57 215.470   1
   2   5  -9 1356.48 220.281   1
  -2   5  -9 1449.55 221.957   1
  -2  -5  -8 7054.51 516.693   5
   2  -5  -8 7981.59 519.513   5
   2  -5  -8 7623.61 450.087   1
  -2   5  -8 8403.60 473.605   1
   2   5  -8 7709.47 480.519   1
   2  -5  -7 6295.59 372.585   1
  -2  -5  -7 6479.04 465.223   5
  -2   5  -7 6058.75 368.976   1
   2   5  -7 5978.64 343.768   2
   2   5  -7 5462.85 374.063   1
   2  -5  -7 6399.83 433.423   5
   2   5  -6 1667.13 193.660   1
   2  -5  -6 1758.74 216.448   5
   2  -5  -6 1752.33 179.474   1
   2   5  -6 1406.99 158.234   2
  -2  -5  -6 1574.82 218.080   5
  -2   5  -6 1464.59 164.662   1
  -2  -5  -5 17225.1 652.458   5
  -2   5  -5 17337.7 506.938   1
   2  -5  -5 17019.1 494.931   1
   2  -5  -5 16382.9 600.655   5
   2   5  -5 16024.8 494.147   2
   2   5  -4 13713.8 432.412   2
  -2  -5  -4 13268.5 538.517   5
   2  -5  -4 14204.4 394.932   1
  -2   5  -4 13917.6 398.496   1
  -2   5  -4 13591.0 234.444   2
   2  -5  -4 14103.8 512.024   5
  -2   5  -3 258.100 33.1931   2
   2  -5  -3 400.582 88.6034   5
  -2  -5  -3 236.346 79.9675   5
  -2  -5  -3 200.949 29.8154   3
   2  -5  -3 167.523 38.8162   1
  -2   5  -3 132.336 36.5325   1
   2   5  -3 154.955 45.3496   2
   2  -5  -2 8357.50 311.780   6
  -2  -5  -2 9104.19 375.194   5
  -2   5  -2 9074.53 204.350   2
   2  -5  -2 8288.70 336.798   5
  -2   5  -2 9034.62 219.245   1
   2   5  -2 8902.48 322.043   2
  -2  -5  -2 9486.61 253.259   3
   2  -5  -1 2594.74 160.783   6
  -2  -5  -1 3039.90 196.058   5
  -2   5  -1 2784.60 79.6723   1
   2  -5  -1 2842.16 195.050   3
   2   5  -1 2662.90 177.646   2
  -2  -5  -1 2790.18 160.147   3
   2  -5  -1 2870.45 184.269   5
   2  -5   0 9378.16 358.269   3
   2   5   0 9518.37 336.444   2
  -2  -5   0 9543.97 310.260   5
  -2  -5   0 8772.80 319.803   3
   2   5   0 9655.02 318.500   4
  -2   5   0 9350.30 312.290   4
   2  -5   0 9341.21 286.031   6
  -2  -5   1 2596.77 141.477   5
   2   5   1 2705.86 90.6194   6
   2   5   1 2979.78 193.613   2
  -2   5   1 2811.26 176.673   4
   2  -5   1 2505.53 194.101   3
   2   5   1 2763.79 175.997   4
   2  -5   1 2815.29 159.362   6
  -2  -5   1 2786.10 199.010   3
  -2  -5   2 8620.74 379.812   3
   2  -5   2 9042.35 306.385   6
   2  -5   2 9298.40 387.751   3
   2   5   2 9110.25 340.334   4
  -2   5   2 8842.75 336.126   4
  -2  -5   3 84.5325 46.3387   3
   2  -5   3 232.988 71.6920   3
   2   5   3 306.192 78.3376   4
  -2   5   3 131.722 56.7348   4
   2  -5   3 228.905 61.2045   6
   2   5   4 13418.1 493.537   4
  -2   5   4 13558.3 501.666   4
  -2  -5   4 14225.3 561.212   3
   2  -5   4 13161.9 442.579   6
   2  -5   4 13336.0 520.974   3
  -2  -5   5 17182.9 661.546   3
   2  -5   5 17686.4 560.057   6
  -2   5   5 17446.6 522.874   3
   2  -5   5 16852.4 616.019   3
  -2   5   6 1696.93 171.635   3
   2  -5   6 1435.51 178.893   6
  -2  -5   6 1479.18 216.953   3
   2  -5   6 1600.29 203.700   3
   2  -5   7 5732.24 399.236   3
  -2  -5   7 5989.15 445.657   3
   2  -5   7 6393.03 404.413   6
  -2  -5   8 8296.36 556.013   3
   2  -5   8 7950.45 485.720   6
   2  -5   8 7739.07 487.213   3
   2  -5   9 1511.82 227.273   6
  -2  -5   9 1217.34 241.397   3
   2  -5  10 6985.03 525.691   6
   2  -6 -10-81.2318 91.3179   5
  -2   6 -10-25.0558 51.5164   1
   2  -6  -9 334.042 109.312   1
   2   6  -9 894.967 184.170   1
   2  -6  -9 360.536 131.479   5
  -2  -6  -9 739.110 193.687   5
  -2   6  -9 967.292 178.239   1
   2   6  -8 76.3312 70.7278   1
  -2  -6  -8-69.8185 97.8676   5
   2  -6  -8 136.081 85.7377   1
  -2   6  -8 105.038 78.2927   1
   2  -6  -8 56.9343 84.4492   5
   2   6  -7 4719.44 310.003   2
   2   6  -7 5197.59 376.550   1
  -2  -6  -7 5154.72 431.015   5
  -2   6  -7 5420.70 349.004   1
   2  -6  -7 5341.89 347.206   1
   2  -6  -7 5328.66 416.318   5
   2   6  -6 4106.64 307.397   1
  -2   6  -6 3953.12 270.095   1
   2  -6  -6 3744.44 326.296   5
   2  -6  -6 4572.27 289.717   1
  -2  -6  -6 3994.42 354.262   5
   2   6  -6 4115.53 274.392   2
  -2  -6  -5 3544.63 310.544   5
   2  -6  -5 3396.39 221.222   1
  -2   6  -5 3118.96 217.421   1
   2  -6  -5 2821.81 265.882   5
   2   6  -5 3496.14 239.682   2
   2  -6  -4 563.573 81.9824   1
  -2   6  -4 856.515 103.651   1
   2  -6  -4 616.078 120.929   5
  -2  -6  -4 474.967 113.368   5
   2   6  -4 638.891 100.564   2
  -2  -6  -3 143.717 65.3741   5
  -2   6  -3 333.985 43.2806   2
   2  -6  -3 266.502 77.8533   5
  -2  -6  -3 348.845 47.7918   3
   2   6  -3 169.771 55.8574   2
  -2   6  -3 385.284 60.1114   1
  -2  -6  -2 2746.48 159.901   3
   2  -6  -2 2523.56 197.624   3
   2  -6  -2 2624.88 201.866   5
   2   6  -2 2744.55 195.542   2
  -2  -6  -2 2741.86 215.552   5
  -2   6  -2 2565.92 118.821   1
  -2   6  -2 2576.78 127.671   2
   2  -6  -2 2746.23 184.627   6
   2  -6  -1 7753.23 289.145   6
   2  -6  -1 7869.92 322.505   5
  -2  -6  -1 8448.13 348.573   5
  -2   6  -1 7626.90 254.819   2
  -2   6  -1 7396.10 127.277   1
   2  -6  -1 8237.86 357.407   3
   2   6  -1 7977.19 326.096   2
  -2  -6  -1 7692.67 299.175   3
   2   6   0 25556.7 596.101   2
   2  -6   0 25575.9 495.642   6
  -2   6   0 25154.0 569.732   4
   2  -6   0 25455.0 647.410   3
  -2  -6   0 25190.3 589.410   3
  -2  -6   0 24059.9 533.051   5
   2   6   1 7920.16 343.643   2
  -2  -6   1 8353.61 274.922   5
   2  -6   1 7826.93 277.387   6
   2   6   1 7867.59 325.746   4
  -2   6   1 7994.55 329.163   4
   2  -6   1 7949.64 374.143   3
   2   6   1 7329.05 126.444   6
  -2  -6   1 7500.41 350.100   3
  -2  -6   2 2379.91 213.014   3
   2  -6   2 2596.48 168.991   6
  -2   6   2 2226.57 183.742   4
   2   6   2 2708.43 208.465   2
   2   6   2 2696.73 200.873   4
   2  -6   2 2846.43 236.029   3
  -2  -6   3 314.645 80.7279   3
   2  -6   3 247.372 69.2129   3
  -2   6   3 362.591 83.5723   4
   2  -6   3 278.285 61.7933   6
   2   6   3 237.951 77.4753   4
   2  -6   4 733.302 108.268   6
  -2   6   4 804.162 129.850   4
   2  -6   4 606.788 124.957   3
   2   6   4 600.330 113.088   4
  -2  -6   4 520.308 118.594   3
  -2  -6   5 3374.25 308.426   3
   2  -6   5 3207.09 286.117   3
   2   6   5 3355.54 279.918   4
  -2   6   5 3791.51 303.225   4
  -2   6   5 3395.07 237.964   3
   2  -6   5 3510.13 255.560   6
   2   6   6 3736.88 319.454   4
  -2   6   6 3610.38 320.889   4
   2  -6   6 3689.36 285.424   6
  -2  -6   6 4228.36 366.199   3
   2  -6   6 3659.00 321.158   3
  -2  -6   7 5327.30 442.557   3
  -2   6   7 4910.84 399.018   4
   2  -6   7 5557.00 416.179   3
   2   6   7 5219.60 408.663   4
   2  -6   7 5202.06 364.790   6
   2  -6   8 180.953 86.2178   6
  -2  -6   8 91.3588 82.1884   3
   2  -6   8 139.432 78.2932   3
   2   6   9 466.480 138.681   4
   2  -6   9 937.440 183.903   6
  -2  -6   9 660.909 181.501   3
  -2  -6  10 42.0121 82.5008   3
   2  -7  -9 1012.53 219.551   5
  -2  -7  -9 1143.22 238.277   5
  -2   7  -9 1111.63 191.346   1
   2   7  -9 735.440 171.836   1
  -2  -7  -8 939.130 203.397   5
  -2   7  -8 565.533 126.790   1
   2   7  -8 567.884 136.548   1
   2  -7  -8 497.610 154.432   5
  -2  -7  -7 4728.46 425.589   5
  -2   7  -7 4121.03 310.517   1
   2   7  -7 3957.82 332.846   1
   2  -7  -7 4324.44 387.803   5
   2   7  -6 1504.03 193.249   1
   2  -7  -6 1598.88 226.045   5
  -2  -7  -6 1083.49 196.138   5
   2   7  -6 1489.30 173.224   2
  -2   7  -6 1354.63 158.978   1
  -2  -7  -5 1633.40 226.431   5
   2  -7  -5 1523.41 209.658   5
   2   7  -5 1866.89 180.289   2
  -2   7  -5 1752.36 166.697   1
   2  -7  -4 9418.26 471.149   5
   2   7  -4 10205.5 410.328   2
  -2  -7  -4 10083.3 505.780   5
  -2   7  -4 9865.96 341.540   1
  -2  -7  -3 26303.8 485.128   3
  -2   7  -3 24903.8 419.730   2
  -2  -7  -3 26145.6 762.445   5
  -2   7  -3 26620.9 477.681   1
   2   7  -3 25758.1 634.505   2
   2  -7  -3 26084.7 723.635   5
  -2  -7  -2 8038.60 304.063   3
  -2   7  -2 7959.97 258.303   2
  -2  -7  -2 8009.17 390.657   5
   2  -7  -2 8469.80 386.675   3
   2   7  -2 8267.80 356.096   2
  -2   7  -2 8576.90 216.298   1
   2  -7  -2 8371.32 383.323   5
   2  -7  -2 7885.06 322.074   6
   2  -7  -1 2141.08 183.815   5
   2   7  -1 2393.47 195.636   2
  -2  -7  -1 1755.03 170.189   5
  -2   7  -1 1972.52 143.819   2
  -2   7  -1 1987.60 64.7800   1
   2  -7  -1 1985.27 190.483   3
   2  -7  -1 2266.34 162.321   6
  -2  -7  -1 2202.21 176.315   3
  -2  -7   0 11682.0 399.475   5
   2  -7   0 11883.2 399.474   5
   2   7   0 11770.4 433.408   2
  -2  -7   0 11507.1 433.181   3
   2  -7   0 12111.0 477.599   3
   2  -7   0 12167.0 358.045   6
   2  -7   1 2066.07 157.488   5
   2   7   1 1721.07 174.141   2
   2  -7   1 1895.52 142.778   6
  -2  -7   1 2015.70 198.073   3
   2   7   1 2069.96 184.114   4
  -2  -7   1 2255.42 155.121   5
   2  -7   1 2023.70 206.081   3
  -2   7   1 2198.03 185.885   4
   2   7   2 8330.56 391.733   2
   2  -7   2 8157.99 309.188   6
  -2  -7   2 8215.74 243.679   5
   2   7   2 7884.10 369.322   4
   2  -7   2 7966.97 417.576   3
  -2   7   2 8088.94 371.380   4
  -2  -7   2 7933.74 412.474   3
  -2   7   3 26839.8 712.595   4
   2  -7   3 26893.7 608.171   6
   2   7   3 25915.6 698.330   4
  -2  -7   3 27029.5 810.848   3
   2  -7   3 26073.3 785.333   3
   2  -7   4 9565.97 499.904   3
   2   7   4 10379.2 473.447   4
  -2   7   4 9356.01 453.735   4
   2  -7   4 10386.0 407.827   6
  -2  -7   4 10439.5 537.281   3
  -2   7   5 1381.83 189.951   4
   2   7   5 1543.90 199.537   4
   2  -7   5 1514.25 214.722   3
  -2  -7   5 1502.92 220.572   3
   2  -7   5 1653.56 179.023   6
  -2   7   6 1680.49 222.317   4
  -2  -7   6 1268.59 211.112   3
   2  -7   6 1382.28 177.105   6
   2  -7   6 1220.82 199.249   3
   2   7   6 1250.32 194.443   4
   2   7   7 4749.60 400.863   4
  -2   7   7 4762.15 400.171   4
   2  -7   7 4997.52 364.336   6
   2  -7   7 4078.06 373.438   3
  -2  -7   7 4290.90 406.884   3
  -2   7   8 446.251 141.449   4
  -2  -7   8 672.122 181.988   3
   2  -7   8 536.371 141.715   3
   2  -7   8 708.707 153.713   6
   2   7   8 468.428 149.484   4
   2  -7   9 1107.11 201.753   6
  -2   7   9 825.139 192.554   4
  -2  -7   9 822.398 199.812   3
   2   7   9 1047.66 217.207   4
   2  -8  -9 783.133 201.321   5
   2   8  -9 568.234 153.421   1
   2  -8  -8 581.373 171.501   5
  -2  -8  -8 394.261 150.049   5
   2   8  -8 617.890 151.164   1
   2   8  -7 2344.41 262.511   1
   2  -8  -7 2534.20 320.131   5
  -2  -8  -7 2641.50 333.334   5
   2   8  -6 3668.27 307.127   1
  -2  -8  -6 3429.41 351.873   5
   2   8  -6 3312.33 258.930   2
   2  -8  -6 3480.95 344.417   5
   2  -8  -5 3744.47 333.258   5
   2   8  -5 4439.42 290.472   2
  -2  -8  -5 4028.12 358.105   5
   2   8  -4 10000.3 425.161   2
  -2  -8  -4 9737.85 521.506   5
   2  -8  -4 9763.53 507.534   5
   2  -8  -3 3247.74 273.435   5
  -2  -8  -3 3881.33 308.036   5
   2   8  -3 3379.85 242.989   2
   2  -8  -2 3363.88 218.956   6
  -2  -8  -2 3121.60 211.968   3
  -2  -8  -2 3205.58 262.032   5
   2  -8  -2 3250.65 254.443   3
   2  -8  -2 2658.99 233.641   5
  -2   8  -2 2815.94 170.690   2
   2   8  -2 2827.87 222.219   2
   2  -8  -1 13316.4 403.513   6
  -2  -8  -1 13762.4 478.408   3
   2  -8  -1 13676.6 488.697   5
  -2   8  -1 13589.0 411.737   2
   2   8  -1 14489.9 501.898   2
  -2  -8  -1 12934.1 490.496   5
   2  -8  -1 14354.0 541.273   3
   2   8   0 16211.3 544.024   2
  -2  -8   0 14977.3 531.743   3
  -2  -8   0 15438.0 487.836   5
   2  -8   0 15898.8 493.304   5
   2  -8   0 16156.2 427.050   6
   2  -8   0 14505.0 563.099   3
   2   8   1 12599.1 498.043   2
  -2  -8   1 13439.2 408.603   5
   2   8   1 14441.5 522.333   4
  -2   8   1 15039.7 530.769   4
   2  -8   1 13637.1 427.651   5
   2  -8   1 12833.7 542.470   3
   2  -8   1 13821.2 394.916   6
  -2  -8   1 13663.2 542.844   3
   2   8   2 3010.32 248.492   4
   2  -8   2 3347.48 200.153   5
   2  -8   2 3062.67 196.495   6
  -2   8   2 2911.58 240.408   4
   2   8   2 3433.07 272.048   2
   2  -8   2 3140.34 278.913   3
  -2  -8   2 3490.85 292.644   3
   2  -8   3 3250.67 299.875   3
   2   8   3 3208.12 268.683   2
   2  -8   3 3451.02 223.043   6
  -2   8   3 3360.28 269.828   4
   2   8   3 3536.81 277.298   4
  -2  -8   3 3173.64 298.015   3
   2  -8   4 10015.5 539.264   3
  -2  -8   4 9652.77 542.584   3
   2  -8   4 10129.0 413.265   6
   2   8   4 10077.2 487.367   4
  -2   8   4 10635.0 502.940   4
   2  -8   5 4693.57 303.768   6
   2   8   5 4425.97 343.832   4
  -2   8   5 4450.63 348.305   4
  -2  -8   5 4800.37 402.724   3
   2  -8   5 4468.20 376.219   3
   2   8   6 3697.73 339.597   4
  -2  -8   6 3383.70 361.061   3
  -2   8   6 3510.18 330.745   4
   2  -8   6 3118.08 334.119   3
   2  -8   6 3228.77 277.979   6
   2  -8   7 2668.30 322.353   3
  -2   8   7 2678.32 308.870   4
  -2  -8   7 2765.11 342.430   3
   2  -8   7 2545.73 262.717   6
   2   8   7 2756.18 316.140   4
  -2  -8   8 727.715 181.021   3
   2  -8   8 547.620 146.255   3
  -2   8   8 491.189 147.450   4
   2   8   8 676.295 181.309   4
   2  -8   8 548.761 125.697   6
  -2  -8   9 691.591 193.514   3
   2   9  -8 561.562 147.073   1
   2  -9  -8 625.217 175.418   5
  -2  -9  -8 909.604 211.036   5
   2  -9  -7 1637.81 261.115   5
   2   9  -7 1345.67 208.538   1
  -2  -9  -7 1371.05 247.507   5
   2  -9  -6 2575.26 308.196   5
  -2  -9  -6 2748.65 330.724   5
   2   9  -6 2959.51 281.073   1
   2  -9  -5 156.711 87.3414   5
  -2  -9  -5 377.961 121.479   5
   2   9  -5 254.951 85.5925   2
   2  -9  -4 8711.05 500.649   5
  -2  -9  -4 8511.52 505.543   5
   2   9  -4 8303.65 404.022   2
   2   9  -3 10122.6 440.694   2
   2  -9  -3 9402.87 489.888   5
  -2  -9  -3 10294.4 528.252   5
  -2  -9  -2 8032.53 365.190   3
   2  -9  -2 8168.07 428.443   3
  -2   9  -2 8153.35 315.999   2
   2  -9  -2 8632.75 438.838   5
  -2  -9  -2 8423.95 446.620   5
   2   9  -2 8270.81 401.822   2
  -2  -9  -1 17382.5 584.323   3
   2  -9  -1 18037.0 482.429   6
  -2   9  -1 17825.2 510.412   2
  -2  -9  -1 18221.9 613.206   5
   2   9  -1 17380.4 590.154   2
   2  -9  -1 17944.8 596.754   5
   2  -9  -1 19026.6 662.100   3
   2   9   0 344.328 97.8549   2
  -2  -9   0 202.658 68.0898   5
  -2  -9   0 279.775 89.1845   3
   2  -9   0 339.616 64.7792   6
   2  -9   0 130.857 63.3346   3
  -2   9   0 192.834 66.7813   2
   2  -9   0 177.060 66.5145   5
   2  -9   1 18929.2 704.026   3
  -2  -9   1 19045.0 522.188   5
   2  -9   1 18505.5 532.786   5
   2  -9   1 18504.6 471.122   6
   2   9   1 19382.4 647.298   4
  -2   9   1 18482.7 633.097   4
   2   9   1 18983.1 643.974   2
  -2  -9   1 17910.2 664.459   3
   2  -9   2 7930.03 327.045   5
   2   9   2 8841.20 454.696   2
   2   9   2 7818.88 423.800   4
  -2   9   2 8199.51 430.106   4
  -2  -9   2 8914.19 495.321   3
   2  -9   2 7981.08 324.148   6
   2  -9   2 8432.05 484.274   3
   2  -9   3 9591.58 531.973   3
  -2  -9   3 9412.32 534.038   3
   2  -9   3 10151.8 388.020   6
  -2   9   3 10693.9 509.359   4
   2   9   3 9558.53 481.408   4
   2   9   3 9223.08 484.120   2
   2   9   4 8323.03 464.927   4
   2  -9   4 8496.96 381.541   6
  -2   9   4 8651.70 479.459   4
  -2  -9   4 8028.70 520.551   3
   2  -9   4 8083.05 512.637   3
   2   9   5 144.376 68.6943   4
  -2   9   5 344.232 108.760   4
  -2  -9   5 377.995 133.755   3
   2  -9   5 137.368 86.1007   3
   2   9   6 2145.09 269.627   4
  -2  -9   6 2306.73 318.676   3
   2  -9   6 2413.86 313.262   3
  -2   9   6 2745.00 305.379   4
  -2  -9   7 1670.87 282.230   3
   2  -9   7 1366.58 244.474   3
   2   9   7 1194.65 211.246   4
  -2   9   7 1110.02 211.875   4
  -2   9   8 916.701 207.307   4
  -2  -9   8 511.750 178.549   3
   2   9   8 837.846 185.546   4
   2  -9   8 959.433 206.641   3
   2  10  -8 1584.35 237.647   1
   2  10  -7 1176.33 198.410   1
   2 -10  -7 957.084 212.142   5
  -2 -10  -7 1056.88 231.967   5
   2  10  -6 3285.02 303.368   1
  -2 -10  -6 2921.72 352.521   5
   2 -10  -6 3144.73 356.124   5
   2  10  -5 116.955 74.1091   2
   2 -10  -5 186.840 109.315   5
  -2 -10  -5-36.5535 60.2682   5
   2  10  -5-17.0774 50.3355   1
   2 -10  -4 1732.92 238.887   5
  -2 -10  -4 1634.98 237.062   5
   2  10  -4 1836.68 202.935   2
   2 -10  -3 5516.23 395.827   5
  -2 -10  -3 6598.70 444.275   5
   2  10  -3 6038.23 361.700   2
   2  10  -2 1693.25 196.216   2
   2 -10  -2 1737.80 210.990   3
  -2 -10  -2 1882.61 228.008   5
   2 -10  -2 1130.16 172.750   5
  -2 -10  -2 1514.55 175.594   3
  -2  10  -1 1283.94 150.368   2
   2 -10  -1 1194.03 167.319   5
  -2 -10  -1 1215.63 172.418   5
  -2 -10  -1 1262.72 169.879   3
   2 -10  -1 1222.79 180.635   3
   2  10  -1 1436.01 182.333   2
  -2  10   0 30.1393 35.3524   2
   2  10   0 50.0551 40.4826   2
   2 -10   0-38.8301 45.6355   5
  -2 -10   0-16.3709 43.5801   5
  -2 -10   0 134.698 82.0590   3
   2 -10   0 42.6503 60.1642   3
   2  10   1 1278.79 180.912   2
   2 -10   1 1155.84 146.276   5
   2 -10   1 1321.67 200.175   3
   2  10   1 1207.46 171.970   4
  -2  10   1 1659.53 197.251   4
  -2 -10   1 1207.24 189.135   3
  -2 -10   2 1633.35 223.390   3
   2 -10   2 1739.11 238.809   3
   2  10   2 1878.07 221.359   4
  -2  10   2 1642.01 208.002   4
   2  10   2 1675.54 216.973   2
   2  10   3 5728.15 400.702   2
   2  10   3 6287.39 414.326   4
   2 -10   3 5725.82 438.196   3
  -2  10   3 6144.63 409.889   4
  -2 -10   3 5795.74 441.640   3
   2  10   4 1879.10 245.746   2
  -2 -10   4 2048.13 280.859   3
   2 -10   4 1960.99 271.994   3
  -2  10   4 2383.20 269.229   4
   2  10   4 1594.85 218.649   4
   2  10   5-40.7970 54.1198   4
  -2  10   5-79.8598 84.8930   4
  -2 -10   5 66.3586 88.7271   3
   2 -10   5 7.80875 84.3932   3
  -2 -10   6 3015.86 365.378   3
   2 -10   6 2308.81 316.772   3
   2  10   6 3424.13 348.094   4
  -2  10   6 2953.33 326.262   4
   2 -10   7 1148.39 237.833   3
  -2 -10   7 1085.37 230.392   3
   2  10   7 1229.70 228.831   4
  -2  10   7 1069.58 210.521   4
   2 -10   8 1523.99 276.357   3
   2 -11  -7 427.427 167.862   5
  -2 -11  -7 88.9384 91.5545   5
   2 -11  -6 1719.03 279.860   5
  -2 -11  -6 2062.05 311.341   5
   2 -11  -5 380.058 143.214   5
  -2 -11  -5 313.650 139.028   5
   2  11  -4 4269.55 319.748   2
   2 -11  -4 4875.06 410.133   5
  -2 -11  -4 4761.71 419.731   5
   2 -11  -3 3394.38 329.912   5
   2  11  -3 3914.24 306.291   2
  -2 -11  -3 3874.03 358.945   5
   2 -11  -2 8425.78 486.897   3
  -2 -11  -2 8071.41 482.939   5
   2  11  -2 8080.87 442.234   2
   2 -11  -2 8748.30 497.136   5
  -2  11  -1 376.161 88.4016   2
   2 -11  -1 395.032 107.171   5
  -2 -11  -1 433.395 116.617   5
  -2 -11  -1 532.517 117.080   3
   2 -11  -1 409.995 118.661   3
   2  11  -1 409.085 109.820   2
   2 -11   0 588.156 124.953   5
  -2  11   0 526.070 116.270   2
  -2 -11   0 560.781 112.022   5
  -2 -11   0 450.890 117.614   3
   2 -11   0 588.863 145.041   3
   2  11   0 434.056 115.706   2
   2  11   1 557.901 132.520   2
  -2 -11   1 596.023 136.708   3
   2 -11   1 401.623 113.438   3
  -2  11   1 461.522 118.602   2
   2 -11   2 8495.28 543.330   3
   2  11   2 8012.88 487.628   2
   2  11   2 8812.29 505.934   4
  -2  11   2 8167.69 486.546   4
  -2 -11   2 7305.36 499.835   3
   2 -11   3 3918.97 379.654   3
   2  11   3 3817.70 344.047   2
   2  11   3 4079.25 352.130   4
  -2  11   3 3909.26 346.261   4
  -2 -11   3 4091.94 392.472   3
   2 -11   4 5089.91 455.516   3
   2  11   4 4535.06 384.939   4
  -2  11   4 4611.92 388.878   4
  -2 -11   4 3943.88 400.890   3
   2  11   4 4098.91 376.156   2
  -2  11   5 346.307 132.038   4
   2  11   5 184.821 93.7518   2
  -2 -11   5 258.604 119.112   3
   2 -11   5 308.835 130.195   3
   2  11   5 512.193 139.744   4
   2  11   6 2091.40 291.566   2
  -2 -11   6 1799.48 295.757   3
   2 -11   6 1567.70 272.682   3
  -2  11   6 1931.75 277.635   4
   2  11   6 1730.90 264.885   4
   2 -11   7 150.490 104.829   3
   2  11   7 298.379 132.046   4
  -2 -11   7 256.124 150.540   3
  -2  11   7 122.194 89.0806   4
   2 -12  -6 828.580 204.498   5
  -2 -12  -6 838.261 219.354   5
   2 -12  -5 10.5860 68.3381   5
  -2 -12  -5 29.9320 80.5740   5
  -2 -12  -4 1114.42 224.716   5
   2 -12  -4 1240.44 213.920   5
   2 -12  -3 2489.63 299.264   5
  -2 -12  -3 2247.19 286.030   5
   2  12  -3 2159.71 239.560   2
   2  12  -2 3294.43 298.800   2
   2 -12  -2 3091.08 315.282   5
  -2 -12  -2 3140.54 319.173   5
   2 -12  -2 3565.28 334.129   3
  -2 -12  -1 1105.80 181.610   5
   2 -12  -1 995.923 172.469   5
  -2 -12  -1 1537.34 214.518   3
   2 -12  -1 1102.93 191.042   3
   2  12  -1 951.214 166.286   2
   2 -12   0 5591.32 376.634   5
  -2  12   0 5343.20 360.153   2
   2 -12   0 6336.93 463.118   3
   2  12   0 5783.91 412.687   2
  -2 -12   0 5149.28 404.366   3
   2  12   1 1128.27 190.757   2
   2 -12   1 1373.67 227.449   3
  -2  12   1 1422.17 200.682   2
  -2 -12   1 896.974 184.694   3
   2  12   2 3053.08 312.907   4
   2 -12   2 3451.97 364.173   3
   2  12   2 3126.35 319.617   2
  -2 -12   2 2551.23 309.298   3
  -2  12   2 3927.36 359.845   4
   2 -12   3 2262.71 307.652   3
   2  12   3 2624.15 302.369   2
   2  12   3 2670.92 302.655   4
  -2  12   3 3032.55 324.702   4
  -2 -12   3 2400.34 318.416   3
   2  12   4 1013.72 199.775   2
   2 -12   4 1298.92 243.587   3
  -2 -12   4 1425.92 263.714   3
   2  12   4 1167.35 211.685   4
  -2  12   4 1179.58 211.878   4
  -2 -12   5 717.609 195.007   3
   2  12   5 299.905 110.406   4
  -2  12   5 252.197 121.093   4
   2 -12   5 120.168 82.5660   3
   2  12   5 137.999 99.6885   2
  -2 -12   6 315.885 120.252   3
   2  12   6 548.079 146.176   4
   2 -12   6 625.376 175.097   3
   2  12   6 634.777 167.199   2
  -2  12   6 342.695 140.901   4
  -2 -13  -5 3266.29 399.134   5
   2 -13  -5 3193.29 389.461   5
   2 -13  -4 2473.42 326.983   5
  -2 -13  -4 2868.27 357.823   5
   2  13  -3 3805.36 331.415   2
   2 -13  -3 3994.61 395.349   5
  -2 -13  -3 3771.67 387.359   5
   2 -13  -2 81.2311 84.9682   3
  -2 -13  -2 26.6816 54.7688   5
   2 -13  -2 127.585 48.6070   5
   2  13  -2 147.047 87.1284   2
   2  13  -1 523.051 135.903   2
   2 -13  -1 372.449 145.399   3
   2 -13  -1 419.041 116.760   5
   2 -13   0 3693.10 371.878   3
  -2 -13   0 3111.11 330.700   3
   2  13   0 3500.67 335.926   2
  -2  13   1 279.899 100.900   2
   2  13   1 379.514 122.557   2
  -2 -13   1 270.763 112.879   3
   2 -13   1 318.393 136.122   3
   2  13   2 364.582 115.500   2
  -2 -13   2 618.257 181.796   3
   2 -13   2 344.908 131.337   3
  -2  13   2 210.149 79.0717   2
   2 -13   3 3677.12 412.707   3
  -2  13   3 4048.69 395.489   4
   2  13   3 4220.88 398.554   4
  -2 -13   3 3852.49 417.087   3
   2  13   3 3691.97 374.411   2
   2  13   4 3093.18 355.254   2
   2  13   4 2942.03 342.548   4
   2 -13   4 2340.67 337.737   3
  -2  13   4 2070.43 287.659   4
  -2 -13   4 2337.26 342.765   3
   2  13   5 4088.04 422.380   2
   2  13   5 3335.94 376.028   4
  -2  13   5 3332.92 376.114   4
   2 -13   5 3028.58 395.967   3
  -2 -13   5 3644.64 444.356   3
   2 -14  -4 471.474 146.310   5
  -2 -14  -4 445.501 167.109   5
   2 -14  -3 1012.78 218.644   5
  -2 -14  -3 997.827 207.299   5
   2 -14  -2 3616.39 373.287   3
   2 -14  -2 4075.26 395.179   5
   2  14  -2 3796.77 356.039   2
   2 -14  -1 1295.55 227.073   3
   2  14  -1 1390.31 226.658   2
  -2 -14   0 1118.52 210.090   3
   2 -14   0 977.507 200.468   3
   2  14   0 949.081 180.928   2
   2  14   1 1435.48 237.794   2
  -2 -14   1 1300.16 240.015   3
   2 -14   1 1240.51 232.861   3
  -2 -14   2 3916.40 427.103   3
   2  14   2 3709.73 383.437   2
  -2  14   2 3626.25 360.869   2
   2 -14   2 3781.15 421.044   3
  -2  14   3 830.510 179.794   2
   2  14   3 1094.37 220.273   2
  -2 -14   3 762.362 204.495   3
   2 -14   3 848.102 200.767   3
  -2  14   3 920.451 204.768   4
   2 -15  -3 2037.21 307.915   5
   2 -15  -1 329.427 139.254   3
   2  15  -1 262.729 106.836   2
   2 -15   0 223.467 113.840   3
   2  15   0 169.771 99.7396   2
  -2 -15   1 242.313 147.100   3
   2 -15   1 132.495 95.0760   3
   2  15   1 13.5086 93.1854   2
  -2 -15   2 174.410 116.178   3
   3   0 -10-36.3708 64.5890   1
   3   0  -9 22.6682 53.0270   1
  -3   0  -8-17.4151 61.2050   5
   3   0  -8 68.9318 75.0554   1
  -3   0  -7-63.6624 61.3392   5
   3   0  -7 32.0198 47.5663   1
  -3   0  -6-40.3521 33.0373   8
  -3   0  -6 34.6778 48.0527   5
   3   0  -6-27.9212 27.6944   5
   3   0  -6-14.6536 36.8449   1
   3   0  -5-121.196 68.6059   2
   3   0  -5 4.75169 24.6576   5
   3   0  -5-20.3542 41.0664   1
  -3   0  -5-8.32645 42.5360   5
  -3   0  -5 35.5143 33.6747   8
  -3   0  -4-42.5959 37.9889   8
   3   0  -4 0.44413 40.6835   2
   3   0  -4-10.9959 24.0630   5
  -3   0  -4 16.8838 43.4636   5
  -3   0  -3-13.9663 29.8935   8
   3   0  -3 6.19780 33.0380   2
  -3   0  -2 26.9769 67.1865   8
   3   0  -2-0.29733 28.8851   2
   3   0  -1 2.51798 21.4678   6
  -3   0  -1 12.5271 28.9883   8
   3   0  -1-18.7818 24.6977   2
   3   0   0 2.08520 20.2769   6
   3   0   0 8.91634 23.1813   2
  -3   0   0-23.7582 33.3352   8
  -3   0   1-14.2906 31.6349   3
   3   0   1 12.6399 25.2649   6
   3   0   1-10.9540 18.2572   2
  -3   0   1 16.1426 10.6511   7
  -3   0   1 4.29271 23.3338   8
   3   0   1 21.2949 13.0370   7
  -3   0   2-17.0618 22.8271   8
  -3   0   2-26.6708 31.3444   3
   3   0   2 11.0813 26.2920   6
   3   0   2 1.28356 12.8899   2
   3   0   3 4.12709 14.6462   2
  -3   0   3 13.2287 31.4949   3
   3   0   3 29.5214 21.4437   3
   3   0   3 42.8608 38.9572   6
   3   0   4 1.53435 27.9628   6
   3   0   4 1.51419 16.8321   3
  -3   0   4-10.4929 29.9165   3
  -3   0   5-67.1561 57.2202   3
   3   0   5 18.7458 26.0502   3
   3   0   5-23.9929 56.7044   7
  -3   0   6-1.28966 43.8526   3
  -3   0   6 20.7702 47.7900   7
   3   0   6-22.8820 62.7924   7
  -3   0   7-69.2157 57.9549   3
   3   0   7-63.9546 47.6464   7
  -3   0   7-3.77504 54.9094   7
  -3   0   8-32.8261 52.5196   3
  -3   0   8-1.59902 66.9447   7
   3   0   9 30.4153 82.6021   7
  -3   0   9-29.3286 80.6783   7
  -3   0  10-138.048 96.2778   7
   3   0  10-308.318 134.538   7
   3   1 -10 286.046 121.535   1
   3  -1 -10 287.410 127.703   1
   3  -1  -9 26.6381 52.6602   1
   3   1  -9 99.1668 72.4942   1
   3  -1  -8 8693.54 488.550   1
   3   1  -8 8890.45 500.512   1
  -3   1  -8 8966.13 493.044   1
  -3  -1  -8 8148.72 508.055   5
  -3   1  -7 1286.09 150.832   8
   3   1  -7 1919.01 219.218   1
  -3   1  -7 1698.19 198.451   1
   3  -1  -7 1340.44 165.410   5
  -3  -1  -7 1606.00 216.398   5
   3  -1  -7 1281.92 172.225   1
  -3  -1  -6 17914.2 650.830   5
   3   1  -6 19132.0 620.672   1
  -3   1  -6 20040.3 619.841   1
  -3   1  -6 18746.1 544.631   8
   3   1  -6 18659.6 588.116   2
   3   1  -6 19783.1 511.987   5
   3  -1  -6 18872.4 602.579   1
  -3  -1  -6 19620.0 528.275   8
   3  -1  -6 19508.7 583.036   5
  -3   1  -5 23737.9 574.231   8
  -3   1  -5 22528.7 597.204   1
   3   1  -5 22987.8 627.151   1
   3   1  -5 22707.4 601.308   2
   3  -1  -5 22185.4 566.082   5
   3  -1  -5 22472.8 599.370   1
  -3  -1  -5 23117.5 547.940   8
   3   1  -5 21630.2 489.018   5
  -3  -1  -5 23149.3 685.923   5
   3   1  -4 2287.74 180.239   2
   3   1  -4 2117.44 136.619   5
   3  -1  -4 2114.42 161.482   5
   3  -1  -4 2000.13 163.920   1
  -3  -1  -4 2133.49 196.394   5
  -3   1  -4 2124.88 162.541   8
  -3  -1  -4 1905.12 149.106   8
  -3  -1  -3 10877.6 345.185   8
   3   1  -3 10791.2 350.007   2
  -3  -1  -3 9929.59 391.332   5
   3  -1  -3 10939.2 352.105   2
  -3   1  -3 10706.6 341.570   8
   3  -1  -3 10583.2 378.051   6
   3  -1  -2 2049.14 137.910   2
   3  -1  -2 1905.22 143.745   6
   3   1  -2 2019.91 140.580   6
   3   1  -2 1873.41 134.334   2
  -3  -1  -2 2055.34 146.007   8
  -3  -1  -2 2122.08 168.148   5
  -3   1  -2 1875.64 135.326   8
   3   1  -1 14360.5 331.365   6
  -3  -1  -1 14184.5 275.676   3
  -3   1  -1 14574.1 354.658   8
  -3  -1  -1 14202.2 373.397   8
   3  -1  -1 14576.6 318.136   2
   3   1  -1 14459.4 336.424   2
   3  -1  -1 13304.7 352.377   6
   3   1   0 10697.7 268.570   2
  -3   1   0 10968.8 291.966   8
   3   1   0 10714.5 268.895   6
   3  -1   0 10438.5 224.359   2
  -3  -1   0 11358.1 328.645   8
  -3  -1   0 10440.7 274.069   3
   3  -1   0 11073.9 301.696   6
  -3   1   1 14086.5 324.556   8
   3   1   1 14660.8 301.963   2
  -3  -1   1 14527.8 365.452   3
   3  -1   1 14603.3 216.847   2
   3   1   1 14407.7 328.463   6
  -3  -1   1 13997.9 371.962   8
   3  -1   1 14273.6 357.195   6
   3  -1   2 2140.12 129.653   3
   3   1   2 2145.82 120.846   2
  -3   1   2 2055.19 122.984   8
   3  -1   2 1935.47 118.073   7
  -3  -1   2 1998.92 120.821   7
  -3  -1   2 2020.49 154.022   3
   3  -1   2 2063.41 73.4230   2
   3  -1   2 2235.91 150.704   6
  -3   1   2 2142.91 153.539   3
   3   1   2 1923.06 130.921   6
   3  -1   3 11399.5 369.894   6
  -3  -1   3 10701.0 335.746   7
  -3  -1   3 10864.8 389.711   3
   3  -1   3 10949.1 340.513   7
   3  -1   3 11320.2 308.320   3
  -3   1   3 10623.5 372.862   3
   3  -1   3 11066.7 198.571   2
   3   1   3 10756.3 344.509   6
   3   1   4 1762.14 78.1216   3
   3  -1   4 1888.69 164.496   7
  -3  -1   4 1875.41 178.371   3
  -3   1   4 1822.87 167.284   3
   3  -1   4 1909.63 171.633   6
   3  -1   4 2066.34 142.552   3
  -3  -1   4 2048.86 172.109   7
   3  -1   5 22386.1 635.221   7
  -3   1   5 22301.8 637.765   3
  -3  -1   5 23247.5 677.159   3
  -3  -1   5 21973.6 629.736   7
   3  -1   5 22265.4 499.259   3
  -3   1   6 19229.4 637.776   3
  -3  -1   6 18712.8 643.559   7
   3  -1   6 18335.0 643.865   7
  -3  -1   6 18726.5 659.112   3
   3  -1   7 1704.67 220.156   7
  -3   1   7 1530.52 197.969   3
  -3  -1   7 1696.54 216.590   7
  -3  -1   7 1650.08 215.259   3
   3  -1   8 8644.78 536.008   7
  -3   1   8 7072.67 474.304   7
  -3  -1   8 8089.90 502.684   3
  -3  -1   8 7893.61 504.703   7
   3   1   8 7310.20 485.774   7
  -3   1   8 8675.42 493.661   3
  -3  -1   9 146.397 97.0484   7
   3   1   9 174.675 97.3093   7
  -3  -1   9 251.259 107.236   3
  -3   1   9-4.41539 83.0128   7
   3  -1   9 68.8128 71.6299   7
  -3   1  10 183.244 126.822   7
  -3  -1  10 120.229 93.9803   7
   3  -1  10 197.228 121.706   6
   3   1  10 257.616 124.640   7
   3  -1  10 43.7121 76.8965   7
   3   2 -10 451.100 151.322   1
   3  -2 -10 650.761 162.793   1
  -3  -2  -9 1051.57 202.393   5
   3   2  -9 746.445 164.326   1
   3  -2  -9 1055.23 195.545   1
  -3   2  -9 845.142 175.443   1
   3  -2  -8 2524.77 259.423   5
  -3  -2  -8 2880.38 315.808   5
   3   2  -8 3231.70 307.146   1
  -3   2  -8 2740.78 272.798   1
   3  -2  -8 2976.03 286.498   1
  -3   2  -7 162.020 68.7012   8
   3  -2  -7 31.8706 48.7020   5
  -3   2  -7 128.440 57.3779   1
  -3  -2  -7 63.0986 48.2150   5
   3  -2  -7 175.206 74.1678   1
   3   2  -7 235.563 85.0288   1
  -3  -2  -6 1388.04 143.493   8
  -3   2  -6 1047.20 133.027   8
   3   2  -6 963.373 135.885   2
   3  -2  -6 1224.66 156.549   5
  -3   2  -6 1199.07 153.145   1
  -3  -2  -6 1097.28 171.755   5
   3   2  -6 1038.40 156.528   1
   3  -2  -6 1076.06 147.852   1
   3   2  -5 6491.93 338.970   1
  -3   2  -5 6312.39 311.820   1
   3  -2  -5 5594.69 301.257   5
   3   2  -5 6736.14 328.375   2
  -3  -2  -5 6296.35 370.856   5
  -3  -2  -5 6216.39 286.656   8
   3   2  -5 6024.72 232.590   5
  -3   2  -5 6606.95 311.978   8
   3  -2  -5 5901.70 304.046   1
   3   2  -4 1329.96 99.5336   5
   3  -2  -4 1433.96 140.133   5
  -3   2  -4 1443.59 136.282   1
  -3  -2  -4 1381.85 132.024   8
   3  -2  -4 1216.93 124.044   1
  -3   2  -4 1425.10 139.851   8
  -3  -2  -4 1308.92 156.636   5
   3   2  -4 1319.82 135.602   2
  -3  -2  -3 12355.5 376.658   8
  -3  -2  -3 12475.8 446.316   5
   3  -2  -3 11867.8 407.707   6
   3  -2  -3 11678.1 336.041   1
  -3   2  -3 13491.6 396.392   8
   3   2  -3 12519.9 380.362   2
   3  -2  -2 10041.6 340.594   6
   3   2  -2 9527.99 290.880   6
  -3  -2  -2 10435.3 376.386   5
  -3  -2  -2 9783.23 177.304   3
  -3   2  -2 10146.0 321.292   8
  -3  -2  -2 9467.06 321.877   8
   3   2  -2 9453.63 311.044   2
   3   2  -1 15805.6 328.635   6
  -3   2  -1 15592.7 375.793   8
  -3  -2  -1 15274.7 411.622   8
  -3  -2  -1 16855.8 439.498   5
  -3  -2  -1 16085.4 296.502   3
   3   2  -1 16747.9 387.268   2
   3  -2  -1 16015.7 392.065   6
  -3  -2   0 5.46729 21.4052   3
   3   2   0 142.353 35.3348   6
  -3  -2   0-2.92805 29.5585   8
   3  -2   0-2.71608 13.6654   2
   3  -2   0 17.6502 26.6244   6
  -3   2   0 74.1000 34.9869   8
   3   2   0 9.97160 25.5652   2
   3   2   1 16294.8 330.689   6
   3  -2   1 16039.0 390.219   3
  -3   2   1 16373.4 290.293   4
   3   2   1 16463.4 291.601   4
  -3  -2   1 16124.3 404.043   3
  -3   2   1 15772.3 333.910   8
   3   2   1 16008.0 357.984   2
   3  -2   1 16045.0 386.224   6
  -3   2   2 9659.93 250.984   8
   3   2   2 10040.4 290.283   6
   3   2   2 9566.15 288.173   2
   3  -2   2 9951.76 313.450   3
   3  -2   2 10050.5 327.666   6
  -3  -2   2 8860.36 332.135   3
   3  -2   3 12185.4 375.277   7
  -3   2   3 12517.7 276.615   8
  -3   2   3 13052.5 414.984   3
   3   2   3 11987.8 360.438   6
  -3  -2   3 12261.1 375.362   7
   3  -2   3 12257.6 364.815   3
  -3  -2   3 12539.1 439.778   3
   3  -2   3 12684.3 399.737   6
   3  -2   4 1240.60 123.651   3
  -3   2   4 1306.58 141.904   3
  -3  -2   4 1313.13 157.333   3
  -3  -2   4 1297.97 143.230   7
   3  -2   4 1266.07 140.066   6
   3  -2   4 1124.48 130.939   7
   3  -2   5 6564.40 350.905   7
   3  -2   5 5984.24 288.554   3
  -3  -2   5 6444.76 347.830   7
  -3  -2   5 6464.85 369.513   3
  -3   2   5 5979.58 325.865   3
   3  -2   5 6155.35 333.557   6
   3  -2   6 1093.26 158.390   6
  -3   2   6 1172.83 158.603   3
  -3  -2   6 987.264 167.849   3
   3  -2   6 1088.52 132.758   3
  -3  -2   6 1718.23 199.559   7
   3  -2   6 1187.14 168.548   7
   3  -2   7 90.7339 78.1823   7
  -3   2   7 120.484 74.3591   3
  -3  -2   7 110.169 81.2915   3
  -3  -2   7 168.407 98.5235   7
  -3   2   8 2680.10 271.331   3
  -3  -2   8 2655.63 299.704   7
  -3  -2   8 2644.56 298.285   3
   3  -2   8 2242.49 270.105   7
   3  -2   9 808.272 182.434   7
   3  -2   9 914.234 183.857   6
  -3  -2   9 946.935 189.212   3
  -3   2   9 1042.22 212.302   7
   3   2   9 1063.55 200.428   7
  -3  -2   9 695.627 167.003   7
   3  -2  10 667.232 179.374   6
  -3  -2  10 562.681 160.529   7
   3   2  10 1038.36 226.037   7
  -3   2  10 465.977 161.152   7
   3  -2  10 933.405 225.310   7
   3   3 -10 548.513 143.221   1
   3  -3 -10 508.496 151.471   1
  -3   3  -9 1695.97 233.005   1
  -3  -3  -9 1256.96 228.425   5
   3  -3  -9 1820.83 240.524   1
   3   3  -9 1545.76 238.852   1
   3   3  -8 1277.24 209.392   1
   3  -3  -8 1366.85 199.981   5
  -3   3  -8 1136.19 177.206   1
  -3  -3  -8 1196.55 209.140   5
   3  -3  -8 1284.25 192.292   1
   3  -3  -7 1455.82 182.801   1
   3   3  -7 1616.84 187.144   2
  -3   3  -7 1499.32 186.288   1
   3  -3  -7 1426.12 192.387   5
  -3   3  -7 1546.44 175.641   8
  -3  -3  -7 1496.92 220.817   5
   3   3  -7 1406.58 190.006   1
   3   3  -6 2871.35 252.407   1
   3  -3  -6 2157.11 215.335   5
  -3   3  -6 2158.47 204.621   1
  -3  -3  -6 2365.64 254.152   5
  -3   3  -6 2206.34 202.759   8
   3  -3  -6 2271.46 204.537   1
   3   3  -6 2336.28 213.583   2
   3  -3  -5 34536.2 794.323   5
  -3  -3  -5 34604.6 690.655   8
  -3  -3  -5 35210.3 905.790   5
  -3   3  -5 35038.3 732.332   1
   3  -3  -5 35802.7 734.772   1
   3   3  -5 35771.1 766.284   2
   3   3  -4 6606.44 192.604   5
   3  -3  -4 6375.47 315.295   5
  -3  -3  -4 6115.74 353.947   5
  -3   3  -4 6413.20 279.218   1
  -3  -3  -4 6912.87 301.183   8
   3   3  -4 6207.67 298.580   2
   3  -3  -4 6453.41 278.277   1
   3  -3  -3 1607.87 150.892   5
  -3   3  -3 1693.08 125.614   1
  -3  -3  -3 1739.42 175.337   5
  -3  -3  -3 1661.90 149.919   8
   3  -3  -3 1823.94 166.710   6
   3   3  -3 1729.50 149.307   2
   3  -3  -3 1590.06 119.185   1
  -3  -3  -2 20668.4 552.018   5
  -3  -3  -2 20952.8 511.945   8
   3   3  -2 21297.0 486.380   2
   3  -3  -2 20808.6 360.120   1
  -3  -3  -2 20707.8 275.085   3
   3  -3  -2 21067.7 508.898   6
   3   3  -1 119293. 1091.81   2
   3   3  -1 116178. 843.881   6
  -3  -3  -1 118154. 1206.75   8
  -3  -3  -1 119026. 1214.58   5
   3  -3  -1 118744. 1118.08   6
  -3  -3  -1 116148. 875.569   3
  -3   3   0 27251.2 489.586   8
   3  -3   0 29162.8 569.641   3
  -3  -3   0 28125.1 501.808   3
   3   3   0 27430.2 516.737   2
   3  -3   0 28340.6 524.081   6
   3   3   0 27800.6 381.186   6
   3   3   1 117002. 1075.34   2
   3  -3   1 116873. 1160.18   3
   3   3   1 118545. 900.717   4
  -3   3   1 118905. 904.065   4
  -3   3   1 117931. 938.223   8
  -3  -3   1 117842. 1157.18   3
   3   3   1 116361. 850.722   6
   3  -3   1 119459. 1095.80   6
   3   3   2 20390.7 469.393   2
   3   3   2 20560.9 435.932   4
  -3   3   2 21003.3 441.752   4
   3  -3   2 20251.8 499.924   3
  -3  -3   2 20983.5 544.218   3
   3  -3   2 21777.7 492.477   6
   3   3   2 19820.9 398.427   6
  -3   3   2 21533.3 373.912   8
   3  -3   3 1632.37 151.097   3
   3  -3   3 1902.08 162.717   6
  -3   3   3 1654.38 96.1844   8
   3   3   3 1759.23 136.571   6
  -3  -3   3 1760.97 176.247   3
  -3   3   4 6258.16 311.585   3
   3  -3   4 5933.57 302.663   6
   3  -3   4 6138.15 303.831   3
  -3  -3   4 6478.63 360.437   3
   3  -3   5 34681.3 766.262   3
   3  -3   5 36845.5 826.427   6
  -3  -3   5 34493.8 827.809   7
  -3   3   5 35710.8 794.291   3
  -3  -3   5 36133.9 913.398   3
   3  -3   6 2430.97 215.464   3
  -3  -3   6 2371.97 252.239   3
   3  -3   6 2312.23 238.643   7
  -3   3   6 2105.43 208.012   3
  -3  -3   6 2597.75 251.829   7
   3  -3   6 2481.28 232.839   6
  -3   3   7 1347.58 180.295   3
  -3  -3   7 1657.75 223.683   7
  -3  -3   7 1176.69 191.242   3
   3  -3   7 1428.64 194.699   6
   3  -3   7 1272.93 197.985   7
  -3  -3   8 1426.41 219.497   7
  -3  -3   8 1114.60 202.362   3
   3  -3   8 973.053 190.056   7
   3  -3   8 1499.45 217.491   6
  -3  -3   9 1556.85 256.341   3
   3  -3   9 1478.28 234.302   6
  -3   3  10 568.656 157.443   7
   3   3  10 465.221 144.814   7
   3  -3  10 173.171 88.7541   6
  -3  -4 -10 950.956 221.168   5
  -3   4 -10 1169.54 206.651   1
   3  -4 -10 1434.37 240.566   1
   3  -4  -9 2012.29 255.016   1
   3  -4  -9 1571.90 237.504   5
  -3   4  -9 1775.05 242.362   1
  -3  -4  -9 1669.47 271.752   5
   3   4  -9 1834.45 260.978   1
  -3   4  -8 956.480 156.000   8
   3   4  -8 985.636 181.685   1
  -3  -4  -8 585.473 160.612   5
   3  -4  -8 635.195 131.037   1
  -3   4  -8 634.725 134.312   1
   3  -4  -8 371.384 110.851   5
  -3  -4  -7 365.394 114.881   5
  -3   4  -7 258.028 81.3084   8
   3  -4  -7 236.322 97.2574   5
   3  -4  -7 395.924 101.218   1
  -3   4  -7 457.366 106.711   1
   3   4  -7 257.268 88.2946   2
   3   4  -7 360.876 105.909   1
   3  -4  -6 10117.3 488.155   5
   3   4  -6 11354.0 503.625   1
  -3  -4  -6 10221.3 540.962   5
  -3   4  -6 10992.3 452.692   1
   3  -4  -6 10542.2 441.439   1
   3   4  -6 11033.0 459.024   2
  -3  -4  -5 6588.87 308.335   8
   3  -4  -5 6406.99 307.740   1
   3  -4  -5 6598.69 367.793   5
  -3  -4  -5 6683.07 409.819   5
  -3   4  -5 6489.36 312.808   1
   3   4  -5 6915.87 341.920   2
   3  -4  -4 1976.31 150.341   1
  -3   4  -4 2013.41 157.873   1
  -3  -4  -4 2048.34 170.792   8
   3  -4  -4 2097.52 192.972   5
   3   4  -4 2184.61 182.029   2
  -3  -4  -4 1688.43 196.284   5
   3  -4  -3 23434.7 600.171   6
  -3  -4  -3 22233.7 555.174   8
   3  -4  -3 22705.9 584.935   5
  -3  -4  -3 21846.0 636.614   5
  -3   4  -3 22668.1 443.628   1
   3   4  -3 22201.9 549.173   2
   3  -4  -3 22162.6 435.782   1
  -3  -4  -2 28004.9 665.400   5
   3  -4  -2 27616.3 600.456   6
  -3  -4  -2 27764.1 373.398   3
   3  -4  -2 28661.8 395.705   1
   3   4  -2 27640.2 585.886   2
   3  -4  -1 32178.7 604.163   6
  -3  -4  -1 34339.7 676.717   5
   3  -4  -1 32190.0 300.644   1
  -3  -4  -1 32026.7 508.077   3
   3   4  -1 32681.6 412.774   6
   3   4  -1 33212.7 622.034   2
   3   4   0 4069.57 216.509   2
   3  -4   0 3954.86 205.334   6
   3   4   0 4098.84 133.437   6
  -3  -4   0 4183.71 210.415   3
   3  -4   0 3865.10 227.333   3
  -3  -4   0 4024.75 214.356   5
   3   4   1 33257.9 426.928   6
   3   4   1 32589.0 620.099   2
   3   4   1 32529.9 542.879   4
  -3   4   1 33255.6 545.799   4
   3  -4   1 32623.9 667.964   3
   3  -4   1 32354.6 591.160   6
  -3  -4   1 33498.4 662.812   3
  -3   4   2 28641.0 452.141   8
   3   4   2 27834.5 594.820   2
  -3  -4   2 27586.2 661.823   3
  -3   4   2 28665.8 555.371   4
   3  -4   2 28784.7 591.698   6
   3  -4   2 28772.9 651.250   3
   3   4   2 27862.8 458.174   6
   3   4   2 28678.2 553.272   4
   3   4   3 22909.1 570.573   2
  -3  -4   3 23862.6 667.965   3
   3   4   3 22004.6 543.391   4
  -3   4   3 21859.9 546.297   4
   3  -4   3 23377.2 565.191   6
  -3   4   3 22680.3 362.258   8
   3  -4   3 22716.4 603.354   3
   3  -4   4 1823.91 180.660   3
  -3   4   4 2246.95 192.153   3
   3  -4   4 1694.36 167.724   6
  -3  -4   4 1871.48 203.898   3
  -3   4   5 6768.23 348.626   3
   3  -4   5 6450.64 357.574   3
  -3  -4   5 6556.58 409.547   3
   3  -4   5 7000.79 364.806   6
  -3   4   6 10641.4 466.553   3
   3  -4   6 10514.7 477.686   3
   3  -4   6 10861.1 495.047   6
  -3  -4   6 10588.0 548.252   3
   3  -4   7 420.879 115.702   6
   3  -4   7 439.305 113.248   3
  -3   4   7 322.114 90.2529   3
  -3  -4   7 446.117 131.304   3
   3  -4   8 486.736 121.662   6
  -3  -4   8 779.856 184.127   3
  -3  -4   9 1918.83 282.536   3
   3  -4   9 1503.44 233.969   6
  -3   5 -10 423.394 127.353   1
  -3  -5 -10 175.540 125.215   5
   3  -5 -10 395.406 125.513   1
   3  -5  -9 905.435 193.334   5
  -3   5  -9 587.374 139.976   1
  -3  -5  -9 373.419 135.884   5
   3  -5  -9 773.604 161.777   1
   3   5  -9 709.142 173.474   1
   3   5  -8 106.276 54.1109   2
  -3   5  -8 37.7044 42.9389   8
   3  -5  -8-71.2229 78.1191   5
   3   5  -8 250.499 99.2230   1
  -3  -5  -8 226.202 123.480   5
  -3   5  -8 73.2516 57.1971   1
   3  -5  -8 186.474 100.042   1
   3  -5  -7 745.934 156.295   5
  -3  -5  -7 749.538 168.920   5
  -3   5  -7 572.029 120.044   1
   3   5  -7 576.774 135.328   1
   3   5  -7 530.799 115.696   2
   3  -5  -7 466.039 104.227   1
   3  -5  -6 1053.05 170.999   5
   3   5  -6 1078.81 149.212   2
  -3  -5  -6 1169.85 195.642   5
   3  -5  -6 1456.91 168.993   1
  -3   5  -6 1265.41 157.692   1
   3   5  -6 1185.10 176.214   1
  -3  -5  -5 3177.29 291.527   5
   3  -5  -5 2901.22 257.321   5
  -3   5  -5 3007.02 213.779   1
   3  -5  -5 2829.16 204.590   1
   3   5  -5 2750.96 224.962   2
   3  -5  -4 74.3611 58.1658   5
  -3  -5  -4-38.2060 64.3035   5
  -3   5  -4 75.2557 35.3903   1
   3   5  -4 81.7941 50.4257   2
   3  -5  -4 52.6364 30.2081   1
  -3  -5  -3 1264.56 58.0141   3
   3  -5  -3 1107.98 142.690   5
  -3  -5  -3 1288.11 161.681   5
  -3   5  -3 1277.25 105.427   1
   3  -5  -3 1226.80 101.388   1
   3  -5  -3 1291.72 148.797   6
   3   5  -3 1519.51 149.744   2
  -3   5  -2 8605.11 164.164   2
  -3  -5  -2 8958.95 394.822   5
   3  -5  -2 8933.73 352.147   6
   3  -5  -2 9587.48 212.590   1
   3   5  -2 9348.23 358.012   2
  -3  -5  -2 9058.18 251.767   3
   3  -5  -1 12043.6 429.938   3
   3  -5  -1 11530.1 377.655   6
  -3  -5  -1 11770.9 417.707   5
  -3  -5  -1 11369.9 336.591   3
   3   5  -1 11491.4 390.195   2
   3   5   0 29142.9 296.366   6
   3  -5   0 29570.0 675.130   3
   3   5   0 30016.3 632.279   2
  -3  -5   0 29811.9 605.956   5
   3  -5   0 29720.3 582.835   6
  -3  -5   0 30557.1 617.591   3
   3   5   1 12046.8 410.899   2
   3  -5   1 11807.7 370.540   6
   3   5   1 11233.4 352.040   4
  -3   5   1 11341.5 354.740   4
   3   5   1 11506.1 231.250   6
   3  -5   1 11419.0 433.741   3
  -3  -5   1 11730.7 422.441   3
   3  -5   2 8326.56 381.938   3
   3   5   2 8471.51 358.971   2
   3   5   2 8881.47 250.559   6
   3   5   2 8938.17 338.879   4
  -3   5   2 9046.24 338.662   4
  -3  -5   2 9558.59 414.227   3
   3  -5   2 9206.46 345.002   6
   3   5   3 1401.07 147.330   4
  -3   5   3 1547.26 153.906   4
  -3   5   3 1190.00 91.0826   8
   3  -5   3 1379.18 146.869   6
  -3  -5   3 1159.88 153.553   3
   3  -5   3 1684.13 181.127   3
   3   5   3 1397.65 154.371   2
   3  -5   4-21.9702 33.4524   6
   3   5   4-50.6126 50.5292   4
  -3   5   4 46.4694 44.3371   4
  -3  -5   4-54.8973 74.1319   3
   3  -5   4-32.5200 46.9665   3
   3  -5   5 3003.61 265.310   3
   3  -5   5 3317.97 257.036   6
   3   5   5 2767.19 249.160   4
  -3   5   5 3081.83 261.255   4
  -3  -5   5 2907.01 284.852   3
  -3   5   5 3281.39 251.057   3
   3  -5   6 1294.67 176.898   6
  -3  -5   6 1293.58 209.839   3
   3  -5   6 1141.77 176.483   3
  -3   5   6 1248.45 165.219   3
  -3  -5   7 695.476 172.377   3
   3  -5   7 374.378 110.729   3
   3  -5   7 356.153 96.1373   6
   3  -5   8 52.6810 77.1394   6
  -3  -5   8 171.532 94.7660   3
   3  -5   9 750.084 172.795   6
  -3  -5   9 755.544 183.850   3
  -3  -5  10 803.377 218.536   3
  -3  -6  -9 3551.11 414.096   5
  -3   6  -9 3660.28 341.201   1
   3   6  -9 3592.27 370.056   1
   3  -6  -9 2786.31 341.943   5
  -3   6  -8 2479.58 261.042   1
   3  -6  -8 2862.73 276.794   1
   3  -6  -8 2471.77 302.997   5
   3   6  -8 3000.72 277.948   2
  -3  -6  -8 2980.58 358.377   5
   3   6  -8 2878.54 312.751   1
   3  -6  -7 1363.79 214.857   5
   3   6  -7 1382.77 183.264   2
   3   6  -7 1286.78 196.361   1
  -3  -6  -7 1503.82 243.979   5
  -3   6  -7 1182.12 164.507   1
   3  -6  -7 1210.40 166.539   1
   3  -6  -6 3868.54 335.130   5
  -3  -6  -6 4257.86 373.818   5
   3   6  -6 4574.85 337.304   1
  -3   6  -6 4060.64 275.048   1
   3  -6  -6 4282.35 280.822   1
   3   6  -6 4012.86 290.608   2
   3  -6  -5 10806.8 519.309   5
  -3   6  -5 10577.4 396.024   1
   3  -6  -5 10973.2 396.198   1
  -3  -6  -5 10629.6 556.844   5
   3   6  -5 11049.2 456.203   2
   3  -6  -4 3222.64 267.064   5
  -3  -6  -4 3731.48 309.999   5
  -3   6  -4 3349.30 195.825   1
   3  -6  -4 3272.88 188.830   1
   3   6  -4 3855.77 256.398   2
   3  -6  -3 10102.8 419.294   6
   3  -6  -3 10656.9 450.767   5
  -3  -6  -3 10242.3 476.980   5
  -3   6  -3 10436.3 291.612   1
   3  -6  -3 10284.1 273.839   1
   3   6  -3 10176.2 404.854   2
   3   6  -2 7123.69 329.354   2
   3  -6  -2 7989.09 368.050   5
  -3  -6  -2 7335.27 375.945   5
   3  -6  -2 7826.49 341.085   6
  -3   6  -2 7404.27 194.331   2
  -3  -6  -2 7765.92 265.842   3
   3  -6  -1 5187.54 263.735   6
   3   6  -1 5746.44 295.141   2
   3  -6  -1 5486.23 309.331   3
  -3  -6  -1 5233.53 295.915   5
  -3  -6  -1 5039.29 246.398   3
   3   6   0 8577.39 362.253   2
  -3  -6   0 8470.79 341.421   5
   3  -6   0 8775.00 396.337   3
  -3  -6   0 8863.89 361.254   3
   3  -6   0 8605.59 326.251   6
  -3  -6   1 5107.02 238.382   5
   3  -6   1 5279.69 318.241   3
   3   6   1 5476.08 275.109   4
  -3   6   1 5057.99 261.846   4
  -3  -6   1 5284.64 303.693   3
   3   6   1 5070.85 286.847   2
   3  -6   1 5295.97 259.315   6
   3   6   1 5039.60 131.747   6
   3  -6   2 7529.44 391.822   3
   3   6   2 7388.24 355.200   2
   3   6   2 6990.27 320.915   4
  -3   6   2 7655.61 336.555   4
   3   6   2 7585.92 222.202   6
  -3  -6   2 7335.31 382.621   3
   3  -6   2 7581.60 322.222   6
   3  -6   3 10225.2 473.267   3
   3   6   3 10389.5 440.057   2
   3   6   3 10033.5 407.950   4
  -3   6   3 9711.29 404.721   4
  -3   6   3 9795.61 286.526   8
   3   6   3 10227.2 315.673   6
  -3  -6   3 10709.4 499.085   3
   3  -6   3 10266.1 398.075   6
   3  -6   4 3331.09 280.365   3
  -3  -6   4 2983.25 282.534   3
   3   6   4 3680.05 268.584   4
  -3   6   4 3705.08 273.495   4
   3  -6   4 3462.28 248.060   6
   3  -6   5 11181.2 536.296   3
   3  -6   5 10814.7 469.444   6
  -3   6   5 10674.2 461.522   3
   3   6   5 10702.5 501.267   4
  -3   6   5 10666.8 499.944   4
  -3  -6   5 9763.50 541.054   3
   3  -6   6 4203.78 344.676   3
   3   6   6 3735.12 318.620   4
  -3   6   6 4363.44 343.429   4
  -3  -6   6 4198.81 376.667   3
  -3   6   6 4169.60 299.182   3
   3  -6   6 4366.56 324.479   6
  -3   6   7 1082.67 191.506   4
   3  -6   7 1064.92 175.531   6
   3   6   7 1127.74 193.948   4
  -3  -6   7 1290.87 228.100   3
   3  -6   7 1141.74 196.331   3
   3   6   8 2388.24 293.480   4
  -3  -6   8 2625.46 336.153   3
  -3   6   8 2300.31 295.590   4
   3  -6   8 2949.70 312.629   6
  -3   6   9 2933.54 354.588   4
  -3  -6   9 3485.93 408.564   3
   3   6   9 2872.07 348.783   4
   3  -6   9 3541.74 364.459   6
  -3  -7  -9 3005.68 389.520   5
   3  -7  -9 2615.28 349.593   5
   3   7  -9 2719.53 326.331   1
   3  -7  -8 1127.14 215.842   5
  -3  -7  -8 627.306 184.025   5
   3   7  -8 931.863 183.878   1
   3   7  -7 6077.88 425.966   1
   3  -7  -7 6404.98 476.626   5
  -3  -7  -7 6589.71 512.859   5
  -3   7  -7 6594.65 385.607   1
   3   7  -7 7048.75 410.316   2
   3   7  -6 743.424 144.570   1
   3  -7  -6 738.285 152.484   5
  -3  -7  -6 889.809 181.130   5
   3   7  -6 767.117 131.045   2
  -3   7  -6 765.816 120.697   1
   3  -7  -5 343.942 104.912   5
  -3  -7  -5 502.938 132.206   5
   3   7  -5 470.967 101.057   2
  -3   7  -5 371.295 79.5464   1
   3  -7  -4 3112.59 277.823   5
  -3  -7  -4 3114.17 293.448   5
  -3   7  -4 3160.50 190.356   1
   3   7  -4 3241.42 247.207   2
   3  -7  -3 3909.49 288.662   5
  -3  -7  -3 4007.62 314.318   5
   3  -7  -3 3736.80 261.439   6
   3   7  -3 3681.28 255.865   2
  -3   7  -2 392.886 54.6907   2
   3  -7  -2 401.131 97.8920   5
  -3  -7  -2 443.729 74.4153   3
   3  -7  -2 420.674 83.8976   6
   3   7  -2 401.892 88.5394   2
  -3  -7  -2 336.657 93.5416   5
   3  -7  -1 9880.75 443.644   3
   3  -7  -1 9605.53 371.245   6
  -3  -7  -1 9167.81 407.127   5
  -3  -7  -1 9668.58 370.649   3
   3  -7  -1 9832.78 407.734   5
   3   7  -1 10585.6 425.840   2
   3  -7   0 1132.62 127.660   6
  -3  -7   0 1211.27 140.255   5
   3  -7   0 1279.63 164.227   3
  -3  -7   0 1277.94 151.148   3
   3   7   0 973.444 134.342   2
  -3  -7   1 9817.55 352.474   5
   3   7   1 9723.80 399.048   4
  -3   7   1 9973.07 398.224   4
   3  -7   1 9684.59 362.975   6
  -3  -7   1 9663.36 436.738   3
   3  -7   1 8884.37 434.740   3
   3   7   1 10232.5 434.798   2
  -3  -7   2 232.568 84.9405   3
   3  -7   2 119.314 53.5544   3
   3   7   2 299.391 79.6866   4
  -3   7   2 499.581 95.8584   4
   3  -7   2 379.141 81.8350   6
   3   7   2 336.102 80.2560   2
   3   7   3 3775.03 283.483   2
   3   7   3 4224.07 280.230   4
  -3   7   3 3558.18 262.732   4
   3  -7   3 3867.52 311.136   3
   3   7   3 3700.24 185.111   6
  -3  -7   3 3715.86 306.939   3
   3  -7   3 3614.32 242.564   6
   3  -7   4 3073.49 287.858   3
   3   7   4 3693.04 280.963   4
  -3   7   4 3225.31 268.563   4
   3   7   4 3239.18 273.688   2
   3  -7   4 3326.60 249.823   6
  -3  -7   4 3213.01 307.061   3
   3  -7   5 508.591 107.630   6
  -3  -7   5 554.365 132.230   3
   3   7   5 533.890 119.799   4
   3  -7   5 546.886 134.717   3
  -3   7   5 333.774 92.3951   4
  -3   7   6 581.990 121.845   3
   3  -7   6 1021.98 159.650   6
   3   7   6 536.705 128.643   4
   3  -7   6 502.733 143.726   3
  -3  -7   6 569.027 148.454   3
  -3   7   6 748.088 149.180   4
   3   7   7 7358.31 491.100   4
  -3   7   7 7756.71 512.031   4
   3  -7   7 7840.01 475.209   6
  -3  -7   7 7068.91 538.321   3
   3  -7   7 6710.40 479.693   3
   3  -7   8 734.829 164.480   6
   3   7   8 1013.03 203.234   4
  -3  -7   8 935.453 208.587   3
   3  -7   8 700.084 180.161   3
  -3   7   8 1151.10 221.122   4
   3  -7   9 2266.41 291.957   6
  -3  -7   9 2407.23 351.440   3
   3   7   9 2174.72 313.455   4
  -3   7   9 3105.22 374.273   4
   3  -8  -8 5954.77 507.951   5
  -3  -8  -8 6559.45 560.813   5
   3   8  -8 5982.18 459.584   1
   3  -8  -7 844.861 196.867   5
   3   8  -7 953.994 163.807   2
   3   8  -7 854.419 172.772   1
  -3  -8  -7 443.510 148.679   5
   3  -8  -6 94.8784 71.7066   5
   3   8  -6 194.942 71.8176   2
   3   8  -6 336.677 104.712   1
  -3  -8  -6 374.703 146.331   5
   3  -8  -5 2434.63 277.367   5
   3   8  -5 2795.70 247.232   2
  -3  -8  -5 2896.85 311.507   5
   3   8  -4 4825.17 316.145   2
   3  -8  -4 5476.62 382.370   5
  -3  -8  -4 4735.13 383.684   5
   3  -8  -3 2336.82 235.970   5
  -3  -8  -3 2130.23 244.478   5
   3   8  -3 2086.42 200.985   2
  -3  -8  -2 11769.5 404.334   3
   3   8  -2 11823.0 476.461   2
   3  -8  -2 13040.7 536.409   3
   3  -8  -2 12040.0 448.379   6
   3  -8  -2 11375.3 488.522   5
  -3  -8  -2 12312.3 540.276   5
   3  -8  -1 1596.13 158.384   6
  -3   8  -1 1461.07 133.394   2
   3  -8  -1 1372.23 164.012   5
  -3  -8  -1 1186.91 157.322   5
   3  -8  -1 1524.23 188.322   3
   3   8  -1 1458.34 170.831   2
  -3  -8  -1 1728.52 172.988   3
   3  -8   0 1044.01 135.565   5
  -3  -8   0 1076.93 149.633   3
  -3  -8   0 1081.77 139.031   5
   3  -8   0 1019.69 123.327   6
   3  -8   0 1315.33 178.474   3
   3   8   0 1179.59 158.964   2
   3   8   1 1295.56 166.147   2
  -3  -8   1 1617.29 150.765   5
  -3  -8   1 1586.00 190.705   3
  -3   8   1 1619.93 175.611   4
   3  -8   1 1339.03 191.933   3
   3   8   1 1507.52 167.717   4
   3  -8   1 1654.08 156.847   6
   3   8   2 11128.6 492.861   2
   3  -8   2 12256.9 563.196   3
   3   8   2 11221.7 473.481   4
  -3   8   2 12100.5 489.354   4
   3  -8   2 10934.6 409.011   6
  -3  -8   2 11490.4 538.137   3
   3  -8   3 2371.77 260.125   3
   3   8   3 2351.16 237.199   2
   3   8   3 2717.20 241.838   4
  -3   8   3 2392.16 228.571   4
  -3  -8   3 2350.00 257.887   3
   3  -8   3 2733.30 218.507   6
   3  -8   4 4910.54 386.058   3
   3   8   4 4803.44 352.020   2
  -3  -8   4 5018.68 406.204   3
   3  -8   4 5198.51 318.494   6
   3   8   4 4929.18 339.893   4
  -3   8   4 5568.78 369.014   4
   3  -8   5 2753.90 301.634   3
   3  -8   5 2766.27 248.814   6
  -3  -8   5 2598.93 308.416   3
   3   8   5 2726.98 274.086   4
  -3   8   5 3088.90 292.070   4
  -3  -8   6 311.422 135.119   3
   3  -8   6 383.088 114.342   3
  -3   8   6 328.272 106.621   4
   3  -8   6 279.808 96.0845   6
   3   8   6 171.259 84.9843   4
  -3   8   7 547.598 136.335   4
   3   8   7 803.677 179.176   4
  -3  -8   7 615.780 183.213   3
   3  -8   7 534.895 132.342   6
   3  -8   7 571.879 140.828   3
   3  -8   8 6349.40 509.626   3
   3   8   8 6301.48 502.636   4
  -3   8   8 6608.51 517.892   4
   3  -8   8 6204.86 457.775   6
  -3  -8   8 6722.70 572.867   3
   3  -8   9 312.816 119.262   6
   3  -9  -8 1258.83 249.573   5
   3   9  -8 1566.39 241.240   1
  -3  -9  -8 1284.38 264.607   5
   3  -9  -7 1268.46 231.684   5
   3   9  -7 1046.37 189.165   1
  -3  -9  -7 712.683 179.595   5
   3  -9  -6 3718.99 376.212   5
  -3  -9  -6 3722.49 392.786   5
   3   9  -6 4001.65 340.530   1
   3   9  -6 3805.15 305.035   2
   3  -9  -5 595.524 143.672   5
  -3  -9  -5 550.683 145.908   5
   3   9  -5 786.446 139.645   2
   3  -9  -4 10109.5 546.672   5
  -3  -9  -4 9733.52 563.220   5
   3   9  -4 9589.72 462.307   2
   3  -9  -3 4686.23 351.321   5
  -3  -9  -3 4165.26 351.658   5
   3   9  -3 4049.67 299.490   2
   3  -9  -2 2235.78 201.176   6
   3  -9  -2 2656.92 249.710   5
   3  -9  -2 2203.20 233.483   3
  -3  -9  -2 2152.64 236.622   5
   3   9  -2 2296.45 222.239   2
   3  -9  -1 11918.7 440.463   6
   3  -9  -1 13061.2 572.204   3
   3  -9  -1 12745.5 517.307   5
  -3   9  -1 12640.0 417.503   2
  -3  -9  -1 11935.0 515.094   5
   3   9  -1 12627.4 522.087   2
  -3  -9  -1 12841.4 496.521   3
   3  -9   0 759.232 113.477   6
   3  -9   0 776.483 123.063   5
  -3  -9   0 858.722 144.221   3
   3  -9   0 572.159 122.032   3
  -3  -9   0 890.216 135.430   5
   3   9   0 883.220 143.480   2
  -3  -9   1 13111.9 572.214   3
   3   9   1 12284.2 537.037   2
   3  -9   1 13064.8 474.564   5
  -3  -9   1 12824.8 445.868   5
   3   9   1 11861.1 502.994   4
  -3   9   1 12958.4 528.941   4
   3  -9   1 13098.2 595.396   3
   3  -9   1 12628.1 440.905   6
   3  -9   2 2400.13 196.776   6
   3   9   2 1795.32 213.378   2
   3  -9   2 2388.11 194.898   5
  -3  -9   2 2438.92 266.264   3
   3   9   2 2422.48 234.773   4
  -3   9   2 2331.34 231.684   4
   3  -9   2 1842.64 234.946   3
   3  -9   3 4687.72 380.777   3
   3   9   3 4136.72 333.856   2
   3   9   3 4153.64 316.537   4
  -3   9   3 5070.24 349.703   4
   3  -9   3 4652.14 289.131   6
  -3  -9   3 4507.42 377.764   3
   3  -9   4 9882.45 571.940   3
  -3  -9   4 10251.1 598.997   3
   3   9   4 9350.64 516.809   2
   3   9   4 10170.0 519.352   4
  -3   9   4 10534.5 528.982   4
   3  -9   4 10302.0 453.944   6
   3   9   5 853.534 169.349   2
   3   9   5 683.926 147.930   4
   3  -9   5 811.503 131.875   6
  -3  -9   5 792.317 185.678   3
   3  -9   5 534.492 142.611   3
  -3   9   5 1009.24 182.488   4
   3  -9   6 3863.02 390.171   3
   3   9   6 3745.23 359.391   2
   3   9   6 3973.18 363.394   4
  -3   9   6 4243.18 376.613   4
  -3  -9   6 3569.89 392.545   3
   3  -9   6 3497.39 302.776   6
  -3  -9   7 749.678 202.142   3
  -3   9   7 949.926 200.007   4
   3   9   7 1125.17 211.264   4
   3  -9   7 840.289 196.966   3
  -3   9   8 1109.15 220.470   4
  -3  -9   8 1505.50 297.804   3
   3  -9   8 1464.65 258.801   3
   3   9   8 1247.16 232.451   4
   3  10  -8 1522.36 242.001   1
   3  10  -7 1714.84 241.291   1
   3 -10  -7 1318.17 249.397   5
  -3 -10  -7 1937.58 309.317   5
   3 -10  -6 156.047 105.500   5
  -3 -10  -6 123.416 90.4419   5
   3  10  -6 149.628 92.1137   1
   3 -10  -5 299.986 117.177   5
  -3 -10  -5 176.184 90.4355   5
   3  10  -5 227.374 79.2158   2
   3  10  -4 2520.72 247.070   2
  -3 -10  -4 3532.61 356.562   5
   3 -10  -4 2889.25 308.203   5
   3 -10  -3 9258.96 518.611   5
  -3 -10  -3 9474.13 548.479   5
   3  10  -3 9311.05 470.329   2
   3 -10  -2 2879.09 231.528   6
   3  10  -2 2809.44 260.213   2
   3 -10  -2 3231.01 300.263   3
   3 -10  -2 2866.44 278.100   5
  -3 -10  -2 2839.10 283.276   5
   3  10  -1 7680.92 433.506   2
   3 -10  -1 7407.47 419.082   5
  -3 -10  -1 6926.80 390.588   3
  -3 -10  -1 6980.18 413.371   5
   3 -10  -1 7291.27 452.190   3
   3  10   0 15027.4 611.679   2
  -3 -10   0 14941.3 615.203   3
  -3 -10   0 15185.3 563.797   5
  -3  10   0 14450.4 519.045   2
   3 -10   0 15109.1 659.448   3
   3 -10   0 16073.0 585.993   5
   3  10   1 7163.03 432.956   2
   3 -10   1 7180.38 373.835   5
   3 -10   1 6394.34 444.843   3
  -3 -10   1 7464.85 459.574   3
   3  10   2 2702.30 277.960   2
  -3 -10   2 2927.86 304.930   3
   3  10   2 3046.14 286.533   4
  -3  10   2 3394.64 298.918   4
   3 -10   2 2514.81 288.224   3
   3 -10   3 8678.46 547.575   3
   3  10   3 8560.70 502.744   2
   3  10   3 8564.82 480.937   4
  -3  10   3 9187.64 501.655   4
  -3 -10   3 9511.15 577.638   3
   3  10   4 3051.58 297.093   4
   3  10   4 2694.48 297.204   2
   3 -10   4 2626.99 316.403   3
  -3  10   4 2818.77 292.386   4
  -3 -10   4 2794.45 336.018   3
   3  10   5 306.199 110.167   4
  -3 -10   5 232.365 132.931   3
   3 -10   5 273.823 115.811   3
   3  10   5 342.995 119.613   2
  -3  10   5 189.738 75.4860   4
  -3  10   6 166.861 90.2596   4
   3  10   6 91.6436 113.782   2
   3  10   6 95.8473 71.3229   4
  -3 -10   6 116.685 94.4940   3
   3 -10   6 380.858 135.786   3
   3  10   7 1998.57 289.253   2
  -3 -10   7 1918.49 327.394   3
   3  10   7 1951.42 280.987   4
   3 -10   7 1653.26 278.265   3
  -3  10   7 1222.01 222.649   4
   3 -10   8 1702.06 291.071   3
   3 -11  -6 3976.95 414.943   5
   3  11  -6 4139.22 359.400   1
  -3 -11  -6 3575.28 411.752   5
   3 -11  -5 1295.36 221.104   5
  -3 -11  -5 1100.51 225.777   5
   3  11  -5 1061.13 172.285   2
   3  11  -4 260.040 84.9048   2
   3 -11  -4 51.9816 62.7331   5
  -3 -11  -4 311.621 118.440   5
   3 -11  -3 2664.59 298.197   5
  -3 -11  -3 2428.83 291.316   5
   3  11  -3 2711.58 269.738   2
   3 -11  -2 1048.00 181.869   5
   3 -11  -2 1107.41 191.030   3
  -3 -11  -2 1054.42 181.169   5
   3  11  -2 980.195 165.984   2
   3 -11  -1 1671.75 215.666   5
   3  11  -1 1636.81 213.335   2
  -3 -11  -1 1556.89 210.801   5
  -3 -11  -1 1666.44 204.645   3
   3 -11  -1 1605.95 221.211   3
  -3  11   0 198.900 74.8529   2
   3 -11   0 141.364 77.7619   5
  -3 -11   0 246.036 89.5615   3
   3 -11   0 121.027 92.7101   3
   3  11   0 137.253 72.1792   2
   3  11   1 1258.91 201.430   2
   3 -11   1 1885.12 200.529   5
   3 -11   1 1546.82 234.707   3
  -3 -11   1 2162.05 257.470   3
   3  11   2 1111.60 191.518   2
  -3 -11   2 1337.99 219.672   3
   3 -11   2 1165.00 217.673   3
   3  11   2 989.357 175.748   4
  -3  11   2 969.176 171.936   4
   3 -11   3 2852.67 340.321   3
   3  11   3 2695.29 288.810   4
  -3  11   3 3066.56 310.724   4
   3  11   3 2602.89 298.090   2
  -3 -11   3 3170.75 351.983   3
   3  11   4 370.848 158.168   2
  -3 -11   4 393.055 134.314   3
   3 -11   4 446.573 145.955   3
   3  11   4 251.870 105.541   4
  -3  11   4 424.931 117.028   4
   3  11   5 1017.56 196.542   2
  -3 -11   5 1133.55 246.401   3
   3 -11   5 972.493 206.909   3
   3  11   5 1078.17 197.840   4
  -3  11   5 987.755 178.583   4
   3 -11   6 3802.38 427.988   3
   3  11   6 3621.06 385.789   2
   3  11   6 3570.76 371.140   4
  -3  11   6 3486.66 371.152   4
  -3 -11   6 4034.45 448.491   3
   3 -11   7 528.649 185.104   3
   3  11   7 502.487 167.153   4
  -3 -12  -6 1021.98 248.103   5
   3 -12  -5 563.356 183.503   5
  -3 -12  -5 688.458 202.317   5
   3  12  -4 702.179 146.569   2
   3 -12  -4 619.932 156.040   5
  -3 -12  -4 888.027 200.632   5
   3  12  -3 780.445 151.327   2
   3 -12  -3 700.970 170.888   5
  -3 -12  -3 1175.49 213.479   5
   3  12  -2 2628.93 281.253   2
   3 -12  -2 2629.28 301.789   3
  -3 -12  -2 2877.34 312.498   5
   3 -12  -2 2366.43 279.227   5
   3 -12  -1 529.575 140.836   5
  -3 -12  -1 424.305 126.537   5
   3 -12  -1 583.891 151.483   3
   3  12  -1 405.806 120.995   2
   3  12   0 430.768 121.060   2
   3 -12   0 345.858 107.076   5
  -3 -12   0 265.050 102.177   3
   3 -12   0 375.704 119.269   3
   3  12   1 314.591 89.0822   2
  -3  12   1 382.781 109.815   2
  -3 -12   1 581.468 143.815   3
   3 -12   1 26.8339 67.5966   3
  -3 -12   2 2507.76 312.315   3
  -3  12   2 2737.88 303.259   4
   3  12   2 2820.93 309.263   2
   3 -12   2 2675.82 329.156   3
   3  12   3 737.908 166.248   2
  -3 -12   3 834.689 193.007   3
   3 -12   3 472.502 147.892   3
   3  12   3 692.782 166.535   4
  -3  12   3 583.525 149.759   4
   3  12   4 569.276 167.363   2
  -3 -12   4 1133.05 242.001   3
   3 -12   4 984.524 222.335   3
   3  12   4 627.951 156.272   4
  -3  12   4 759.904 169.545   4
   3  12   5 510.103 165.561   2
  -3 -12   5 285.203 118.439   3
   3 -12   5 116.132 99.3072   3
   3  12   5 472.970 142.532   4
  -3  12   5 565.287 148.704   4
   3 -12   6 600.946 188.667   3
   3  12   6 656.353 180.453   4
  -3  12   6 732.223 190.526   4
  -3 -13  -5 553.901 171.464   5
   3 -13  -4 166.602 114.516   5
  -3 -13  -4 145.886 108.123   5
   3  13  -3 586.569 146.027   2
   3 -13  -3 614.249 167.676   5
  -3 -13  -3 344.226 134.199   5
   3 -13  -2 217.227 98.9959   3
   3 -13  -2 209.666 94.8755   5
  -3 -13  -2 192.557 100.605   5
   3  13  -2 399.098 127.135   2
   3 -13  -1-19.1858 61.6377   3
   3 -13  -1 201.116 97.2656   5
   3  13  -1 54.9072 66.0274   2
  -3 -13   0 387.881 126.349   3
   3 -13   0 568.963 166.510   3
   3  13   0 948.338 187.231   2
  -3 -13   1 385.959 148.249   3
   3 -13   1 188.292 96.0932   3
   3  13   1 226.229 102.177   2
   3  13   2 215.398 125.365   2
  -3 -13   2 303.936 109.947   3
   3 -13   2 195.742 113.626   3
  -3 -13   3 466.146 151.430   3
   3 -13   3 450.813 159.396   3
   3  13   3 690.035 173.323   4
  -3  13   3 902.723 191.560   4
   3  13   3 568.396 158.448   2
   3 -13   4 126.911 114.067   3
   3  13   4 339.244 149.163   4
  -3  13   4 244.267 111.857   4
   3  13   4-14.9106 67.3544   2
  -3 -13   4 80.9755 88.5149   3
   3  13   5 505.280 145.624   4
  -3  13   5 269.266 126.254   4
  -3 -14  -4 7123.05 587.134   5
   3 -14  -3 2521.69 334.325   5
  -3 -14  -3 1865.54 295.707   5
   3  14  -3 1685.64 240.474   2
   3  14  -2 4475.82 393.054   2
   3 -14  -2 4785.42 437.702   5
   3  14  -1 3203.37 343.128   2
   3 -14  -1 3768.31 395.921   3
   3 -14   0 1072.20 214.866   3
   3  14   0 767.253 175.082   2
  -3 -14   1 3075.00 361.995   3
   3  14   1 3421.31 365.084   2
   3 -14   1 2475.64 341.343   3
  -3 -14   2 4134.47 436.652   3
   3 -14   2 4055.52 439.344   3
   3  14   2 4443.04 424.200   2
  -3  14   3 1951.26 279.440   2
  -3 -14   3 2094.91 329.258   3
   3 -14   3 2329.11 351.894   3
   3  14   3 2075.86 297.215   2
   3  15  -2 2552.35 314.707   2
   3 -15  -1 904.616 200.755   3
   3  15  -1 1195.79 224.575   2
   3 -15   0 11631.0 746.228   3
   3  15   0 12519.9 709.421   2
  -3 -15   2 2700.56 375.391   3
   4   0 -10 1442.43 235.278   1
   4   0  -9 760.250 168.366   1
   4   0  -8 2197.87 256.707   1
  -4   0  -7 4675.73 303.803   8
   4   0  -7 4753.30 344.906   1
   4   0  -6 5281.12 336.101   1
   4   0  -6 5248.83 293.182   5
  -4   0  -6 4886.47 299.623   8
  -4   0  -5 33100.2 738.948   8
   4   0  -5 31939.3 754.131   1
   4   0  -5 32676.9 763.651   2
   4   0  -5 34217.3 691.040   5
  -4   0  -4 21615.8 563.488   8
   4   0  -4 19979.4 554.234   2
  -4   0  -3 8078.80 330.293   8
   4   0  -3 8064.31 345.015   6
   4   0  -3 7714.92 318.876   2
   4   0  -2 33149.9 639.174   6
   4   0  -2 33540.8 602.442   2
  -4   0  -2 32952.0 639.694   8
  -4   0  -1 17199.3 451.995   8
   4   0  -1 17147.6 391.559   2
   4   0  -1 16950.9 425.192   6
   4   0   0 209.174 54.1830   6
   4   0   0 181.369 41.8423   2
  -4   0   0 137.467 38.7327   8
  -4   0   1 16655.0 212.064   7
  -4   0   1 17418.7 450.527   3
  -4   0   1 17006.0 442.992   8
   4   0   1 17537.2 427.276   6
   4   0   1 17788.1 343.076   2
  -4   0   2 31972.7 611.053   8
  -4   0   2 33386.2 466.145   7
  -4   0   2 33435.6 673.972   3
   4   0   2 34283.6 465.219   7
   4   0   2 32205.6 618.450   6
   4   0   2 32340.5 446.426   2
  -4   0   3 8247.49 289.739   7
  -4   0   3 7866.08 353.960   3
   4   0   3 8372.57 291.607   7
   4   0   3 7718.38 224.289   2
   4   0   3 8282.91 335.725   6
  -4   0   4 20770.5 619.020   3
   4   0   4 20106.9 384.879   3
   4   0   4 20811.2 535.883   7
  -4   0   4 20558.4 530.567   7
   4   0   4 19646.4 386.511   2
   4   0   4 19897.9 565.137   6
   4   0   5 32655.6 547.675   2
  -4   0   5 33365.1 850.914   3
  -4   0   5 34475.4 780.400   7
   4   0   5 34387.3 787.213   7
   4   0   5 34069.6 802.822   6
  -4   0   6 5079.92 334.985   7
  -4   0   6 5109.30 358.287   3
   4   0   6 4803.35 332.799   7
   4   0   6 5227.03 346.732   6
  -4   0   7 4763.73 372.197   3
   4   0   7 4872.36 366.765   7
   4   0   7 4748.07 355.048   6
  -4   0   7 4538.56 351.962   7
   4   0   8 2018.22 252.396   6
  -4   0   8 1845.17 250.633   3
  -4   0   8 1447.57 214.476   7
   4   0   8 2256.99 268.789   7
   4   0   9 708.260 168.838   6
  -4   0   9 491.577 141.644   3
  -4   0   9 538.067 152.656   7
   4   0   9 237.000 92.6821   7
  -4   0  10 965.488 212.324   7
   4   0  10 643.715 178.228   7
   4  -1 -10 366.485 126.972   1
   4   1  -9 1807.58 253.682   1
   4  -1  -9 1622.06 231.823   1
   4  -1  -8 181.878 97.5782   1
   4   1  -8 505.874 132.417   1
   4  -1  -7 726.271 138.605   1
  -4   1  -7 956.200 143.087   8
   4  -1  -7 810.004 137.243   5
  -4  -1  -7 796.545 159.836   5
   4   1  -7 1024.80 171.368   1
   4  -1  -6 8871.55 429.916   1
   4   1  -6 9613.64 371.441   5
   4   1  -6 10663.5 480.243   1
  -4  -1  -6 9959.42 517.981   5
  -4  -1  -6 8941.00 397.000   8
   4   1  -6 8713.08 426.820   2
   4  -1  -6 9137.00 410.850   5
  -4   1  -6 9191.90 411.673   8
   4  -1  -5 2325.14 202.479   1
   4   1  -5 2440.34 172.449   5
   4  -1  -5 2567.72 202.077   5
  -4  -1  -5 2491.03 240.884   5
  -4   1  -5 2350.73 198.552   8
  -4  -1  -5 2708.14 211.379   8
   4   1  -5 2586.79 218.576   2
  -4  -1  -4 10230.2 394.011   8
   4  -1  -4 9742.75 390.782   2
  -4   1  -4 10321.0 395.968   8
   4   1  -4 10256.7 401.971   2
   4   1  -3 1356.15 137.125   2
   4  -1  -3 1097.92 129.538   6
   4  -1  -3 1500.65 139.694   2
   4   1  -3 1126.77 127.314   6
  -4   1  -3 1192.39 132.788   8
  -4  -1  -3 1184.52 131.177   8
   4  -1  -2 42489.5 746.112   6
   4   1  -2 44327.4 719.132   6
  -4  -1  -2 43850.6 764.873   8
  -4   1  -2 42811.8 728.032   8
   4   1  -2 42267.5 696.581   2
   4  -1  -2 43439.7 685.237   2
   4  -1  -1 4587.01 227.764   6
   4  -1  -1 4382.74 194.343   2
  -4   1  -1 4371.17 224.863   8
  -4  -1  -1 4563.19 242.202   8
  -4  -1  -1 3974.70 178.490   3
   4   1  -1 4389.46 207.903   2
   4   1  -1 4086.29 204.822   6
   4  -1   0 2595.70 168.673   6
  -4   1   0 2564.64 165.816   8
   4  -1   0 2633.45 133.379   2
  -4  -1   0 2405.52 176.930   8
  -4  -1   0 2515.22 155.886   3
   4   1   0 2469.54 147.762   2
   4   1   0 2856.79 162.424   6
  -4   1   1 4141.63 209.047   8
   4  -1   1 4275.42 149.244   2
   4   1   1 4684.02 121.001   4
  -4   1   1 4499.43 123.279   4
  -4  -1   1 4253.33 233.215   8
  -4  -1   1 4666.02 232.241   3
   4   1   1 4489.49 188.902   2
   4   1   1 4263.37 205.000   6
   4  -1   1 4162.05 216.735   6
  -4  -1   2 43698.5 547.019   7
  -4  -1   2 43626.7 753.438   8
  -4  -1   2 43258.0 774.229   3
   4   1   2 43404.7 584.717   2
  -4   1   2 43954.6 673.741   8
  -4   1   2 42017.3 761.709   3
   4  -1   2 45001.9 425.943   2
   4   1   2 44006.8 700.944   6
   4  -1   2 44178.1 742.959   6
   4  -1   3 1106.27 103.216   3
  -4  -1   3 1278.20 117.141   7
  -4   1   3 1290.75 146.955   3
   4   1   3 1105.97 98.8883   2
  -4   1   3 1271.72 112.841   8
   4  -1   3 1251.53 70.5007   2
  -4  -1   3 1272.97 148.644   3
   4  -1   3 1176.27 113.298   7
   4   1   3 1140.93 123.728   6
   4  -1   3 1213.32 135.281   6
   4  -1   4 9774.25 312.873   3
   4  -1   4 9743.45 217.502   2
   4   1   4 10599.0 407.081   6
   4   1   4 9947.55 312.226   2
  -4  -1   4 9814.44 437.050   3
  -4   1   4 9949.52 423.185   3
   4  -1   4 9733.97 404.827   6
  -4  -1   4 9719.68 371.694   7
   4  -1   4 9793.25 372.837   7
   4  -1   5 2439.38 164.560   3
   4  -1   5 2419.07 211.573   7
  -4  -1   5 2342.90 206.977   7
  -4  -1   5 2625.35 245.059   3
  -4   1   5 2288.88 221.478   3
   4   1   5 2133.17 159.363   2
   4   1   5 2615.39 225.267   6
   4  -1   5 2332.03 215.240   6
   4  -1   6 9320.00 461.684   6
  -4   1   6 9378.12 477.393   3
   4  -1   6 9526.76 468.892   7
   4   1   6 10328.2 479.740   6
  -4  -1   6 9162.11 491.191   3
  -4  -1   6 9406.79 460.230   7
   4   1   7 942.015 167.575   6
   4   1   7 666.127 142.909   7
   4  -1   7 898.109 160.480   6
  -4   1   7 722.549 149.169   3
  -4  -1   7 754.417 152.973   3
  -4  -1   7 742.874 151.347   7
   4  -1   7 695.631 143.006   7
  -4   1   7 944.529 164.903   7
   4   1   8 660.075 150.534   6
   4  -1   8 449.362 126.342   6
  -4   1   8 413.312 111.291   3
  -4  -1   8 375.319 122.829   3
  -4   1   8 487.291 148.391   7
   4   1   8 325.868 126.632   7
  -4  -1   8 387.808 122.896   7
   4  -1   8 291.073 100.132   7
   4  -1   9 1851.63 267.365   7
   4   1   9 1745.62 254.091   6
   4  -1   9 1723.06 252.403   6
   4   1   9 1646.63 259.618   7
  -4  -1   9 1559.43 251.804   3
  -4   1   9 1641.29 250.814   7
  -4  -1   9 1967.84 281.989   7
   4  -1  10 281.510 134.791   7
  -4  -1  10 469.856 142.643   7
  -4   1  10 292.695 120.225   7
   4   1  10 402.652 168.996   7
   4  -2 -10 279.476 118.576   1
   4  -2  -9 588.443 150.744   1
  -4  -2  -9 634.437 165.105   5
   4   2  -9 244.352 80.8563   1
   4   2  -8 982.733 179.947   1
   4  -2  -8 1287.77 198.295   1
  -4  -2  -8 1187.96 218.099   5
  -4   2  -7 2993.37 259.631   8
   4   2  -7 2398.12 251.068   1
   4  -2  -7 2903.41 263.370   5
  -4  -2  -7 2511.79 282.602   5
   4   2  -7 2933.22 270.248   2
   4  -2  -7 2704.55 254.045   1
  -4  -2  -6 4479.64 284.472   8
  -4   2  -6 4626.76 303.934   8
   4  -2  -6 4502.38 302.792   5
   4   2  -6 4805.75 331.661   1
  -4  -2  -6 4179.68 343.508   5
   4   2  -6 4700.53 315.743   2
   4  -2  -6 4893.89 315.595   1
   4   2  -5 20992.7 623.453   2
   4  -2  -5 21233.0 590.991   1
  -4   2  -5 21618.4 618.767   8
   4   2  -5 22052.3 477.237   5
   4  -2  -5 22146.2 621.904   5
  -4  -2  -5 21543.0 728.932   5
  -4  -2  -5 20960.6 589.194   8
   4  -2  -4 9342.02 357.602   1
  -4  -2  -4 9896.27 465.741   5
  -4   2  -4 9835.45 398.355   8
   4   2  -4 9956.16 399.611   2
  -4  -2  -4 10258.6 400.352   8
   4  -2  -3 12024.0 440.202   6
  -4   2  -3 11771.1 412.396   8
  -4  -2  -3 10581.7 395.047   8
  -4  -2  -3 11062.9 194.322   3
  -4  -2  -3 10973.8 459.771   5
   4   2  -3 11234.0 394.598   2
   4  -2  -2 53767.7 858.939   6
   4   2  -2 54637.0 770.940   6
  -4  -2  -2 53925.2 876.040   8
  -4   2  -2 55294.5 841.679   8
  -4  -2  -2 54177.9 556.813   3
   4   2  -2 55868.6 822.151   2
   4  -2  -2 54364.3 768.009   2
   4   2  -1 21939.2 451.472   6
   4   2  -1 22660.7 496.073   2
  -4  -2  -1 21633.1 553.707   8
   4  -2  -1 22805.8 527.726   6
  -4   2  -1 21762.8 505.233   8
  -4  -2  -1 22291.2 417.708   3
   4  -2  -1 23273.4 444.261   2
  -4  -2   0 9360.48 361.461   8
  -4   2   0 8585.51 301.922   8
  -4  -2   0 8528.62 290.879   3
   4  -2   0 8571.72 317.166   6
   4  -2   0 8939.88 239.003   2
   4   2   0 8690.27 293.147   2
   4   2   0 8187.94 268.666   6
   4   2   1 22286.2 463.054   2
  -4  -2   1 22777.1 563.044   8
   4   2   1 22480.5 325.695   4
  -4   2   1 22804.5 330.839   4
  -4   2   1 21691.1 467.029   8
  -4  -2   1 22296.6 523.212   3
   4  -2   1 22120.6 308.769   2
   4   2   1 22463.4 456.429   6
   4  -2   1 22719.7 518.136   6
   4  -2   2 53891.5 784.349   3
   4   2   2 55187.3 736.999   2
   4   2   2 53202.5 634.218   4
  -4   2   2 53518.4 644.737   4
  -4   2   2 54403.5 727.332   8
  -4  -2   2 54901.4 905.990   3
   4  -2   2 51949.5 341.211   2
   4   2   2 54191.0 762.188   6
   4  -2   2 55145.7 849.218   6
   4  -2   3 11161.1 366.597   3
  -4   2   3 12009.9 441.237   3
   4   2   3 10503.3 336.756   2
  -4   2   3 11184.6 322.275   8
  -4  -2   3 11449.0 449.113   3
   4   2   3 11262.8 378.394   6
   4  -2   3 11368.1 409.098   6
   4   2   4 10216.8 350.927   2
  -4   2   4 9455.89 412.860   3
   4   2   4 10112.1 393.770   6
   4  -2   4 10115.6 362.633   3
   4  -2   4 9109.74 398.879   6
  -4  -2   4 10579.0 464.293   3
   4  -2   4 10136.6 393.020   7
  -4  -2   4 10157.5 388.762   7
  -4  -2   5 21252.4 707.835   3
   4  -2   5 20652.5 537.308   3
  -4   2   5 20324.3 650.687   3
   4  -2   5 21936.6 647.605   7
  -4  -2   5 20018.1 617.753   7
   4   2   5 20969.8 624.467   6
   4  -2   5 21476.7 660.546   6
  -4  -2   6 3983.06 332.850   3
  -4   2   6 4398.81 325.216   3
  -4  -2   6 4554.50 326.995   7
   4  -2   6 4353.75 320.129   7
   4   2   6 4767.48 326.140   6
   4  -2   6 4471.79 325.518   6
   4   2   7 2798.22 271.344   6
  -4   2   7 2578.92 265.969   3
  -4  -2   7 2576.67 272.057   7
   4  -2   7 2431.78 263.709   7
  -4  -2   7 2554.71 289.072   3
   4  -2   7 2729.76 273.578   6
   4   2   8 1469.40 213.379   6
   4  -2   8 1388.65 214.015   6
  -4   2   8 1275.49 200.926   3
  -4  -2   8 1379.89 224.548   3
  -4  -2   8 1149.60 199.036   7
   4  -2   8 995.175 188.013   7
   4   2   9 449.064 137.795   6
   4  -2   9 129.075 77.6172   6
  -4   2   9 358.584 138.645   7
  -4  -2   9 408.556 142.938   3
  -4  -2   9 526.925 144.905   7
   4   2   9 496.744 142.818   7
   4  -2   9 352.099 136.004   7
   4  -2  10 261.522 150.391   7
  -4  -2  10 287.537 131.551   7
  -4   2  10 263.892 108.634   7
   4   2  10 454.980 162.446   7
   4  -3 -10 343.294 124.639   1
   4  -3  -9 1483.25 223.537   1
  -4  -3  -9 1552.39 265.793   5
   4   3  -9 1266.03 217.892   1
   4  -3  -8 3949.53 342.219   5
  -4   3  -8 4462.25 335.436   8
  -4  -3  -8 3368.97 362.598   5
   4  -3  -8 3994.62 334.030   1
   4   3  -8 3725.87 344.690   1
   4  -3  -7 319.037 98.9939   1
  -4   3  -7 344.367 98.4678   8
   4   3  -7 566.273 122.559   2
   4  -3  -7 110.105 62.1950   5
   4   3  -7 447.550 115.639   1
  -4  -3  -7 493.491 154.270   5
   4  -3  -6 4347.50 292.601   1
  -4  -3  -6 4109.13 274.234   8
   4  -3  -6 4344.94 312.973   5
  -4  -3  -6 4850.25 383.253   5
   4   3  -6 4616.06 332.346   1
   4   3  -6 4603.23 315.636   2
  -4   3  -6 4165.13 296.295   8
  -4   3  -5 3286.15 248.855   8
   4  -3  -5 2914.15 239.705   5
  -4  -3  -5 3253.48 291.409   5
  -4  -3  -5 3024.89 229.882   8
   4   3  -5 3392.84 253.051   2
   4  -3  -5 2694.91 210.099   1
  -4   3  -4 1599.34 164.981   8
  -4  -3  -4 1154.33 139.979   8
   4  -3  -4 1550.99 167.618   5
  -4  -3  -4 1273.55 174.587   5
   4   3  -4 1497.84 157.019   2
   4  -3  -4 1358.76 136.680   1
   4  -3  -3 5095.57 294.720   6
   4   3  -3 5460.00 283.655   2
  -4  -3  -3 5064.62 286.532   8
   4  -3  -3 4795.95 222.705   1
  -4  -3  -3 5043.57 320.171   5
  -4   3  -3 5706.95 294.842   8
   4  -3  -2 15996.6 487.200   6
   4   3  -2 16044.8 407.676   6
  -4  -3  -2 16526.9 544.353   5
  -4  -3  -2 16359.5 311.255   3
  -4  -3  -2 15850.0 498.051   8
  -4   3  -2 16730.8 477.467   8
   4   3  -2 16397.2 469.879   2
   4   3  -1 32754.8 532.237   6
  -4  -3  -1 32340.5 707.391   8
  -4  -3  -1 32605.6 527.201   3
  -4   3  -1 32966.1 634.710   8
   4   3  -1 31822.5 623.833   2
   4  -3  -1 32966.0 657.623   6
   4  -3   0 422.021 76.4681   6
  -4   3   0 500.800 78.1321   8
  -4  -3   0 349.915 63.1386   3
  -4  -3   0 491.014 91.3369   8
   4   3   0 381.306 69.3435   2
   4   3   0 343.510 52.4123   6
   4  -3   1 33375.8 668.328   3
   4   3   1 32935.8 610.901   2
   4   3   1 33324.6 473.226   4
  -4   3   1 32286.4 469.023   4
  -4   3   1 32791.7 577.726   8
  -4  -3   1 31958.6 654.708   3
   4   3   1 32834.7 529.981   6
   4  -3   1 32500.1 644.092   6
   4  -3   2 16275.8 470.968   3
  -4   3   2 15990.9 388.634   8
   4   3   2 16633.6 443.904   2
   4   3   2 16191.1 405.116   6
  -4  -3   2 16099.2 508.080   3
   4   3   2 16102.1 379.796   4
  -4   3   2 16364.9 384.932   4
   4  -3   2 15973.4 469.868   6
  -4   3   3 5471.93 301.352   3
   4  -3   3 5405.92 279.707   3
   4   3   3 4712.15 246.705   2
   4   3   3 4466.84 231.322   4
   4  -3   3 4767.17 271.816   6
  -4  -3   3 5278.60 315.694   3
  -4   3   3 5075.22 211.171   8
   4   3   3 5166.60 251.309   6
   4  -3   4 1204.07 148.491   6
  -4   3   4 1342.83 100.550   8
  -4  -3   4 1241.23 173.442   3
   4   3   4 1213.25 135.157   2
   4  -3   4 1209.70 138.669   3
   4   3   4 1346.11 143.296   6
  -4   3   4 1377.83 162.491   3
   4  -3   5 3042.67 227.801   3
  -4  -3   5 2890.25 273.089   3
  -4   3   5 3067.10 252.622   3
   4  -3   5 2903.20 244.968   6
   4   3   5 2803.17 226.881   6
   4  -3   6 4618.77 294.918   3
  -4   3   6 4176.13 314.861   3
  -4  -3   6 4663.09 367.368   3
   4   3   6 4616.45 318.571   6
   4  -3   6 5121.51 356.030   6
   4  -3   7 584.593 134.929   6
  -4   3   7 335.727 93.5582   3
  -4  -3   7 272.814 105.030   3
  -4  -3   8 4038.28 390.406   3
  -4   3   8 3956.23 342.916   3
   4  -3   8 4139.76 371.542   6
   4   3   9 1825.80 257.925   6
   4  -3   9 1375.36 231.688   6
  -4  -3   9 1273.96 236.579   3
  -4  -3  10 829.390 209.553   3
  -4   3  10 603.197 176.723   7
   4   3  10 559.935 165.362   7
   4  -4 -10 1235.13 220.586   1
  -4  -4 -10 1306.62 260.022   5
  -4  -4  -9 3849.19 422.255   5
   4   4  -9 4104.80 389.298   1
   4  -4  -9 4092.83 362.705   1
   4   4  -8 3334.83 332.667   1
   4  -4  -8 3241.95 328.157   5
  -4  -4  -8 2970.93 347.441   5
   4  -4  -8 3316.18 299.775   1
  -4   4  -8 3034.87 284.632   8
   4   4  -8 3267.96 299.698   2
   4  -4  -7 1253.51 176.592   1
  -4   4  -7 1332.28 183.389   8
   4  -4  -7 912.234 160.984   5
   4   4  -7 1079.39 168.238   2
  -4  -4  -7 1489.47 232.852   5
   4   4  -7 1276.62 194.429   1
  -4   4  -6 10571.2 483.258   8
   4  -4  -6 10962.5 520.953   5
   4   4  -6 10636.2 480.437   2
  -4  -4  -6 10751.8 581.761   5
   4  -4  -6 10745.7 450.783   1
  -4  -4  -5 2490.06 215.403   8
   4  -4  -5 2304.72 226.575   5
  -4  -4  -5 2145.32 250.105   5
  -4   4  -5 2142.48 205.532   8
   4  -4  -5 2181.82 185.009   1
   4   4  -5 2634.53 231.316   2
   4  -4  -4 333.709 73.1526   1
  -4  -4  -4 349.750 83.0515   8
   4  -4  -4 332.444 82.8940   5
  -4  -4  -4 308.421 95.0518   5
   4   4  -4 492.084 105.066   2
   4  -4  -3 951.009 95.2447   1
   4  -4  -3 900.476 129.538   6
  -4  -4  -3 807.973 137.320   5
   4   4  -3 765.034 112.077   2
  -4  -4  -3 786.845 122.444   8
   4  -4  -2 12915.9 447.570   6
  -4  -4  -2 13023.2 474.958   8
  -4  -4  -2 12510.5 289.993   3
   4  -4  -2 12240.3 284.394   1
  -4  -4  -2 12864.3 493.357   5
   4   4  -2 12861.0 435.167   2
   4   4  -1 86584.0 1082.57   2
   4   4  -1 88116.9 818.632   6
  -4  -4  -1 85705.4 1191.32   5
  -4   4  -1 89672.2 1089.44   8
  -4  -4  -1 85733.0 918.082   3
   4  -4  -1 86662.6 1110.00   6
   4  -4   0 616.156 104.010   3
   4  -4   0 439.780 79.7259   6
   4   4   0 528.517 63.2174   6
  -4  -4   0 564.644 87.4490   3
  -4   4   0 488.443 82.2667   8
   4   4   0 354.459 79.5244   2
   4  -4   1 88051.7 1167.33   3
  -4   4   1 85222.6 960.193   8
   4   4   1 88636.0 1086.25   2
   4   4   1 87119.5 883.908   4
  -4   4   1 87725.4 878.874   4
  -4  -4   1 88389.2 1152.49   3
   4   4   1 86657.7 818.267   6
   4  -4   1 86424.2 1087.60   6
   4  -4   2 12312.8 446.433   3
   4  -4   2 14235.7 456.275   6
   4   4   2 13055.3 426.776   2
   4   4   2 12793.8 369.998   4
  -4   4   2 13350.2 378.080   4
   4   4   2 12811.1 348.835   6
  -4   4   2 12587.2 351.680   8
  -4  -4   2 12785.8 474.378   3
   4   4   3 793.835 117.629   2
  -4   4   3 844.459 86.8813   8
  -4  -4   3 1170.79 160.149   3
   4  -4   3 742.072 115.990   6
   4  -4   3 949.617 132.797   3
   4   4   3 769.163 104.628   4
  -4   4   3 848.593 107.918   4
   4   4   3 938.039 105.789   6
   4   4   4 325.669 71.3801   6
  -4   4   4 436.556 88.1556   4
   4   4   4 323.911 77.8601   4
  -4   4   4 467.092 102.296   3
   4   4   4 251.628 75.1623   2
  -4  -4   4 630.139 137.489   3
   4  -4   4 263.157 77.2430   6
   4  -4   4 317.636 79.8336   3
   4  -4   5 2577.20 230.508   3
  -4   4   5 2288.96 224.835   3
   4   4   5 2178.83 203.718   2
  -4  -4   5 2527.91 265.733   3
   4   4   5 2106.10 197.681   6
   4  -4   5 2247.24 220.838   6
   4  -4   6 10210.7 473.360   3
   4  -4   6 9922.77 493.602   6
  -4   4   6 10031.8 490.177   3
  -4  -4   6 10244.8 563.543   3
   4   4   6 10568.8 481.116   6
   4  -4   7 1168.14 184.375   6
  -4   4   7 1255.94 185.748   3
  -4  -4   7 826.038 168.325   3
   4  -4   8 3656.14 346.028   6
  -4  -4   8 3483.49 377.983   3
   4   4   9 4180.75 386.904   6
  -4  -4   9 4170.48 431.992   3
   4  -4   9 4295.07 402.621   6
  -4  -4  10 1466.83 269.561   3
   4  -5  -9 5977.67 486.504   5
  -4  -5  -9 6019.38 545.099   5
   4  -5  -9 5822.48 430.101   1
   4   5  -9 5475.13 456.858   1
   4   5  -8 870.038 163.635   2
   4  -5  -8 737.527 171.031   5
  -4  -5  -8 805.926 192.702   5
   4  -5  -8 738.773 144.664   1
  -4   5  -8 516.051 125.229   8
   4   5  -8 884.310 181.112   1
   4  -5  -7 357.162 104.088   1
  -4   5  -7 171.312 79.9928   8
   4   5  -7 302.632 97.1473   1
   4  -5  -7 209.678 90.5180   5
   4   5  -7 207.595 89.6314   2
  -4  -5  -7 204.371 111.191   5
   4  -5  -6 4164.09 336.391   5
  -4  -5  -6 4327.32 381.305   5
   4  -5  -6 4244.46 278.772   1
  -4   5  -6 4336.93 323.850   8
   4   5  -6 4623.41 324.074   2
   4  -5  -5 2448.78 244.235   5
  -4  -5  -5 2540.01 272.349   5
   4  -5  -5 2525.12 193.574   1
   4   5  -5 2791.88 240.072   2
   4  -5  -4 10877.0 478.246   5
  -4  -5  -4 11209.4 540.369   5
   4   5  -4 10853.4 450.442   2
   4  -5  -4 11039.0 356.358   1
   4  -5  -3 1888.33 192.635   6
  -4  -5  -3 2001.15 216.356   5
   4  -5  -3 1379.63 162.555   5
   4  -5  -3 1740.09 123.648   1
   4   5  -3 1553.01 163.833   2
   4  -5  -2 6066.33 317.339   6
  -4   5  -2 5807.62 107.635   2
  -4  -5  -2 6224.20 352.107   5
  -4  -5  -2 6523.06 228.647   3
   4  -5  -2 6342.77 185.951   1
   4   5  -2 6014.46 311.127   2
   4  -5  -1 12408.1 430.989   6
   4   5  -1 12188.6 281.888   6
  -4  -5  -1 12261.7 462.948   5
   4  -5  -1 11313.7 170.819   1
   4   5  -1 12631.2 440.148   2
  -4  -5  -1 12400.6 374.578   3
   4  -5   0 36.9884 31.5984   6
   4  -5   0 10.9060 38.0097   3
   4   5   0 9.90458 15.9262   6
  -4  -5   0 2.68111 30.9254   3
   4   5   0-0.99786 33.1720   2
   4  -5   1 12059.8 466.106   3
  -4   5   1 11801.0 372.247   8
   4   5   1 11960.3 427.622   2
   4   5   1 13110.7 383.588   4
  -4   5   1 12644.3 378.051   4
   4   5   1 12141.7 292.324   6
  -4  -5   1 12132.2 448.743   3
   4  -5   1 12558.2 427.417   6
   4  -5   2 6454.61 347.898   3
  -4   5   2 6582.94 262.116   8
   4   5   2 6571.24 327.023   2
   4   5   2 6176.72 282.249   4
  -4   5   2 6352.69 284.829   4
  -4  -5   2 6422.33 353.372   3
   4   5   2 6502.44 241.561   6
   4  -5   2 6155.24 310.132   6
  -4   5   3 1706.36 126.363   8
   4   5   3 1491.54 164.717   2
   4  -5   3 1626.65 184.259   3
  -4  -5   3 1703.91 196.826   3
   4   5   3 1353.09 144.393   4
  -4   5   3 1685.36 161.644   4
   4  -5   3 1648.35 170.231   6
   4   5   3 1467.20 130.544   6
   4  -5   4 11913.5 504.400   3
   4   5   4 10710.9 453.436   2
   4   5   4 10927.2 441.042   4
  -4   5   4 10985.0 446.052   4
  -4  -5   4 11103.4 536.444   3
   4   5   4 11315.3 403.863   6
   4  -5   4 10966.4 465.306   6
   4  -5   5 2376.86 235.827   3
   4   5   5 2620.08 237.349   2
   4   5   5 2607.94 237.543   4
  -4   5   5 2348.97 229.009   4
  -4   5   5 2305.23 230.993   3
  -4  -5   5 2227.89 256.914   3
   4   5   5 2277.67 201.580   6
   4  -5   5 2308.76 228.683   6
   4  -5   6 4067.14 322.633   3
   4  -5   6 4075.46 320.492   6
   4   5   6 3634.58 304.319   4
  -4   5   6 3795.60 314.155   4
  -4   5   6 4147.46 320.375   3
  -4  -5   6 3543.15 345.737   3
   4   5   6 4238.38 302.510   6
   4  -5   7 276.517 106.403   6
  -4  -5   7 106.275 74.1767   3
  -4   5   7 323.028 98.3710   3
   4  -5   8 632.770 157.820   6
  -4  -5   8 939.697 205.415   3
   4   5   9 6426.51 471.326   6
  -4  -5   9 5220.42 495.902   3
   4  -5   9 5919.82 479.939   6
   4   6  -9 2406.49 314.337   1
   4  -6  -9 2845.86 354.633   5
  -4  -6  -9 3179.71 402.409   5
   4   6  -8 495.151 138.693   1
   4   6  -8 654.512 137.257   2
   4  -6  -8 552.732 150.639   5
  -4  -6  -8 610.746 172.607   5
  -4   6  -8 790.176 154.491   8
  -4   6  -7 749.533 151.330   8
   4  -6  -7 824.624 173.512   5
   4   6  -7 788.862 141.839   2
   4   6  -7 650.420 155.439   1
  -4  -6  -7 690.290 174.604   5
   4  -6  -6 35.0163 56.3690   5
  -4  -6  -6 116.540 90.2203   5
   4   6  -6 71.0946 56.8013   2
   4  -6  -5 203.596 82.7638   5
  -4  -6  -5 409.242 131.979   5
   4   6  -5 194.058 74.4205   2
   4  -6  -4 8267.62 439.687   5
  -4  -6  -4 7859.20 471.345   5
   4   6  -4 8867.97 417.070   2
   4  -6  -3 2580.11 226.449   6
   4   6  -3 2026.68 195.692   2
   4  -6  -3 1893.76 200.820   5
  -4  -6  -3 1926.23 223.745   5
   4  -6  -2 10942.8 439.482   6
  -4  -6  -2 10822.0 484.029   5
  -4  -6  -2 10984.3 325.142   3
   4   6  -2 10238.3 423.309   2
   4  -6  -1 8516.56 369.268   6
   4   6  -1 8224.86 374.363   2
  -4  -6  -1 8247.91 395.419   5
  -4  -6  -1 8693.59 335.744   3
   4   6   0 6759.65 168.389   6
   4  -6   0 6638.73 365.959   3
   4   6   0 6395.74 331.121   2
  -4  -6   0 6871.44 335.537   5
   4  -6   0 7055.14 329.150   6
  -4  -6   0 6970.67 332.730   3
   4  -6   1 7878.32 402.344   3
   4   6   1 8249.88 381.844   2
   4   6   1 8381.06 339.929   4
  -4   6   1 8454.69 340.206   4
   4   6   1 7860.74 210.811   6
  -4  -6   1 8021.70 389.395   3
   4  -6   1 8915.27 375.522   6
   4  -6   2 10830.8 482.916   3
  -4   6   2 10726.2 353.367   8
   4   6   2 10517.1 439.477   2
   4   6   2 11076.1 406.682   4
  -4   6   2 11379.4 410.438   4
  -4  -6   2 10758.6 480.626   3
   4   6   2 10431.9 293.681   6
   4  -6   2 10406.7 414.186   6
   4  -6   3 1943.02 210.860   3
   4   6   3 2314.67 215.615   2
  -4  -6   3 1627.48 204.448   3
   4   6   3 1925.26 179.687   4
  -4   6   3 2050.22 186.108   4
  -4   6   3 2328.73 153.521   8
   4  -6   3 2138.83 197.822   6
   4   6   3 2399.46 163.426   6
   4  -6   4 9132.75 473.809   3
   4  -6   4 8889.05 424.010   6
   4   6   4 8724.62 433.307   2
   4   6   4 8361.04 403.791   4
  -4   6   4 8906.24 419.040   4
  -4  -6   4 8448.41 485.319   3
   4   6   4 9180.07 359.522   6
   4   6   5 318.232 81.9177   6
   4  -6   5 109.036 64.2916   6
  -4   6   5 118.147 54.7503   3
  -4   6   5 403.839 104.327   4
   4   6   5 312.155 98.3428   2
  -4  -6   5 318.213 106.419   3
   4  -6   5 292.818 105.451   3
   4   6   5 425.935 105.668   4
   4   6   6 157.120 71.7917   6
   4  -6   6 75.9458 74.9618   6
   4   6   6 68.9865 74.8066   4
  -4   6   6 167.812 65.9841   3
   4   6   6 252.527 90.2494   2
  -4  -6   6 253.211 110.523   3
   4  -6   6-40.7186 56.4924   3
  -4   6   6 161.125 77.9978   4
  -4   6   7 835.851 171.482   4
   4   6   7 914.779 157.073   6
   4  -6   7 637.839 149.595   6
  -4  -6   7 805.513 189.922   3
   4  -6   7 981.211 178.299   3
   4   6   7 489.600 138.069   4
   4   6   8 312.768 104.344   6
   4  -6   8 624.325 155.156   6
  -4  -6   8 571.781 172.868   3
   4   6   8 469.167 137.672   4
  -4   6   8 359.491 113.357   4
   4  -6   9 2744.30 330.638   6
   4   6   9 2543.01 329.034   4
  -4  -6   9 3115.63 395.928   3
  -4   6   9 2670.36 338.236   4
   4   6   9 2536.67 301.483   6
   4  -7  -9 3417.23 399.023   5
   4   7  -8 4208.86 390.449   1
   4   7  -8 3841.80 337.089   2
   4  -7  -8 4061.00 410.523   5
  -4  -7  -8 3327.27 405.960   5
  -4   7  -8 3493.42 342.964   8
   4  -7  -7 192.318 103.549   5
   4   7  -7 4.01365 61.9020   2
  -4  -7  -7 342.372 135.764   5
   4   7  -7 54.9070 75.6034   1
   4  -7  -6 2433.68 279.881   5
  -4  -7  -6 2031.63 281.844   5
   4   7  -6 2693.02 263.563   2
   4  -7  -5 4541.63 363.164   5
  -4  -7  -5 4218.62 380.765   5
   4   7  -5 4286.38 312.737   2
   4  -7  -4 4470.94 337.332   5
  -4  -7  -4 4490.72 371.813   5
   4   7  -4 4478.97 309.360   2
   4  -7  -3 3144.20 256.975   6
  -4  -7  -3 3609.60 307.514   5
   4  -7  -3 4057.99 304.008   5
   4   7  -3 2863.70 239.200   2
   4   7  -2 3259.16 252.755   2
   4  -7  -2 3517.57 256.736   6
   4  -7  -2 2846.46 247.908   5
  -4  -7  -2 3109.02 267.244   5
  -4  -7  -2 3114.52 192.196   3
   4  -7  -1 9620.46 407.235   6
   4   7  -1 10513.7 446.710   2
   4  -7  -1 10082.8 472.332   3
  -4  -7  -1 10498.9 463.369   5
  -4  -7  -1 9706.28 382.217   3
   4   7   0 30616.5 768.765   2
  -4  -7   0 30419.3 734.473   5
   4  -7   0 30970.6 836.326   3
  -4  -7   0 29807.0 732.944   3
   4  -7   0 29923.7 703.593   6
   4  -7   1 9800.46 479.728   3
   4   7   1 10192.3 452.812   2
   4   7   1 10669.7 416.840   4
  -4   7   1 10503.7 414.103   4
  -4  -7   1 10550.7 471.126   3
   4  -7   1 10291.3 412.424   6
   4  -7   2 3094.42 276.908   3
   4   7   2 2977.78 253.734   2
   4  -7   2 2794.86 221.918   6
   4   7   2 3135.72 235.231   4
  -4   7   2 3300.00 238.327   4
  -4   7   2 3480.71 216.714   8
  -4  -7   2 3249.66 285.007   3
   4  -7   3 3297.18 295.973   3
   4   7   3 3303.76 273.637   2
   4   7   3 3412.76 256.109   4
  -4   7   3 3483.09 258.884   4
  -4  -7   3 3409.77 307.500   3
   4  -7   3 3106.32 243.882   6
   4  -7   4 4554.80 356.952   3
   4   7   4 5159.02 352.714   2
   4   7   4 4922.77 325.281   4
  -4   7   4 4970.85 329.087   4
  -4  -7   4 4684.07 379.832   3
   4  -7   4 4776.93 319.951   6
   4   7   5 4620.63 352.958   2
   4   7   5 4112.53 320.475   4
  -4   7   5 4531.80 338.668   4
   4  -7   5 4396.12 365.617   3
  -4   7   5 4720.99 343.088   3
  -4  -7   5 4179.33 376.648   3
   4  -7   5 4129.08 318.277   6
   4   7   6 2412.38 266.300   2
  -4   7   6 2157.06 241.541   3
  -4  -7   6 2235.06 295.104   3
   4  -7   6 2139.99 264.723   3
   4   7   6 2422.45 263.753   4
  -4   7   6 2250.67 261.117   4
   4  -7   6 2657.97 270.485   6
   4  -7   7 123.290 70.6119   6
  -4   7   7 333.057 115.695   4
   4   7   7 105.174 61.6620   2
  -4  -7   7 106.893 72.3882   3
   4  -7   7 5.68193 63.3921   3
   4   7   7 133.425 75.2893   4
   4   7   8 3795.16 359.891   2
   4   7   8 3332.96 355.641   4
  -4   7   8 3142.44 345.279   4
  -4  -7   8 3838.25 426.574   3
   4  -7   8 3547.51 355.933   6
   4   7   9 3075.37 366.517   4
   4  -7   9 3417.20 376.616   6
   4   8  -8 746.547 173.674   1
   4  -8  -8 951.544 213.887   5
  -4  -8  -8 484.819 168.488   5
   4  -8  -7 5331.80 464.411   5
   4   8  -7 5060.05 409.080   1
  -4  -8  -7 5729.69 515.154   5
   4   8  -7 5238.06 385.229   2
   4  -8  -6 204.172 89.0545   5
  -4  -8  -6 173.445 102.162   5
   4   8  -6 211.611 83.0994   2
   4  -8  -5 2271.60 270.633   5
  -4  -8  -5 2400.86 296.741   5
   4   8  -5 2704.34 259.736   2
   4   8  -4 3654.10 293.401   2
   4  -8  -4 4718.17 364.584   5
  -4  -8  -4 4402.56 377.146   5
   4  -8  -3 2834.12 251.263   6
   4  -8  -3 2958.67 274.444   5
  -4  -8  -3 2882.39 291.030   5
   4   8  -3 2569.45 241.119   2
   4   8  -2 5556.98 343.743   2
   4  -8  -2 5763.72 339.068   6
   4  -8  -2 5981.02 370.642   5
  -4  -8  -2 5582.70 376.438   5
   4  -8  -1 4052.96 275.465   6
   4  -8  -1 4463.60 333.064   3
   4  -8  -1 4384.62 303.077   5
  -4  -8  -1 4092.97 304.022   5
  -4  -8  -1 4530.22 282.597   3
   4   8  -1 4352.29 305.679   2
   4  -8   0 17357.5 659.660   3
  -4  -8   0 16459.3 567.695   5
   4   8   0 17698.9 617.455   2
  -4  -8   0 16688.6 584.791   3
   4  -8   0 16856.2 546.900   6
   4  -8   1 3924.73 322.910   3
   4   8   1 4229.45 307.362   2
   4   8   1 4585.38 295.147   4
  -4   8   1 4002.03 276.593   4
  -4  -8   1 3748.24 297.463   3
   4  -8   1 4260.01 273.616   6
   4  -8   2 5462.35 385.257   3
   4   8   2 5738.57 367.461   2
   4   8   2 5582.60 332.615   4
  -4   8   2 5698.23 337.383   4
  -4  -8   2 5469.62 379.510   3
   4  -8   2 5329.77 315.681   6
   4  -8   3 2530.62 271.891   3
   4   8   3 2578.54 258.087   2
   4   8   3 2563.01 237.376   4
  -4   8   3 2858.51 249.169   4
   4  -8   3 2718.52 237.605   6
  -4  -8   3 2725.03 286.360   3
   4  -8   4 3827.08 349.393   3
   4   8   4 4504.97 349.317   2
   4   8   4 3814.71 301.470   4
  -4   8   4 3911.73 309.229   4
  -4  -8   4 3831.10 362.615   3
   4  -8   4 4657.63 322.163   6
   4   8   5 2174.55 252.740   2
  -4  -8   5 2662.30 316.746   3
   4  -8   5 2261.50 278.359   3
   4   8   5 2804.75 276.068   4
  -4   8   5 2090.63 239.329   4
   4  -8   5 2437.77 248.874   6
   4  -8   6 174.015 91.7934   6
  -4   8   6 144.167 66.9929   3
   4   8   6 151.034 81.2870   4
  -4   8   6 272.048 115.139   4
   4   8   6 289.739 105.631   2
  -4  -8   6 94.5292 87.3416   3
   4  -8   6 468.930 135.738   3
   4  -8   7 4852.06 432.197   3
   4   8   7 5312.27 427.949   2
   4   8   7 4793.59 406.023   4
  -4   8   7 5267.74 430.535   4
  -4  -8   7 5360.23 499.400   3
   4  -8   7 5469.91 418.885   6
   4  -8   8 1067.98 202.862   6
   4   8   8 268.239 112.051   4
   4   8   8 725.406 178.172   2
  -4  -8   8 344.488 146.435   3
  -4   8   8 669.383 175.324   4
   4   9  -8 870.943 189.639   1
   4  -9  -7 4198.33 428.877   5
   4   9  -7 4304.23 388.372   1
  -4  -9  -7 4574.94 474.668   5
   4   9  -7 4424.35 359.078   2
   4  -9  -6 277.160 108.512   5
  -4  -9  -6 215.807 125.013   5
   4   9  -6 29.4814 50.8089   2
   4  -9  -5 482.573 144.221   5
  -4  -9  -5 1025.64 213.115   5
   4   9  -5 507.768 124.320   2
   4   9  -4 2720.08 262.807   2
   4  -9  -4 2441.36 278.497   5
  -4  -9  -4 3343.30 344.440   5
   4  -9  -3 2635.23 245.786   6
   4  -9  -3 2396.45 262.575   5
  -4  -9  -3 2499.03 284.438   5
   4   9  -3 1925.75 217.380   2
   4   9  -2 7381.91 421.258   2
   4  -9  -2 7538.58 395.904   6
   4  -9  -2 7843.22 442.580   5
  -4  -9  -2 7946.88 468.972   5
   4  -9  -1 5593.01 391.067   3
   4  -9  -1 5514.10 359.527   5
  -4  -9  -1 5634.88 373.402   5
   4  -9  -1 5344.98 323.268   6
  -4  -9  -1 5492.22 331.265   3
   4   9  -1 5060.57 347.488   2
   4  -9   0 10755.1 451.647   6
   4  -9   0 11043.7 553.088   3
   4  -9   0 10844.8 484.453   5
  -4  -9   0 11345.8 489.617   5
   4   9   0 11341.2 522.288   2
  -4  -9   0 10210.1 487.184   3
   4  -9   1 5645.50 407.209   3
   4   9   1 5662.96 375.990   2
  -4  -9   1 5589.16 384.374   3
   4  -9   1 5669.62 326.342   6
   4  -9   2 7320.52 475.266   3
   4   9   2 7631.79 445.774   2
   4   9   2 8007.50 431.198   4
  -4   9   2 8563.23 441.531   4
  -4  -9   2 7042.72 455.277   3
   4  -9   2 8128.97 400.338   6
   4   9   3 2416.40 259.894   2
   4   9   3 2630.36 255.514   4
  -4   9   3 2657.56 256.405   4
   4  -9   3 2761.62 304.720   3
  -4  -9   3 2553.05 290.691   3
   4  -9   3 2321.65 222.329   6
   4  -9   4 2845.51 316.560   3
   4   9   4 2614.42 278.551   2
  -4  -9   4 2442.37 295.747   3
   4   9   4 2661.44 264.506   4
  -4   9   4 2742.12 272.273   4
   4  -9   4 2895.72 261.273   6
   4  -9   5 451.829 115.592   6
   4   9   5 578.850 134.365   4
   4   9   5 506.888 137.846   2
  -4  -9   5 200.301 77.7673   3
  -4   9   5 592.215 146.413   4
   4  -9   5 314.437 129.028   3
   4  -9   6 181.109 94.5989   6
   4   9   6-31.9277 64.4860   2
  -4  -9   6 139.707 117.104   3
  -4   9   6 176.641 81.4364   4
   4  -9   6 422.802 147.474   3
   4   9   6 254.147 90.0265   4
   4  -9   7 3796.33 402.315   3
   4   9   7 3432.03 361.757   2
   4   9   7 4429.38 406.076   4
  -4   9   7 3802.66 378.655   4
   4  -9   7 4197.64 371.984   6
  -4  -9   7 4332.07 466.815   3
   4   9   8 740.944 174.067   4
   4   9   8 847.705 196.407   2
   4  -9   8 1276.23 242.258   3
  -4   9   8 810.886 184.918   4
   4  10  -7 1852.21 262.787   1
   4 -10  -7 1889.74 293.271   5
  -4 -10  -7 1542.54 281.731   5
   4 -10  -6 308.910 125.209   5
  -4 -10  -6 158.734 101.809   5
   4  10  -6 225.941 96.4213   2
   4 -10  -5 269.231 102.830   5
  -4 -10  -5 363.943 138.633   5
   4  10  -5 241.757 79.3624   2
   4  10  -4 459.511 117.962   2
   4 -10  -4 632.350 160.621   5
  -4 -10  -4 153.593 73.9945   5
   4 -10  -3 5454.66 409.448   5
  -4 -10  -3 5116.23 414.936   5
   4  10  -3 4622.21 350.316   2
   4 -10  -2 1164.22 162.727   6
   4 -10  -2 1210.92 189.052   5
  -4 -10  -2 1274.16 200.966   5
   4  10  -2 1457.09 201.572   2
   4 -10  -1 1033.55 148.942   6
   4 -10  -1 970.851 161.766   5
   4  10  -1 1165.83 180.937   2
  -4 -10  -1 856.443 153.795   5
  -4 -10  -1 1038.67 153.131   3
   4 -10  -1 922.858 170.418   3
   4 -10   0 830.404 129.569   6
   4  10   0 590.430 134.845   2
   4 -10   0 930.890 154.436   5
  -4 -10   0 795.991 149.390   3
  -4 -10   0 597.931 119.353   5
   4 -10   0 887.521 175.792   3
   4 -10   1 1022.12 143.496   6
   4 -10   1 1152.72 162.908   5
  -4 -10   1 1187.85 188.248   3
   4 -10   1 980.225 183.526   3
   4  10   1 1015.07 171.924   2
   4  10   2 1243.72 193.699   2
   4 -10   2 1276.01 168.136   6
   4 -10   2 1081.08 149.361   5
  -4 -10   2 1465.43 225.230   3
   4 -10   2 1389.47 226.454   3
   4  10   2 1250.91 182.298   4
  -4  10   2 1317.73 187.630   4
   4 -10   3 4324.67 392.720   3
   4  10   3 5061.36 392.879   2
   4  10   3 5428.53 385.809   4
  -4  10   3 5181.81 377.632   4
  -4 -10   3 5057.97 431.511   3
   4 -10   3 4843.54 326.634   6
   4  10   4 463.789 134.258   2
  -4 -10   4 563.376 162.240   3
   4 -10   4 518.377 145.806   3
   4  10   4 524.390 130.935   4
  -4  10   4 428.537 124.543   4
   4  10   5 465.687 129.678   4
   4  10   5 320.291 120.169   2
  -4 -10   5 256.879 122.111   3
   4 -10   5 436.068 132.241   3
  -4  10   5 513.324 133.672   4
   4  10   6 115.473 79.2748   2
   4  10   6 545.122 150.602   4
  -4 -10   6 379.092 134.771   3
   4 -10   6 369.707 135.757   3
  -4  10   6 24.0521 72.4817   4
   4  10   7 1812.65 276.255   2
  -4 -10   7 1463.67 295.594   3
  -4  10   7 2120.33 295.053   4
   4 -10   7 2018.66 309.374   3
   4  10   7 1922.87 282.202   4
   4  11  -7 4228.67 395.947   1
   4 -11  -6 1356.65 247.462   5
  -4 -11  -6 1656.50 295.739   5
   4  11  -6 1481.84 214.912   2
   4 -11  -5 2564.91 325.962   5
  -4 -11  -5 3072.25 375.686   5
   4  11  -5 2445.79 270.987   2
   4 -11  -4 4169.55 395.946   5
  -4 -11  -4 4335.14 418.699   5
   4  11  -4 4399.43 362.262   2
   4 -11  -3 2528.45 291.506   5
  -4 -11  -3 2321.58 296.709   5
   4  11  -3 2526.83 273.122   2
   4  11  -2 966.962 171.445   2
   4 -11  -2 536.598 130.454   5
  -4 -11  -2 666.965 155.136   5
   4  11  -1 1739.18 234.104   2
   4 -11  -1 1419.08 205.959   5
  -4 -11  -1 1884.10 235.606   5
   4 -11  -1 1867.10 253.707   3
   4 -11   0 1063.02 173.118   5
  -4 -11   0 893.245 179.313   3
   4 -11   0 1172.16 207.717   3
   4  11   0 1230.82 194.068   2
   4  11   1 2160.64 261.986   2
   4 -11   1 1400.39 186.551   5
  -4 -11   1 1267.60 204.645   3
   4 -11   1 1456.25 239.489   3
   4  11   2 1279.96 208.404   2
  -4 -11   2 810.250 177.859   3
   4 -11   2 839.496 182.326   3
   4  11   2 889.528 165.347   4
  -4  11   2 1182.92 186.216   4
   4  11   3 2110.87 271.210   2
  -4 -11   3 2924.66 343.923   3
   4  11   3 2441.36 275.117   4
  -4  11   3 2225.07 262.380   4
   4 -11   3 1860.63 275.437   3
   4 -11   4 4415.52 436.307   3
   4  11   4 4621.72 408.150   2
   4  11   4 4134.71 364.426   4
  -4  11   4 4122.02 370.884   4
  -4 -11   4 5458.15 489.090   3
   4  11   5 3345.56 357.813   2
  -4 -11   5 2772.42 362.680   3
   4  11   5 2620.93 305.078   4
  -4  11   5 2642.84 312.777   4
   4 -11   5 2604.80 346.021   3
   4  11   6 1816.88 274.761   2
  -4 -11   6 1408.66 274.953   3
   4 -11   6 1817.45 301.362   3
   4  11   6 1454.73 237.695   4
  -4  11   6 1657.03 258.587   4
   4 -12  -5 569.398 176.840   5
  -4 -12  -5 755.180 203.187   5
   4  12  -5 451.250 120.194   2
   4  12  -4 630.723 154.524   2
   4 -12  -4 850.312 197.339   5
  -4 -12  -4 566.378 170.191   5
   4 -12  -3 6922.52 510.962   5
  -4 -12  -3 7775.06 554.684   5
   4  12  -3 6780.35 467.310   2
   4 -12  -2 1032.18 187.641   5
  -4 -12  -2 1087.68 199.052   5
   4  12  -2 822.570 166.557   2
   4 -12  -1 103.584 89.8352   5
   4 -12  -1 8.56252 87.6518   3
   4  12  -1 173.589 105.166   2
   4 -12   0 4440.19 411.510   3
   4  12   0 3784.41 351.431   2
   4 -12   0 4258.39 349.978   5
  -4 -12   0 4262.38 369.360   3
  -4 -12   1 9.42399 61.6103   3
   4 -12   1 52.8159 87.7385   3
   4  12   1 149.292 97.4205   2
   4  12   2 1064.76 202.088   2
  -4 -12   2 901.294 193.453   3
   4 -12   2 1131.42 226.166   3
   4 -12   3 7101.87 554.128   3
   4  12   3 7285.91 520.321   2
   4  12   3 7154.94 492.759   4
  -4  12   3 7389.36 506.676   4
  -4 -12   3 7633.83 572.546   3
   4  12   4 779.990 189.656   2
  -4 -12   4 838.542 205.269   3
   4 -12   4 473.164 151.370   3
   4  12   4 524.763 145.989   4
  -4  12   4 656.813 160.599   4
   4  12   5 514.309 156.372   2
  -4 -12   5 564.707 197.074   3
   4 -12   5 351.425 154.215   3
   4  12   5 771.283 177.043   4
  -4  12   5 585.420 154.882   4
   4 -13  -4 6607.13 545.730   5
  -4 -13  -4 7007.00 574.150   5
   4  13  -4 6555.93 474.836   2
   4 -13  -3 4345.70 423.318   5
  -4 -13  -3 4942.33 458.370   5
   4  13  -3 5139.07 418.699   2
   4 -13  -2 614.841 170.425   5
   4  13  -2 270.915 109.422   2
   4 -13  -1 1992.08 264.143   5
   4 -13  -1 2144.91 302.135   3
   4  13  -1 1662.39 245.752   2
   4 -13   0 1373.21 249.448   3
   4  13   0 1198.40 218.583   2
  -4 -13   1 2291.23 304.622   3
   4 -13   1 1992.38 297.265   3
   4  13   1 2276.65 300.775   2
   4  13   2 797.598 184.764   2
  -4 -13   2 495.015 160.963   3
   4 -13   2 766.539 209.068   3
   4  13   3 5049.44 452.056   2
  -4  13   3 5023.07 437.827   4
   4 -13   3 5071.60 497.668   3
  -4 -13   3 4873.93 478.369   3
   4  13   4 6236.94 513.560   2
   4  13   4 6821.16 523.220   4
  -4  13   4 6832.82 532.055   4
   4 -13   4 6538.11 578.672   3
  -4 -13   4 6432.13 571.873   3
   4 -14  -3 997.870 220.043   5
   4  14  -3 920.447 183.375   2
   4 -14  -2 1607.95 260.156   5
   4  14  -2 1712.80 268.769   2
   4 -14  -1 1860.50 300.596   3
   4  14  -1 1466.96 248.205   2
   4 -14   0-31.2516 98.0220   3
   4  14   0 334.478 129.194   2
   4 -14   1 1605.73 277.240   3
   4  14   1 1635.42 261.077   2
  -4 -14   2 1489.54 265.934   3
   4 -14   2 1989.08 310.563   3
   4  14   2 1543.04 254.070   2
  -4 -14   3 789.965 209.447   3
   5   0  -9 39.0025 73.6330   1
   5   0  -8-64.0543 78.0190   1
  -5   0  -7-54.2540 55.8967   8
   5   0  -7 100.741 66.6789   1
   5   0  -6-40.2428 56.9964   1
   5   0  -6 9.68318 36.0201   5
  -5   0  -6-11.7032 45.7436   8
   5   0  -5-25.7463 37.6751   5
   5   0  -5 94.8302 75.0494   2
  -5   0  -5-29.1248 43.3758   8
   5   0  -4-33.9216 41.1508   2
  -5   0  -4-44.1782 49.6845   8
   5   0  -3 58.6982 46.1718   6
   5   0  -3 0.88183 39.6381   2
  -5   0  -3 7.30814 35.6835   8
   5   0  -2 6.71575 32.0276   6
   5   0  -2 25.9966 41.0815   2
  -5   0  -2 32.3463 49.6649   8
   5   0  -1 58.3206 48.0512   6
   5   0  -1-7.55848 28.7558   2
  -5   0  -1-9.68712 32.4853   8
   5   0   0 27.9234 33.3075   6
  -5   0   0 44.4106 32.4111   3
  -5   0   0 73.9096 48.3569   8
   5   0   0 39.0105 24.2259   2
   5   0   1-17.7085 28.7255   6
  -5   0   1 3.44833 36.8952   3
   5   0   1-7.06680 21.7171   2
  -5   0   1 0.73379 28.7834   8
   5   0   2-31.3236 49.0339   6
   5   0   2-7.48366 18.1527   2
  -5   0   2-3.12990 43.0715   3
  -5   0   2 4.98311 28.8164   8
  -5   0   2-4.58254 21.6236   7
   5   0   2 0.91462 13.4293   7
   5   0   3-11.3192 19.7496   7
   5   0   3-4.29502 36.3216   6
  -5   0   3 34.3743 61.9806   3
   5   0   3 43.6832 24.6938   2
  -5   0   3 16.7933 23.2898   7
   5   0   4-43.5535 42.0876   6
  -5   0   4-55.2458 55.1367   3
  -5   0   4-39.3200 37.4562   7
   5   0   4-2.08831 29.3049   7
   5   0   4-6.40982 17.4345   2
  -5   0   5-15.3319 41.0469   7
   5   0   5 62.0205 68.1030   6
  -5   0   5-48.9084 81.3793   3
   5   0   5-15.0840 45.9466   7
   5   0   6 25.0448 62.7960   6
  -5   0   6 30.3039 53.2920   3
  -5   0   6 37.0536 53.1211   7
   5   0   6-56.2564 65.6619   7
   5   0   7 11.6290 60.9804   6
  -5   0   7-1.33625 53.9843   3
   5   0   7-7.58456 56.2842   7
  -5   0   7 94.8580 61.6558   7
   5   0   8-129.662 101.148   6
  -5   0   8 61.4308 57.6405   3
  -5   0   8-49.5103 81.9904   7
   5   0   8-88.0302 90.4460   7
   5   0   9 32.3875 64.7814   6
  -5   0   9 22.8946 101.828   3
  -5   0   9-111.835 88.5798   7
   5   0   9-54.5402 83.9553   7
  -5   0  10 64.3453 65.0492   7
   5   0  10-167.600 116.666   7
   5  -1  -9 1504.57 233.507   1
   5   1  -9 2044.43 275.980   1
   5  -1  -8 445.008 125.735   1
   5   1  -8 226.758 101.334   1
   5   1  -7 3873.07 326.288   1
   5  -1  -7 4185.85 308.507   5
  -5   1  -7 3780.60 302.736   8
  -5  -1  -7 3474.95 286.161   8
   5  -1  -7 3656.56 312.646   1
  -5   1  -6 750.691 134.586   8
   5   1  -6 737.436 148.014   1
   5  -1  -6 869.084 137.155   5
   5   1  -6 772.013 138.516   2
   5  -1  -6 715.680 134.898   1
  -5  -1  -6 673.423 125.676   8
   5   1  -5 39870.1 907.461   2
  -5   1  -5 40811.3 897.048   8
   5  -1  -5 41145.1 849.111   5
  -5  -1  -5 39451.5 888.407   8
   5  -1  -5 38698.0 851.914   1
   5  -1  -4 8891.25 426.376   6
  -5  -1  -4 8711.54 402.919   8
   5  -1  -4 8713.64 392.419   2
   5   1  -4 8912.42 400.359   2
  -5   1  -4 9294.56 410.481   8
   5  -1  -3 4486.49 282.883   6
   5   1  -3 4940.67 285.042   6
   5  -1  -3 4804.44 267.736   2
  -5  -1  -3 4707.23 288.202   8
  -5   1  -3 4620.31 281.576   8
   5   1  -3 4461.84 264.720   2
  -5  -1  -2 124.801 40.5689   3
   5  -1  -2 238.652 69.6385   6
   5   1  -2 53.1111 43.6751   6
   5  -1  -2 145.854 56.9519   2
   5   1  -2 126.180 46.3079   2
  -5   1  -2 126.944 50.7232   8
  -5  -1  -2 62.6515 50.1639   8
  -5   1  -1 25607.3 609.773   8
  -5  -1  -1 26413.0 652.366   8
  -5  -1  -1 26864.0 531.428   3
   5  -1  -1 26700.9 532.328   2
   5   1  -1 26005.8 556.218   2
   5  -1  -1 26031.3 606.550   6
   5   1  -1 26123.7 581.020   6
   5  -1   0 39.2112 47.5164   6
   5   1   0 53.8377 35.9294   6
  -5  -1   0 44.0434 36.5222   3
  -5  -1   0-10.7204 40.0105   8
   5  -1   0 14.8916 24.1355   2
  -5   1   0-12.4069 35.4607   8
   5   1   0 10.0968 25.2536   2
  -5   1   1 26851.5 609.991   8
   5   1   1 25580.6 232.463   4
  -5   1   1 25389.9 249.917   4
  -5  -1   1 26394.0 614.500   3
  -5  -1   1 25645.9 643.862   8
   5   1   1 25899.1 252.136   7
   5  -1   1 26591.3 430.660   2
   5   1   1 27730.5 592.542   6
   5  -1   1 25937.8 601.415   6
   5   1   1 26440.6 510.680   2
  -5   1   1 26096.7 623.908   3
   5   1   2 142.776 55.0069   6
   5  -1   2 70.0464 41.8320   6
  -5   1   2 97.6176 49.4866   3
  -5   1   2 128.779 46.4230   8
  -5  -1   2 218.341 71.5945   3
   5  -1   2 108.217 30.2952   2
  -5  -1   2 139.019 59.1331   8
   5   1   2 86.1377 35.1342   2
   5   1   3 4960.06 217.379   2
  -5   1   3 4557.44 251.489   8
  -5  -1   3 4832.97 223.585   7
   5  -1   3 4556.14 219.512   7
  -5  -1   3 5002.34 313.614   3
   5   1   3 4694.21 270.356   6
   5  -1   3 4544.97 277.095   6
  -5   1   3 4753.49 297.037   3
   5  -1   3 4565.57 151.208   2
   5  -1   4 9377.40 419.744   6
   5   1   4 8264.23 294.372   2
  -5  -1   4 8069.08 425.457   3
  -5   1   4 8794.77 434.539   3
  -5  -1   4 8709.70 353.807   7
   5  -1   4 8378.75 348.608   7
   5   1   4 9358.49 407.088   6
  -5   1   5 39346.0 980.910   3
  -5  -1   5 40096.3 1010.79   3
  -5  -1   5 38214.2 836.221   7
   5  -1   5 40381.7 866.538   7
   5   1   5 41289.6 926.811   6
   5  -1   5 39753.5 934.874   6
   5   1   6 704.128 134.391   6
   5  -1   6 537.573 127.622   6
  -5   1   6 841.286 154.140   3
  -5  -1   6 754.586 156.971   3
  -5   1   6 565.340 121.733   7
   5   1   6 705.683 132.890   7
  -5  -1   6 693.399 129.050   7
   5  -1   6 704.307 130.318   7
  -5   1   7 3712.96 318.628   7
   5   1   7 3727.46 321.281   7
  -5   1   7 3240.28 318.503   3
  -5  -1   7 3906.79 364.814   3
  -5  -1   7 3475.30 312.045   7
   5  -1   7 3223.64 298.566   7
   5   1   7 4196.09 346.975   6
   5  -1   7 3670.96 328.858   6
   5  -1   8 161.265 81.0303   6
  -5   1   8 218.008 107.560   3
  -5  -1   8 122.455 93.6617   3
  -5  -1   8 257.200 97.7373   7
   5   1   8 380.762 128.374   6
  -5   1   8 273.541 91.9010   7
   5   1   8 378.717 119.878   7
   5  -1   8 359.509 130.337   7
   5   1   9 1881.34 269.498   6
   5  -1   9 1671.96 256.680   6
  -5   1   9 1577.17 257.032   3
  -5  -1   9 1230.14 230.809   3
  -5   1   9 1518.24 253.563   7
   5   1   9 1559.13 251.068   7
  -5  -1   9 1263.04 223.691   7
   5  -1   9 1963.39 296.623   7
  -5   1  10 630.693 176.720   7
   5   1  10 441.186 135.790   7
  -5  -1  10 352.516 149.060   7
   5  -1  10 447.761 150.772   7
   5   2  -9-52.2583 61.8972   1
   5  -2  -9 97.5566 90.6924   1
   5   2  -8 4614.60 391.787   1
   5  -2  -8 4645.67 371.572   1
   5   2  -7 2900.42 289.552   1
  -5   2  -7 3114.85 276.508   8
   5  -2  -7 2613.69 259.011   5
   5   2  -7 2936.49 282.295   2
   5  -2  -7 2889.53 272.286   1
   5   2  -6 8204.09 437.344   2
   5  -2  -6 7476.49 403.873   5
  -5   2  -6 6843.50 397.067   8
  -5  -2  -6 7009.75 392.391   8
   5  -2  -6 6713.66 382.151   1
  -5  -2  -5 4570.85 305.797   8
   5   2  -5 4315.97 301.093   2
   5  -2  -5 5013.03 300.500   1
   5  -2  -5 4705.01 300.553   5
  -5   2  -5 5330.51 339.270   8
   5  -2  -4 2796.29 248.981   6
  -5  -2  -4 2661.70 228.115   8
  -5   2  -4 3109.37 241.262   8
   5   2  -4 2409.02 212.313   2
   5  -2  -3 1694.72 181.069   6
   5   2  -3 1790.37 170.407   6
  -5  -2  -3 1790.07 105.145   3
  -5  -2  -3 1575.09 175.710   8
  -5   2  -3 1885.79 183.581   8
   5  -2  -3 1504.48 153.013   2
   5   2  -3 1854.05 176.837   2
   5  -2  -2 3400.96 239.578   6
   5   2  -2 3434.82 217.751   6
   5  -2  -2 3748.24 218.011   2
  -5  -2  -2 3376.84 244.441   8
  -5   2  -2 3640.54 242.152   8
  -5  -2  -2 3383.83 168.607   3
   5   2  -2 3674.86 231.456   2
   5   2  -1 7918.93 307.573   6
  -5   2  -1 7468.52 332.252   8
  -5  -2  -1 7688.27 367.215   8
   5  -2  -1 7471.20 277.481   2
  -5  -2  -1 7724.41 283.687   3
   5   2  -1 7693.86 319.775   2
   5  -2  -1 7319.85 332.823   6
  -5   2   0 4150.44 239.635   8
  -5  -2   0 4355.89 280.501   8
   5  -2   0 3961.43 181.389   2
  -5  -2   0 3862.13 221.036   3
   5   2   0 4219.54 225.919   2
   5  -2   0 3737.95 236.050   6
   5   2   0 3770.96 208.990   6
   5   2   1 7473.68 291.361   2
  -5  -2   1 7178.24 356.607   8
   5  -2   1 7574.61 215.979   2
   5   2   1 7530.68 177.415   4
  -5   2   1 7744.65 182.979   4
  -5   2   1 7566.77 316.455   8
  -5  -2   1 7687.97 338.899   3
   5   2   1 7562.07 298.643   6
   5  -2   1 7733.05 341.256   6
  -5  -2   2 3599.91 253.387   3
   5  -2   2 3460.46 118.466   2
   5   2   2 3801.64 208.685   2
   5   2   2 3695.83 161.191   4
  -5   2   2 3527.02 159.979   4
  -5   2   2 3448.16 212.631   8
  -5   2   2 3466.81 245.695   3
   5   2   2 3798.56 226.176   6
   5  -2   2 3709.68 242.770   6
   5   2   3 1689.77 137.992   2
   5  -2   3 1790.84 154.388   3
  -5   2   3 1590.78 144.635   8
  -5   2   3 1609.57 178.397   3
   5   2   3 1815.36 167.162   6
  -5  -2   3 1573.29 181.593   3
   5  -2   3 1480.17 161.773   6
   5  -2   4 2860.67 199.872   3
   5   2   4 2724.46 187.081   2
  -5   2   4 3236.96 263.005   3
  -5  -2   4 2626.04 252.198   3
   5   2   4 2685.62 217.509   6
   5  -2   4 2673.42 227.820   6
   5  -2   5 4531.70 258.919   3
   5  -2   5 4687.89 328.025   6
   5   2   5 4707.98 259.060   2
  -5   2   5 4396.52 328.598   3
  -5  -2   5 5115.68 376.472   3
  -5  -2   5 4261.89 285.520   7
   5  -2   5 4487.50 296.980   7
   5   2   5 4534.65 303.940   6
  -5   2   6 6545.02 422.346   3
  -5  -2   6 7145.85 467.401   3
  -5  -2   6 6823.75 404.710   7
   5  -2   6 7336.68 418.735   7
   5   2   6 7115.66 413.213   6
   5  -2   6 7321.83 437.726   6
  -5   2   7 2548.58 282.436   3
  -5  -2   7 2827.41 285.111   7
   5  -2   7 3256.60 313.568   7
  -5  -2   7 3496.24 350.029   3
   5   2   7 2826.28 280.675   6
   5  -2   7 3171.67 309.640   6
  -5  -2   8 4361.84 386.638   7
  -5   2   8 3946.56 369.703   3
  -5   2   8 4689.96 393.223   7
   5   2   8 4499.45 393.293   7
  -5  -2   8 4020.09 394.858   3
   5   2   8 3758.21 348.893   6
   5  -2   8 4083.84 378.405   6
   5  -2   8 3971.43 367.603   7
   5   2   9 30.4146 88.0222   6
   5  -2   9-22.9882 63.7306   6
  -5  -2   9 20.2438 79.4762   3
   5   2   9 63.6372 71.2018   7
  -5   2   9 62.2503 76.4240   7
  -5  -2   9 123.607 92.6429   7
  -5  -2  10 124.049 86.0582   3
  -5   2  10 161.360 109.278   7
   5   2  10 269.303 132.825   7
   5  -3  -9 960.056 179.134   1
   5   3  -9 778.738 176.356   1
   5   3  -8 96.6371 74.9232   1
   5   3  -8 190.971 78.2382   2
   5  -3  -8 168.758 93.8008   5
   5  -3  -8 360.662 116.344   1
  -5  -3  -8-14.8773 104.883   5
  -5   3  -8 216.902 80.4107   8
   5   3  -7 1457.43 204.247   2
   5  -3  -7 904.312 161.488   5
   5   3  -7 1082.86 186.483   1
  -5  -3  -7 1433.67 241.644   5
   5  -3  -7 1009.34 158.559   1
  -5   3  -7 980.584 166.458   8
  -5  -3  -6 3963.03 298.904   8
   5   3  -6 4434.10 326.844   2
  -5   3  -6 4252.84 318.604   8
   5  -3  -6 4080.66 313.716   5
  -5  -3  -6 4460.47 387.401   5
   5  -3  -6 3706.91 278.053   1
   5  -3  -5 9401.34 404.268   1
   5   3  -5 9144.48 445.047   2
  -5   3  -5 9802.00 465.347   8
   5  -3  -5 9713.88 456.089   5
  -5  -3  -5 9322.95 528.284   5
  -5  -3  -5 8983.37 437.015   8
   5  -3  -4 2563.80 244.374   6
   5  -3  -4 2314.19 182.252   1
  -5  -3  -4 2113.78 243.547   5
  -5   3  -4 2495.52 224.201   8
  -5  -3  -4 2468.64 226.165   8
   5   3  -4 2314.76 213.974   2
   5  -3  -3 2429.77 218.437   6
  -5   3  -3 2249.75 203.450   8
  -5  -3  -3 2375.65 218.948   8
   5   3  -3 2195.30 194.721   2
   5  -3  -2 4171.46 272.398   6
   5   3  -2 4328.01 238.089   6
  -5  -3  -2 4225.01 288.111   8
  -5   3  -2 4552.37 274.281   8
  -5  -3  -2 4431.82 191.967   3
   5   3  -2 4216.52 256.010   2
   5   3  -1 9585.72 330.342   6
  -5   3  -1 9515.84 379.658   8
  -5  -3  -1 8866.78 310.583   3
  -5  -3  -1 8942.43 414.132   8
   5   3  -1 9712.80 372.922   2
   5  -3  -1 9312.63 388.116   6
   5   3   0 2747.01 193.042   2
  -5  -3   0 2800.69 234.097   8
  -5   3   0 2822.26 198.761   8
  -5  -3   0 2865.37 193.951   3
   5  -3   0 2848.51 210.339   6
   5   3   0 2825.60 175.017   6
   5   3   1 9355.96 350.177   2
   5   3   1 9569.26 250.685   4
  -5   3   1 9502.34 247.799   4
   5  -3   1 9101.74 379.581   6
  -5   3   1 9063.21 343.563   8
  -5  -3   1 9677.86 391.159   3
   5   3   1 9839.00 332.097   6
   5  -3   2 4217.78 260.552   3
   5   3   2 3915.21 227.752   2
   5   3   2 4292.07 192.113   4
  -5   3   2 4317.43 193.144   4
  -5   3   2 4061.34 226.430   8
  -5  -3   2 3802.37 267.003   3
   5   3   2 4435.94 237.084   6
   5  -3   2 3966.35 258.905   6
   5  -3   3 2449.56 199.603   3
   5   3   3 2365.84 185.112   2
   5  -3   3 2523.35 214.857   6
   5   3   3 2213.26 159.294   4
  -5   3   3 2381.52 169.692   4
  -5   3   3 2276.92 166.153   8
  -5   3   3 2322.67 217.562   3
   5   3   3 2201.33 181.794   6
  -5  -3   3 2150.59 217.641   3
   5  -3   4 2445.36 204.431   3
   5   3   4 2563.70 198.223   2
  -5  -3   4 2714.45 261.081   3
   5   3   4 2723.34 216.045   6
   5  -3   4 2600.61 232.833   6
  -5   3   4 2800.58 248.070   3
   5  -3   5 9310.93 406.828   3
   5   3   5 8909.79 385.882   2
  -5   3   5 9516.05 481.381   3
  -5  -3   5 9060.18 502.623   3
   5   3   5 8405.50 414.685   6
   5  -3   5 9637.16 471.901   6
   5   3   6 4517.05 292.612   2
   5  -3   6 4070.60 329.035   6
  -5  -3   6 4444.64 382.698   3
   5   3   6 4310.43 321.729   6
  -5   3   6 4374.42 346.293   3
   5   3   7 1197.38 184.009   6
   5  -3   7 1316.24 211.581   6
  -5   3   7 859.591 171.233   3
  -5  -3   7 924.903 187.873   3
   5  -3   8 202.244 103.548   6
  -5   3   8 192.739 97.5370   3
  -5  -3   8 364.287 136.538   3
   5   3   8 26.2645 53.7181   6
   5   3   9 792.301 177.733   6
  -5  -3   9 966.574 228.717   3
   5  -3   9 1122.01 214.226   6
  -5   3   9 535.930 150.892   7
   5   3   9 756.051 183.628   7
   5   4  -9 873.269 201.391   1
  -5  -4  -9 769.404 207.233   5
   5  -4  -9 558.076 136.780   1
   5   4  -8 2126.21 274.882   1
   5   4  -8 2222.55 261.717   2
   5  -4  -8 1972.21 258.951   5
  -5  -4  -8 2548.47 335.734   5
   5  -4  -8 2093.15 247.647   1
  -5   4  -8 2714.08 286.861   8
  -5   4  -7 1305.75 197.189   8
   5  -4  -7 1048.37 179.078   5
   5   4  -7 1308.83 190.238   2
   5  -4  -7 1292.50 179.735   1
  -5  -4  -7 1139.02 221.957   5
   5   4  -7 1318.99 198.997   1
  -5  -4  -6 3315.48 277.932   8
   5  -4  -6 2803.35 273.689   5
   5   4  -6 3479.89 295.171   2
  -5  -4  -6 3119.89 336.130   5
   5  -4  -6 2950.40 244.871   1
  -5   4  -6 3224.10 285.674   8
   5  -4  -5 3151.82 273.551   5
  -5  -4  -5 3128.62 322.353   5
  -5  -4  -5 3047.37 262.787   8
   5   4  -5 3212.28 268.724   2
   5  -4  -5 3153.69 229.386   1
  -5   4  -5 3753.63 292.837   8
   5  -4  -4 11246.6 391.423   1
   5  -4  -4 10408.6 490.389   6
   5  -4  -4 11630.3 495.074   5
  -5  -4  -4 11925.0 580.192   5
  -5   4  -4 12030.4 500.770   8
  -5  -4  -4 11166.5 491.418   8
   5   4  -4 11375.0 477.433   2
  -5   4  -3 1421.53 164.124   8
   5  -4  -3 1067.04 152.794   6
   5  -4  -3 1023.36 107.267   1
  -5  -4  -3 899.324 156.180   5
   5   4  -3 1409.51 162.208   2
  -5  -4  -3 983.500 148.791   8
   5  -4  -2 31907.6 765.823   6
   5   4  -2 31312.9 610.774   6
  -5  -4  -2 31487.0 530.277   3
  -5   4  -2 32750.1 750.973   8
  -5  -4  -2 30902.2 794.146   8
   5   4  -2 30943.7 723.422   2
   5   4  -1 1042.40 105.789   6
   5   4  -1 1037.98 127.364   2
   5  -4  -1 1106.53 141.147   6
  -5   4  -1 1094.78 134.401   8
  -5  -4  -1 1447.31 176.985   8
  -5  -4  -1 1054.09 112.866   3
   5   4   0 10122.5 393.218   2
  -5   4   0 9932.65 381.698   8
  -5  -4   0 9994.18 379.876   3
   5  -4   0 9786.90 404.004   6
   5   4   0 10126.1 315.845   6
   5  -4   1 1159.36 142.739   6
   5  -4   1 1389.73 160.180   3
  -5  -4   1 1059.03 136.174   3
   5   4   1 1058.53 98.0505   4
  -5   4   1 1131.25 100.176   4
  -5   4   1 1124.98 124.955   8
   5   4   1 1136.39 133.076   2
   5   4   1 1248.42 118.882   6
   5  -4   2 31198.0 752.383   3
   5   4   2 33797.1 720.949   2
   5   4   2 31866.1 574.021   4
  -5   4   2 32320.7 580.732   4
  -5   4   2 31479.6 631.073   8
  -5  -4   2 32422.2 799.588   3
   5   4   2 32945.3 624.070   6
   5  -4   2 34264.7 773.498   6
   5  -4   3 1281.82 160.522   6
   5   4   3 1168.10 140.271   2
  -5  -4   3 1070.22 158.545   3
   5   4   3 1071.03 119.998   4
  -5   4   3 1101.60 121.958   4
   5  -4   3 1036.60 138.844   3
  -5   4   3 1324.93 125.640   8
   5   4   3 1074.46 123.885   6
   5  -4   4 11496.2 472.767   3
   5   4   4 11235.1 442.606   2
  -5   4   4 10790.0 492.714   3
   5   4   4 11259.4 428.281   4
  -5   4   4 11510.7 440.851   4
  -5  -4   4 11761.5 557.908   3
   5   4   4 11232.4 432.757   6
   5  -4   4 12112.0 507.853   6
   5  -4   5 3294.01 263.038   3
   5   4   5 3671.34 266.426   2
  -5   4   5 3225.29 286.162   3
   5   4   5 2822.22 237.894   4
  -5   4   5 3460.98 267.978   4
  -5  -4   5 3332.50 319.557   3
   5   4   5 3336.54 260.139   6
   5  -4   5 3318.23 281.293   6
   5  -4   6 2629.41 241.436   3
  -5   4   6 3002.60 289.029   3
   5  -4   6 3042.53 288.854   6
   5   4   6 2828.74 246.122   2
  -5  -4   6 3920.22 373.828   3
   5   4   6 2936.51 262.179   6
   5   4   7 1290.29 191.440   6
   5  -4   7 1121.95 186.500   6
  -5   4   7 1243.19 198.023   3
  -5  -4   7 1382.69 237.804   3
   5   4   8 2339.31 274.688   6
   5  -4   8 2378.19 291.618   6
  -5   4   8 2140.22 274.813   3
  -5  -4   8 2141.00 305.379   3
   5   4   9 479.009 138.895   6
   5  -4   9 663.920 163.226   6
  -5  -4   9 384.719 131.511   3
   5  -5  -9 302.179 106.637   5
  -5  -5  -9 626.555 189.233   5
   5   5  -8 237.427 107.605   2
   5  -5  -8 269.566 110.873   5
   5   5  -8 501.252 136.174   1
  -5  -5  -8 319.764 139.686   5
  -5   5  -8 305.572 110.420   8
   5   5  -7 878.760 175.540   1
   5  -5  -7 1216.44 200.526   5
   5   5  -7 1065.70 179.843   2
  -5  -5  -7 1285.32 231.822   5
  -5   5  -7 1493.29 212.216   8
   5  -5  -6 306.447 90.6339   1
   5  -5  -6 243.516 105.621   5
   5   5  -6 409.258 114.158   2
  -5  -5  -6 461.693 136.638   5
  -5   5  -6 331.011 104.768   8
  -5   5  -5 11556.8 528.401   8
   5  -5  -5 10883.9 526.629   5
  -5  -5  -5 10492.5 585.912   5
   5  -5  -5 10333.3 401.046   1
  -5  -5  -5 9989.71 479.809   8
   5   5  -5 10400.9 490.853   2
   5  -5  -4 953.568 154.586   6
   5  -5  -4 1275.20 177.171   5
   5  -5  -4 1222.49 126.030   1
  -5  -5  -4 996.422 174.323   5
   5   5  -4 1182.59 163.973   2
  -5   5  -4 1051.57 158.915   8
  -5  -5  -4 1015.32 158.114   8
   5  -5  -3 410.800 103.584   6
   5  -5  -3 465.498 69.8345   1
  -5  -5  -3 378.373 90.2893   5
   5   5  -3 548.913 110.482   2
  -5   5  -3 656.037 127.860   8
   5  -5  -2 9738.40 436.676   6
   5  -5  -2 8929.73 247.023   1
  -5  -5  -2 9261.84 464.590   5
  -5   5  -2 9526.29 423.204   8
  -5  -5  -2 8931.46 296.303   3
   5   5  -2 9333.97 412.102   2
   5   5  -1 25202.0 664.870   2
   5   5  -1 24944.7 482.658   6
  -5   5  -1 24935.7 653.082   8
  -5  -5  -1 25410.6 575.078   3
   5  -5  -1 24907.1 671.592   6
   5   5   0 2222.27 196.966   2
  -5   5   0 2357.49 194.094   8
  -5  -5   0 2243.70 189.624   3
   5  -5   0 2176.19 198.749   6
   5   5   0 2452.05 148.229   6
   5   5   1 25335.2 655.919   2
   5  -5   1 26139.2 722.306   3
   5   5   1 25599.6 539.889   4
  -5   5   1 24872.1 525.088   4
  -5   5   1 24658.0 595.085   8
  -5  -5   1 25677.6 695.662   3
   5   5   1 24941.9 487.470   6
   5  -5   1 25103.2 667.780   6
   5  -5   2 8949.52 427.269   3
  -5   5   2 9340.09 352.772   8
   5   5   2 9124.90 401.198   2
   5   5   2 9143.37 336.195   4
  -5   5   2 9325.86 341.464   4
  -5  -5   2 9306.77 451.552   3
   5   5   2 9210.42 322.590   6
   5  -5   2 9645.13 425.867   6
   5   5   3 372.393 85.5996   2
   5  -5   3 338.725 89.9080   6
  -5  -5   3 480.225 119.924   3
   5   5   3 477.588 84.5462   6
   5  -5   3 499.384 109.872   3
   5   5   3 391.108 79.3231   4
  -5   5   3 389.829 81.6774   4
  -5   5   3 354.303 69.1045   8
   5  -5   4 1189.38 165.747   6
   5   5   4 900.692 140.951   2
  -5   5   4 1121.91 165.850   3
   5   5   4 987.180 135.518   4
  -5  -5   4 1305.09 196.514   3
   5  -5   4 1092.68 160.928   3
  -5   5   4 1063.07 141.447   4
   5   5   4 1273.45 144.530   6
   5  -5   5 10021.4 492.782   3
   5   5   5 9931.75 465.767   2
   5   5   5 9897.19 458.076   4
  -5   5   5 10278.2 474.576   4
  -5   5   5 10474.8 520.153   3
  -5  -5   5 10654.7 580.946   3
   5   5   5 10530.0 452.483   6
   5  -5   5 10826.1 517.764   6
   5   5   6 271.696 83.4253   6
   5  -5   6 248.859 84.7572   6
  -5   5   6 518.118 119.393   3
   5   5   6 437.045 104.233   2
  -5   5   6 265.003 84.7130   4
  -5  -5   6 567.466 145.686   3
   5  -5   6 411.068 112.651   3
   5   5   6 373.933 101.086   4
   5   5   7 1552.54 205.535   6
   5  -5   7 1192.79 201.781   6
   5   5   7 1467.95 198.922   2
  -5   5   7 1178.70 196.947   4
  -5   5   7 1411.37 211.227   3
  -5  -5   7 1715.60 266.837   3
   5   5   7 1353.75 201.573   4
   5   5   8 232.141 93.0106   4
   5   5   8 330.041 108.406   6
   5  -5   8 161.475 96.7392   6
  -5  -5   8 162.131 92.3510   3
  -5   5   8 228.398 99.2780   4
   5   5   9 630.311 162.280   6
   5  -5   9 435.540 156.436   6
  -5  -5   9 640.008 215.351   3
   5   5   9 468.741 145.802   4
  -5   5   9 508.722 156.299   4
   5   6  -9 1084.31 192.134   2
   5  -6  -9 1614.50 269.987   5
   5   6  -8 2934.59 332.460   1
   5  -6  -8 2826.98 339.670   5
  -5  -6  -8 3380.87 410.124   5
  -5   6  -8 3086.77 322.714   8
   5   6  -8 3356.93 325.869   2
  -5   6  -7 2585.28 283.319   8
   5   6  -7 2561.00 293.775   1
   5  -6  -7 2034.90 270.683   5
  -5  -6  -7 2372.03 332.824   5
   5   6  -7 2763.87 283.758   2
   5  -6  -6 1517.22 221.671   5
   5   6  -6 1576.38 205.577   2
  -5  -6  -6 1598.17 258.384   5
  -5   6  -6 1644.94 214.059   8
  -5   6  -5 1261.93 186.554   8
   5  -6  -5 1127.31 183.884   5
  -5  -6  -5 1214.50 210.249   5
   5   6  -5 981.885 159.719   2
   5  -6  -4 3111.28 283.487   6
  -5   6  -4 3564.02 294.481   8
   5  -6  -4 3528.65 301.293   5
  -5  -6  -4 3400.04 327.764   5
   5   6  -4 3261.21 273.780   2
   5  -6  -3 3464.00 282.087   6
  -5  -6  -3 3516.09 320.661   5
   5   6  -3 3776.72 282.722   2
   5  -6  -2 46271.7 972.541   6
  -5  -6  -2 45352.5 1061.13   5
   5   6  -2 45167.8 947.909   2
   5  -6  -1 7486.53 381.559   6
   5   6  -1 7380.05 380.823   2
  -5   6  -1 7861.05 382.623   8
  -5  -6  -1 7312.51 327.290   3
   5  -6   0 12.9703 47.2377   6
  -5  -6   0 35.5453 40.5859   3
  -5   6   0 20.8201 43.5450   8
   5   6   0 0.63278 43.5677   2
   5  -6   1 7741.69 416.374   3
   5   6   1 7859.74 388.128   2
   5   6   1 8108.17 335.048   4
  -5   6   1 7723.92 321.788   4
  -5   6   1 7581.66 341.744   8
  -5  -6   1 7522.92 394.627   3
   5  -6   1 7557.15 376.221   6
   5  -6   2 45115.9 1017.34   3
   5   6   2 45524.4 954.176   2
   5   6   2 44141.7 809.075   4
  -5   6   2 45837.8 821.850   4
  -5   6   2 46018.8 806.214   8
  -5  -6   2 44872.9 1029.47   3
   5   6   2 45910.0 682.585   6
   5  -6   2 48010.4 968.261   6
   5  -6   3 3697.68 300.819   3
   5   6   3 3537.01 274.654   2
   5   6   3 3069.65 224.947   4
  -5   6   3 3630.70 249.622   4
  -5   6   3 3686.43 217.158   8
  -5  -6   3 3776.85 321.618   3
   5   6   3 3758.00 220.653   6
   5  -6   3 3325.14 266.553   6
   5  -6   4 3510.08 301.861   3
   5   6   4 3463.14 281.799   2
   5   6   4 3598.73 263.273   4
  -5   6   4 3164.88 251.794   4
  -5  -6   4 2755.01 294.668   3
   5   6   4 3016.27 215.894   6
   5  -6   4 3112.47 272.076   6
   5  -6   5 1108.11 177.810   6
  -5   6   5 1027.69 173.210   3
   5   6   5 1096.96 168.573   2
  -5  -6   5 1433.57 227.140   3
   5  -6   5 1229.96 188.669   3
   5   6   5 1128.72 158.050   4
  -5   6   5 1174.74 168.335   4
   5   6   5 1354.61 165.390   6
   5   6   6 1658.63 196.684   6
   5  -6   6 1767.44 232.739   6
  -5   6   6 1726.06 224.962   3
   5   6   6 1668.48 212.071   2
  -5  -6   6 1528.82 247.955   3
   5   6   6 1717.50 212.394   4
   5  -6   6 1945.63 235.956   3
  -5   6   6 1685.16 219.997   4
  -5   6   7 2074.86 257.803   3
   5   6   7 2170.43 250.920   2
  -5  -6   7 2443.44 330.558   3
   5   6   7 2452.99 279.247   4
  -5   6   7 2886.48 307.799   4
   5   6   7 2353.57 252.447   6
   5  -6   7 2687.99 306.777   6
  -5  -6   8 3255.55 403.138   3
   5   6   8 3227.80 340.525   4
  -5   6   8 3219.30 349.782   4
   5   6   8 3230.94 317.133   6
   5  -6   8 3780.56 374.862   6
  -5   6   9 1339.63 240.737   4
   5   6   9 1446.70 252.878   4
  -5   7  -8 1552.11 241.234   8
   5  -7  -8 1505.51 259.652   5
   5   7  -8 1133.05 203.124   2
  -5  -7  -8 1369.77 280.485   5
   5   7  -8 1686.31 262.553   1
   5   7  -7 1681.36 246.654   1
   5  -7  -7 1236.44 218.356   5
   5   7  -7 1457.00 219.503   2
  -5  -7  -7 1405.18 265.236   5
  -5   7  -7 1278.20 210.527   8
   5  -7  -6 886.156 176.854   5
  -5  -7  -6 678.801 182.857   5
   5   7  -6 1247.32 193.281   2
  -5   7  -6 1005.64 180.969   8
   5  -7  -5 2619.21 288.898   5
  -5  -7  -5 2442.94 304.740   5
   5   7  -5 2378.58 248.328   2
   5  -7  -4 1285.66 190.214   6
   5  -7  -4 1308.62 196.354   5
  -5  -7  -4 1407.52 221.841   5
   5   7  -4 1322.82 176.507   2
   5  -7  -3 244.772 91.7897   6
   5  -7  -3 111.672 54.2433   5
  -5  -7  -3 76.2362 80.3959   5
   5   7  -3 55.5389 64.9031   2
   5   7  -2 699.789 130.461   2
   5  -7  -2 929.885 149.429   6
  -5  -7  -2 790.229 156.034   5
   5  -7  -1 10750.9 469.732   6
   5   7  -1 9575.05 452.470   2
  -5  -7  -1 9534.03 472.159   5
  -5  -7  -1 10405.6 414.477   3
   5   7   0 19936.8 651.104   2
   5  -7   0 22258.1 742.457   3
  -5   7   0 21416.4 629.665   8
  -5  -7   0 20432.0 635.898   3
   5  -7   0 19135.8 618.287   6
   5  -7   1 10179.8 506.743   3
   5   7   1 10244.6 470.099   2
  -5   7   1 10125.5 403.565   4
  -5   7   1 10439.9 421.512   8
  -5  -7   1 9609.78 469.917   3
   5  -7   1 10647.5 461.502   6
   5   7   2 912.629 148.661   2
   5  -7   2 1080.39 153.472   6
  -5  -7   2 593.474 130.693   3
   5   7   2 794.582 122.788   4
   5  -7   2 925.742 164.695   3
  -5   7   2 755.727 118.994   4
  -5   7   2 816.776 112.816   8
   5   7   3-38.9538 45.8901   2
   5  -7   3-15.1658 37.8691   6
  -5  -7   3 150.825 84.2426   3
   5  -7   3 191.368 92.6658   3
   5   7   3 51.5194 53.3243   4
  -5   7   3 59.3585 51.6188   4
   5  -7   4 1314.36 183.745   6
   5   7   4 1347.04 189.063   2
  -5  -7   4 1368.16 219.948   3
   5  -7   4 1395.22 205.167   3
  -5   7   4 1503.25 184.156   4
   5   7   4 1053.94 152.883   4
   5  -7   5 2881.43 300.589   3
  -5   7   5 2047.14 242.727   3
   5   7   5 2986.82 290.479   2
  -5  -7   5 2567.06 312.106   3
   5   7   5 2647.19 254.103   4
  -5   7   5 3204.45 285.060   4
   5  -7   5 2243.95 251.611   6
   5   7   6 1152.73 184.701   4
   5  -7   6 1127.64 185.167   6
  -5   7   6 990.288 182.913   3
   5   7   6 873.118 164.525   2
  -5  -7   6 788.328 192.416   3
   5  -7   6 747.908 167.177   3
  -5   7   6 1212.57 186.143   4
   5  -7   7 2024.76 266.868   6
   5   7   7 1346.73 213.226   2
   5   7   7 1652.44 241.064   4
  -5  -7   7 1527.78 272.651   3
  -5   7   7 1589.73 236.064   4
   5  -7   8 1313.96 236.736   6
  -5  -7   8 1614.81 290.609   3
   5   7   8 1272.90 224.974   4
  -5   7   8 1572.45 247.177   4
   5  -8  -8 4781.67 470.682   5
   5   8  -8 4872.13 407.971   2
  -5   8  -8 4687.28 425.408   8
   5  -8  -7 873.277 202.079   5
   5   8  -7 860.651 168.677   2
  -5  -8  -7 1145.73 245.003   5
  -5   8  -7 702.798 166.901   8
   5   8  -7 708.925 162.001   1
   5  -8  -6 1557.16 244.026   5
  -5  -8  -6 1199.56 238.333   5
   5   8  -6 1992.36 243.809   2
   5  -8  -5-51.6010 64.7776   5
  -5  -8  -5-47.5785 84.8163   5
   5   8  -5-3.82050 53.1867   2
   5  -8  -4 491.414 137.004   5
  -5  -8  -4 303.559 104.453   5
   5   8  -4 567.442 119.712   2
   5  -8  -3 229.263 74.7362   6
   5  -8  -3 353.182 111.398   5
  -5  -8  -3 119.967 81.5559   5
   5   8  -3 99.3521 68.5550   2
   5  -8  -2 4604.32 326.784   6
   5  -8  -2 4904.17 352.659   5
  -5  -8  -2 4128.49 340.395   5
   5   8  -2 4473.61 328.285   2
   5  -8  -1 214.894 75.0299   6
  -5  -8  -1 336.339 85.9415   3
  -5  -8  -1 396.242 108.669   5
   5   8  -1 347.925 100.933   2
   5   8   0 7953.46 433.658   2
   5  -8   0 6969.06 439.484   3
  -5  -8   0 6360.17 374.153   3
   5  -8   0 6881.15 381.243   6
   5  -8   1 245.340 74.8424   6
  -5  -8   1 249.727 90.6168   3
   5  -8   1 311.769 100.686   3
  -5   8   1 310.437 84.6725   8
   5   8   1 360.442 101.489   2
   5  -8   2 5230.84 338.865   6
  -5   8   2 4868.87 287.975   8
   5   8   2 4476.04 336.949   2
   5   8   2 4714.73 307.707   4
  -5   8   2 4900.72 313.175   4
   5  -8   2 4428.10 363.345   3
  -5  -8   2 4532.11 361.487   3
   5   8   3 155.504 77.6049   2
   5  -8   3 302.280 95.6146   6
  -5  -8   3 191.802 84.0303   3
   5  -8   3 126.244 69.9580   3
   5   8   3 156.813 70.4354   4
  -5   8   3 85.1693 53.5944   4
  -5   8   4 342.812 94.5128   4
   5  -8   4 515.206 120.036   6
   5   8   4 478.759 129.005   2
  -5  -8   4 487.134 141.489   3
   5  -8   4 414.217 133.960   3
   5   8   4 328.474 89.0058   4
   5  -8   5 16.1415 54.3100   6
   5   8   5-41.8179 77.8182   2
  -5  -8   5 205.521 118.412   3
   5  -8   5-0.28302 59.4449   3
   5   8   5-35.5987 51.9609   4
  -5   8   5 215.770 90.4724   4
   5  -8   6 1261.31 203.445   6
  -5   8   6 1004.10 184.621   3
   5   8   6 1377.08 216.806   2
  -5  -8   6 1359.93 247.562   3
   5  -8   6 1107.81 204.714   3
   5   8   6 1181.46 192.930   4
  -5   8   6 1338.94 207.261   4
   5  -8   7 953.880 182.399   6
   5   8   7 847.740 176.743   2
  -5  -8   7 634.291 180.218   3
   5  -8   7 676.498 168.060   3
   5   8   7 693.316 159.018   4
  -5   8   7 801.609 178.557   4
   5   8   8 4280.77 404.801   2
   5   8   8 3755.67 386.436   4
  -5   8   8 4920.55 443.600   4
   5  -8   8 4688.74 430.478   6
   5   9  -7 4587.03 388.094   2
   5  -9  -7 4361.63 444.895   5
  -5  -9  -7 4598.27 490.428   5
   5   9  -7 4172.88 395.955   1
  -5   9  -7 4494.27 414.174   8
   5  -9  -6 304.076 129.829   5
  -5  -9  -6 308.150 129.073   5
   5   9  -6 208.739 89.6652   2
   5  -9  -5 923.657 186.806   5
  -5  -9  -5 1206.22 239.600   5
   5   9  -5 824.625 158.271   2
   5  -9  -4 370.059 121.799   5
  -5  -9  -4 850.557 192.679   5
   5   9  -4 425.268 123.495   2
   5   9  -3 1643.88 213.862   2
   5  -9  -3 1391.06 194.238   6
   5  -9  -3 1309.00 208.110   5
  -5  -9  -3 1350.79 217.306   5
   5   9  -2 2089.35 239.935   2
   5  -9  -2 1786.47 211.295   6
  -5  -9  -2 2421.83 275.792   5
   5  -9  -2 1859.49 229.380   5
   5  -9  -1 277.239 95.3716   6
   5  -9  -1 507.636 122.268   5
  -5  -9  -1 576.868 132.053   5
   5   9  -1 311.277 108.860   2
   5   9   0 3178.41 291.529   2
   5  -9   0 3147.49 309.358   3
  -5  -9   0 2920.57 266.649   3
   5  -9   0 2399.27 234.104   6
   5  -9   1 267.268 85.8979   6
  -5  -9   1 303.898 99.5523   3
   5  -9   1 616.515 151.127   3
   5   9   1 318.486 97.2042   2
   5   9   2 2502.62 262.722   2
  -5  -9   2 1965.23 246.465   3
   5   9   2 2234.07 229.261   4
  -5   9   2 2228.96 230.109   4
   5  -9   2 2273.45 277.204   3
  -5   9   2 1818.95 184.990   8
   5  -9   2 1943.48 216.640   6
   5   9   3 1468.09 210.898   2
   5  -9   3 1476.71 197.140   6
  -5  -9   3 1372.81 213.428   3
   5  -9   3 1217.09 213.619   3
   5   9   3 1431.37 191.005   4
  -5   9   3 1383.32 186.250   4
   5   9   4 311.746 107.854   2
   5  -9   4 349.747 100.708   6
  -5  -9   4 450.647 138.089   3
   5  -9   4 588.152 139.174   3
   5   9   4 648.752 134.359   4
  -5   9   4 379.225 110.345   4
   5  -9   5 923.502 172.389   6
   5   9   5 594.549 145.720   2
  -5  -9   5 568.246 174.185   3
   5  -9   5 464.236 148.514   3
  -5   9   5 710.370 152.171   4
   5   9   5 701.104 144.584   4
   5  -9   6 342.855 118.625   6
   5   9   6 395.663 132.556   2
  -5   9   6 57.4441 55.0522   3
  -5  -9   6 506.043 181.711   3
   5  -9   6 267.292 113.378   3
   5   9   6 370.135 123.251   4
  -5   9   6 330.541 117.844   4
   5  -9   7 4070.27 415.741   3
   5   9   7 4620.60 422.876   2
   5   9   7 3705.79 368.942   4
  -5   9   7 4318.18 404.482   4
  -5  -9   7 3843.29 445.029   3
   5  -9   7 4864.31 418.303   6
   5  -9   8 372.153 123.569   6
   5  10  -7 369.753 138.734   2
   5  10  -7 620.642 167.773   1
   5 -10  -6 167.049 120.815   5
  -5 -10  -6 102.255 125.874   5
   5  10  -6 12.0190 81.5871   2
   5 -10  -5 2537.99 325.649   5
  -5 -10  -5 1940.63 310.692   5
   5  10  -5 1999.33 253.299   2
   5 -10  -4 4742.17 413.228   5
  -5 -10  -4 5230.83 463.681   5
   5  10  -4 4829.43 383.866   2
   5 -10  -3 567.571 135.646   6
   5 -10  -3 838.345 189.140   5
  -5 -10  -3 726.146 179.533   5
   5  10  -3 753.562 153.513   2
   5  10  -2 5449.96 395.138   2
   5 -10  -2 4687.91 344.001   6
   5 -10  -2 5190.30 395.910   5
  -5 -10  -2 5472.20 424.412   5
   5 -10  -1 197.425 85.8056   6
   5 -10  -1 213.020 88.2173   5
  -5 -10  -1 132.411 66.3297   5
   5  10  -1 457.751 129.663   2
   5 -10   0 148.643 62.1716   6
   5 -10   0-13.6162 68.3611   5
  -5 -10   0 42.8025 72.5876   3
   5 -10   0 59.3001 62.5106   3
   5  10   0-36.3505 69.5664   2
   5 -10   1 250.130 89.3977   6
  -5 -10   1 278.632 110.284   3
   5 -10   1 307.931 135.915   3
   5  10   1 447.947 139.459   2
   5 -10   2 5700.98 449.549   3
   5  10   2 5466.62 411.928   2
   5  10   2 5342.67 369.872   4
  -5  10   2 6343.81 408.262   4
  -5 -10   2 5370.92 430.098   3
   5 -10   2 5466.09 365.585   6
   5  10   3 647.655 151.577   2
   5 -10   3 631.288 124.593   6
  -5 -10   3 503.418 134.140   3
   5 -10   3 492.073 148.157   3
   5  10   3 662.075 137.273   4
  -5  10   3 729.168 146.604   4
   5 -10   4 3896.35 394.882   3
   5  10   4 4352.84 388.812   2
   5  10   4 4052.59 347.567   4
  -5  10   4 4203.68 357.182   4
  -5 -10   4 4664.24 442.464   3
   5 -10   4 4252.78 345.243   6
   5 -10   5 1929.63 249.540   6
   5  10   5 2199.58 285.361   2
  -5 -10   5 1831.07 294.826   3
   5 -10   5 2350.36 309.622   3
   5  10   5 2251.79 270.673   4
  -5  10   5 1934.38 250.608   4
   5  10   6 241.785 116.889   2
  -5 -10   6 28.4116 86.6136   3
   5 -10   6 130.868 112.060   3
   5  10   6 184.618 99.3920   4
  -5  10   6 46.1704 66.5727   4
   5  10   7 535.992 156.491   2
  -5  10   7 299.669 112.758   4
   5 -10   7 235.778 106.857   3
   5  10   7 342.427 127.650   4
   5  11  -6 1066.14 198.165   2
   5 -11  -5 558.140 168.390   5
  -5 -11  -5 839.827 211.444   5
   5  11  -5 725.063 156.847   2
   5 -11  -4 377.084 137.389   5
  -5 -11  -4 182.060 74.3832   5
   5  11  -4 543.689 155.561   2
   5 -11  -3 3249.20 346.686   5
  -5 -11  -3 3204.67 355.254   5
   5  11  -3 2672.96 295.813   2
   5 -11  -2 1347.28 213.343   5
  -5 -11  -2 1742.81 256.560   5
   5  11  -2 1589.41 231.801   2
   5  11  -1 4038.73 362.507   2
   5 -11  -1 3422.15 328.434   5
  -5 -11  -1 3925.85 352.849   5
   5 -11   0-87.3903 70.0640   5
   5 -11   0 105.301 77.7920   3
   5  11   0 149.711 91.6376   2
   5 -11   1 3644.69 380.113   3
   5  11   1 3808.70 356.620   2
   5 -11   1 4062.00 328.345   5
  -5 -11   1 3184.73 330.956   3
  -5 -11   2 1390.04 233.365   3
   5 -11   2 1368.09 240.297   3
   5  11   2 1548.98 229.735   2
   5 -11   3 3279.64 371.664   3
   5  11   3 3376.82 346.136   2
   5  11   3 2706.94 294.480   4
  -5  11   3 3687.78 340.561   4
  -5 -11   3 3054.09 357.194   3
  -5 -11   4-30.6872 93.0494   3
   5 -11   4 379.402 143.309   3
   5  11   4 203.894 107.826   4
  -5  11   4 165.764 80.6326   4
   5  11   4 181.060 94.7135   2
   5  11   5 937.000 199.949   2
  -5 -11   5 938.436 224.055   3
   5 -11   5 822.003 204.665   3
   5  11   5 781.523 168.102   4
  -5  11   5 1159.48 204.427   4
   5  11   6 1489.59 254.404   2
   5 -11   6 1362.81 258.891   3
   5  11   6 1209.55 213.408   4
  -5  11   6 1155.47 220.270   4
  -5 -12  -5 551.694 176.188   5
   5  12  -5 713.558 162.809   2
   5 -12  -4 4243.00 428.626   5
  -5 -12  -4 3452.50 407.233   5
   5  12  -4 3449.66 352.347   2
   5 -12  -3 337.683 131.081   5
  -5 -12  -3 232.372 128.250   5
   5  12  -3 388.161 121.124   2
   5  12  -2 6467.52 471.254   2
   5 -12  -2 6282.38 479.531   5
  -5 -12  -2 6652.31 506.002   5
   5 -12  -1 2223.83 276.104   5
   5  12  -1 2199.93 280.303   2
   5  12   0 5214.65 433.769   2
   5 -12   0 6381.13 509.608   3
   5 -12   0 5572.83 426.284   5
   5  12   1 3001.96 333.623   2
   5 -12   1 2321.54 315.312   3
  -5 -12   1 2786.86 322.920   3
   5 -12   2 6665.63 540.578   3
   5  12   2 6978.34 510.731   2
  -5 -12   2 7011.52 535.708   3
   5  12   3 217.963 101.537   2
  -5 -12   3 431.441 164.400   3
   5  12   3 337.515 112.432   4
  -5  12   3 425.930 129.686   4
   5 -12   3 455.059 135.461   3
   5  12   4 3845.15 394.892   2
   5  12   4 4221.70 393.186   4
  -5  12   4 4153.45 389.890   4
   5 -12   4 3174.74 388.967   3
  -5 -12   4 3894.57 438.487   3
   5  12   5 696.744 167.255   4
  -5  12   5 661.048 158.869   4
  -5 -13  -4 296.044 136.719   5
   5  13  -4 458.851 151.418   2
   5 -13  -3 5283.98 477.808   5
  -5 -13  -3 4342.70 447.743   5
   5  13  -3 4657.64 419.363   2
   5 -13  -2 470.157 156.935   5
   5  13  -2 663.825 174.009   2
   5 -13  -1 1310.62 225.945   5
   5  13  -1 922.582 205.951   2
   5 -13   0 589.293 177.364   3
   5  13   0 848.345 183.188   2
   5 -13   1 643.126 167.451   3
   5  13   1 958.466 194.131   2
  -5 -13   2 231.207 89.8615   3
   5 -13   2 530.893 170.316   3
   5  13   2 582.006 171.101   2
   5 -13   3 4903.09 495.618   3
   5  13   3 4010.71 410.771   2
  -5 -13   3 4510.08 470.663   3
   5  13   4 383.149 130.927   4
  -5  13   4 511.459 154.118   4
   5 -14  -2 543.335 180.244   5
   5 -14  -1 909.888 195.794   5
  -5 -14   2 468.203 162.121   3
   6   0  -9 363.613 136.107   1
   6   0  -8 1468.05 222.486   1
   6   0  -7 4981.61 378.591   1
  -6   0  -7 4837.57 367.865   8
   6   0  -6 7360.23 383.436   5
   6   0  -6 7525.17 431.023   1
   6   0  -6 7627.29 445.894   2
  -6   0  -6 7663.70 447.365   8
  -6   0  -5 5124.96 350.917   8
   6   0  -5 5067.14 339.778   2
   6   0  -4 15740.4 588.549   6
  -6   0  -4 16252.8 600.945   8
   6   0  -4 16270.8 569.292   2
   6   0  -3 31304.5 787.400   6
  -6   0  -3 31624.5 810.764   8
   6   0  -3 32984.8 757.144   2
   6   0  -2 14205.8 500.953   6
  -6   0  -2 14080.4 522.955   8
   6   0  -2 13301.4 449.370   2
  -6   0  -1 35520.3 704.223   3
  -6   0  -1 34774.5 806.620   8
   6   0  -1 34273.3 677.154   2
   6   0  -1 34943.8 758.129   6
  -6   0   0 9029.49 408.045   8
  -6   0   0 8909.34 372.174   3
   6   0   0 9200.76 326.608   2
   6   0   0 9080.48 383.736   6
  -6   0   1 36735.7 796.418   3
  -6   0   1 36363.1 812.529   8
   6   0   1 35397.9 609.845   2
   6   0   1 36219.0 768.789   6
   6   0   2 13060.9 475.603   6
  -6   0   2 12550.8 485.862   8
  -6   0   2 13544.0 511.266   3
   6   0   2 13458.6 353.986   2
  -6   0   3 31694.4 763.196   8
  -6   0   3 32226.3 837.787   3
  -6   0   3 32992.1 553.768   7
   6   0   3 32544.6 550.510   7
   6   0   3 31489.4 775.141   6
   6   0   3 32676.6 536.508   2
  -6   0   4 16133.6 630.320   3
  -6   0   4 16443.6 472.000   7
   6   0   4 15745.6 467.194   7
   6   0   4 16044.1 581.734   6
  -6   0   5 5253.00 305.294   7
   6   0   5 4258.45 276.959   7
   6   0   5 4653.79 334.179   6
  -6   0   5 4785.47 367.010   3
  -6   0   6 7965.09 502.760   3
  -6   0   6 7602.99 413.747   7
   6   0   6 7091.30 402.404   7
   6   0   6 7468.07 450.870   6
  -6   0   7 5216.07 436.744   3
  -6   0   7 4274.54 342.298   7
   6   0   7 4688.96 361.848   7
   6   0   7 4625.42 383.607   6
   6   0   8 1527.52 235.580   6
  -6   0   8 1270.12 233.643   3
  -6   0   8 1406.90 217.084   7
   6   0   9 287.159 116.755   6
  -6   0   9 230.361 115.989   3
   6   1  -9 524.603 153.121   1
   6  -1  -9 683.182 166.037   1
   6  -1  -8 165.166 82.6663   1
   6   1  -8 205.658 84.1256   1
   6  -1  -7 3851.13 328.797   1
   6   1  -7 3650.36 326.552   1
   6   1  -7 3872.25 339.334   2
  -6   1  -7 3839.77 328.465   8
  -6  -1  -7 3925.29 329.505   8
   6  -1  -6 7025.76 410.665   1
   6  -1  -6 7277.63 403.250   5
  -6   1  -6 7560.20 443.425   8
  -6  -1  -6 7090.85 427.532   8
   6   1  -6 7748.29 449.971   2
   6  -1  -5 2393.44 235.044   2
  -6  -1  -5 2784.33 262.670   8
   6   1  -5 2567.06 247.089   2
  -6   1  -5 2927.64 262.781   8
  -6   1  -4 13762.7 550.123   8
   6  -1  -4 14334.2 573.783   6
  -6  -1  -4 13961.8 560.955   8
   6  -1  -4 14012.3 523.672   2
   6   1  -4 14017.7 533.460   2
   6  -1  -3 6180.91 358.547   6
   6   1  -3 6208.24 343.999   6
   6  -1  -3 6046.19 322.719   2
  -6  -1  -3 6631.58 374.246   8
  -6   1  -3 6365.22 364.386   8
  -6  -1  -3 6205.22 251.656   3
   6   1  -3 6540.53 340.900   2
   6  -1  -2 7791.85 381.332   6
   6   1  -2 7411.00 356.460   6
  -6   1  -2 8314.30 401.375   8
  -6  -1  -2 7911.30 400.133   8
  -6  -1  -2 7994.93 306.053   3
   6  -1  -2 8346.08 352.470   2
   6   1  -2 7832.40 352.177   2
   6  -1  -1 1758.93 155.736   2
  -6  -1  -1 2215.04 210.935   8
  -6   1  -1 1769.21 180.036   8
  -6  -1  -1 1977.74 162.219   3
   6   1  -1 2102.18 177.236   2
   6  -1  -1 1841.92 178.891   6
   6   1  -1 1933.58 176.817   6
   6  -1   0 818.229 120.409   6
   6   1   0 1069.75 128.782   6
  -6  -1   0 999.254 126.633   3
   6  -1   0 898.204 99.0816   2
  -6   1   0 1407.22 158.338   8
  -6  -1   0 951.339 139.775   8
   6   1   0 1103.34 122.892   2
  -6  -1   1 1907.04 196.565   8
  -6   1   1 2188.02 195.065   3
  -6  -1   1 2051.86 191.291   3
  -6   1   1 2196.20 196.295   8
   6  -1   1 2078.35 138.148   2
   6   1   1 1670.81 141.378   2
   6   1   1 2133.11 183.318   6
   6  -1   1 2253.12 200.810   6
  -6   1   2 7996.02 206.720   4
  -6   1   2 8733.91 417.404   3
  -6  -1   2 7861.98 394.147   3
  -6   1   2 7959.09 371.243   8
  -6  -1   2 7326.65 380.215   8
  -6   1   2 7690.31 206.448   7
   6  -1   2 8100.29 246.924   2
   6   1   2 7452.44 352.110   6
   6  -1   2 7667.87 372.849   6
   6   1   2 8452.73 306.453   2
   6   1   3 6111.63 258.782   2
  -6   1   3 6340.82 249.167   7
  -6   1   3 5965.21 322.523   8
  -6   1   3 6165.91 368.836   3
  -6  -1   3 6352.94 378.949   3
   6   1   3 6259.78 243.071   7
   6   1   3 6750.45 353.312   6
   6  -1   3 6224.06 354.104   6
   6   1   4 14277.4 397.717   2
  -6   1   4 13458.0 580.190   3
  -6  -1   4 13537.2 588.379   3
  -6   1   4 13565.9 428.444   7
   6   1   4 13905.1 439.621   7
  -6  -1   4 14069.2 441.036   7
   6   1   4 13331.3 524.710   6
   6  -1   4 14054.2 559.477   6
  -6  -1   5 2871.22 289.762   3
  -6   1   5 2622.11 273.524   3
  -6   1   5 2633.77 217.839   7
   6   1   5 2394.59 204.866   7
  -6  -1   5 2413.93 208.200   7
   6  -1   5 2345.32 208.008   7
   6   1   5 2892.03 263.088   6
   6  -1   5 2761.25 261.870   6
  -6   1   6 7383.26 482.882   3
  -6  -1   6 8363.15 522.378   3
  -6   1   6 7465.66 406.793   7
   6   1   6 6909.31 397.662   7
  -6  -1   6 7583.12 414.791   7
   6  -1   6 7541.02 418.214   7
   6   1   6 7783.12 458.684   6
   6  -1   6 7704.01 462.847   6
  -6   1   7 4363.66 392.487   3
  -6   1   7 3205.23 293.310   7
   6   1   7 3203.15 298.043   7
  -6  -1   7 3886.14 378.389   3
  -6  -1   7 3475.79 310.915   7
   6  -1   7 3512.88 317.917   7
   6   1   7 4097.31 359.059   6
   6  -1   7 3415.98 333.020   6
   6   1   8 78.1470 65.7191   6
   6  -1   8 68.8010 62.1932   6
  -6   1   8 2.28699 61.8507   3
  -6  -1   8 204.577 115.087   3
  -6   1   8 58.4222 85.3771   7
  -6  -1   8-67.3943 76.5758   7
   6   1   9 487.141 158.913   6
   6  -1   9 595.384 172.942   6
  -6   1   9 652.891 180.921   3
  -6  -1   9 854.671 222.929   3
   6   2  -9 1047.77 206.553   1
   6  -2  -9 1180.01 210.528   1
   6   2  -8 704.404 168.874   1
  -6   2  -8 285.450 89.1725   8
   6  -2  -8 577.514 148.534   1
   6  -2  -7 2609.08 266.837   5
   6   2  -7 2506.75 278.056   1
   6   2  -7 2110.11 252.200   2
  -6   2  -7 2336.38 262.932   8
   6  -2  -7 2828.83 276.228   1
   6  -2  -6 4597.10 328.463   1
   6  -2  -6 4256.02 321.355   5
  -6   2  -6 4836.27 355.286   8
  -6  -2  -6 4563.07 345.398   8
   6   2  -6 4474.19 345.892   2
   6  -2  -5 3386.30 260.951   1
  -6   2  -5 3327.72 290.764   8
  -6  -2  -5 3227.35 284.184   8
   6   2  -5 3179.28 275.332   2
   6  -2  -4 2225.35 231.448   6
  -6   2  -4 1957.98 209.345   8
  -6  -2  -4 1784.49 206.406   8
   6   2  -4 2128.36 215.604   2
   6  -2  -3 1875.18 203.237   6
   6   2  -3 1687.72 179.126   6
   6  -2  -3 1775.15 176.288   2
  -6   2  -3 1637.12 184.931   8
  -6  -2  -3 1622.59 193.124   8
   6   2  -3 1961.99 194.822   2
   6  -2  -2 5958.14 340.084   6
   6   2  -2 5553.73 301.617   6
  -6   2  -2 6176.72 348.239   8
  -6  -2  -2 5497.93 345.917   8
   6  -2  -2 5706.96 290.077   2
  -6  -2  -2 5938.57 257.453   3
   6   2  -2 5801.61 310.470   2
  -6   2  -1 938.070 129.793   8
   6  -2  -1 1013.54 142.720   6
   6   2  -1 1075.82 127.104   6
  -6  -2  -1 1133.23 157.993   8
  -6  -2  -1 1003.04 116.400   3
   6  -2  -1 928.695 110.836   2
   6   2  -1 1019.50 129.380   2
   6  -2   0 4121.25 206.180   2
  -6   2   0 4140.46 268.495   8
  -6  -2   0 3712.33 281.908   8
  -6  -2   0 3720.60 238.976   3
   6   2   0 4031.22 239.718   2
   6  -2   0 3376.81 246.175   6
   6   2   0 3972.97 240.422   6
   6   2   1 1150.59 131.490   6
   6  -2   1 957.533 137.201   6
  -6  -2   1 1226.15 150.779   3
  -6   2   1 884.650 121.417   8
  -6  -2   1 793.141 130.601   8
   6  -2   1 1278.46 101.681   2
   6   2   1 1151.74 125.585   2
   6   2   2 5917.64 277.382   2
   6   2   2 5904.82 188.144   4
  -6   2   2 6112.23 197.911   4
  -6   2   2 5885.81 312.818   8
  -6   2   2 5848.87 346.880   3
   6  -2   2 5996.76 188.207   2
  -6  -2   2 6236.86 356.369   3
   6   2   2 5742.59 305.057   6
   6  -2   2 5636.32 330.198   6
   6   2   3 1882.15 159.868   2
  -6   2   3 1312.95 180.607   3
  -6  -2   3 1655.60 197.991   3
   6   2   3 1775.24 132.301   4
  -6   2   3 1645.23 131.174   4
  -6   2   3 1735.86 167.351   8
   6   2   3 1794.40 182.120   6
   6  -2   3 1969.36 206.622   6
   6   2   4 2239.71 175.181   2
  -6  -2   4 1610.16 212.424   3
  -6   2   4 1987.78 180.139   8
   6   2   4 2052.46 206.796   6
   6  -2   4 2230.36 225.649   6
  -6   2   4 1975.72 223.347   3
  -6   2   5 2944.86 289.116   3
  -6  -2   5 3181.86 311.505   3
   6   2   5 3285.55 276.467   6
   6  -2   5 3667.42 307.487   6
  -6   2   6 4879.34 389.560   3
  -6  -2   6 4119.49 373.382   3
   6   2   6 4606.96 351.616   6
   6  -2   6 4535.07 360.476   6
  -6  -2   7 2528.79 316.933   3
  -6   2   7 2631.36 303.778   3
  -6   2   7 2406.99 259.665   7
   6   2   7 2166.14 248.290   7
   6   2   7 2210.85 261.042   6
   6  -2   7 2758.50 305.185   6
   6   2   8 299.733 120.072   6
   6  -2   8 503.598 144.780   6
  -6   2   8 637.274 174.974   3
  -6  -2   8 264.553 129.182   3
  -6   2   8 334.542 117.820   7
   6   2   9 1102.51 213.026   6
   6  -2   9 1126.07 223.550   6
  -6   2   9 989.635 207.662   3
  -6  -2   9 843.879 220.255   3
   6  -3  -9 2533.96 300.338   1
   6   3  -8 2565.97 306.059   1
   6   3  -8 2720.40 303.542   2
  -6   3  -8 2708.09 297.085   8
   6  -3  -8 2355.71 266.177   1
   6   3  -7 661.133 154.410   1
  -6   3  -7 376.800 116.806   8
   6  -3  -7 651.864 133.838   5
   6   3  -7 252.590 104.930   2
   6  -3  -7 548.151 123.126   1
   6  -3  -6-13.8265 44.4534   5
   6   3  -6 147.275 95.1513   2
   6  -3  -6-29.3102 53.3704   1
  -6   3  -6 14.9342 62.1812   8
  -6  -3  -6 41.9622 46.1622   8
   6  -3  -5 1702.12 181.914   1
  -6  -3  -5 1818.05 221.452   8
   6  -3  -5 1740.15 201.358   5
  -6   3  -5 1664.60 209.540   8
   6   3  -5 2075.33 227.674   2
   6  -3  -4 560.093 127.737   6
   6   3  -4 687.059 120.909   2
  -6   3  -4 701.549 133.211   8
  -6  -3  -4 743.524 138.759   8
   6   3  -3 1542.75 167.584   6
   6  -3  -3 1493.91 181.489   6
  -6   3  -3 1991.76 206.295   8
  -6  -3  -3 1632.55 201.944   8
   6   3  -3 2017.41 202.792   2
   6  -3  -2 778.217 129.335   6
   6   3  -2 715.743 110.108   6
  -6  -3  -2 877.617 99.3390   3
   6   3  -2 713.698 117.391   2
  -6   3  -2 982.055 142.423   8
  -6  -3  -2 916.120 148.936   8
   6  -3  -1 283.303 84.2481   6
   6   3  -1 450.945 84.4062   6
  -6  -3  -1 292.184 63.5539   3
   6   3  -1 393.337 84.1223   2
  -6   3  -1 254.596 75.9523   8
  -6  -3  -1 314.433 87.5884   8
   6  -3   0 8.24667 40.3196   6
   6   3   0 86.2599 47.6078   6
  -6  -3   0-1.45558 27.9170   3
  -6   3   0 15.2810 30.1082   8
   6   3   0-24.3651 41.3641   2
  -6  -3   0 69.7010 42.1675   8
   6   3   1 510.338 91.3103   6
   6  -3   1 446.151 98.5573   6
  -6  -3   1 563.341 107.948   3
  -6   3   1 436.392 89.4190   8
   6   3   1 454.675 89.1958   2
   6   3   2 920.051 122.407   6
   6  -3   2 955.781 144.111   6
  -6  -3   2 920.458 145.443   3
   6   3   2 971.390 89.0879   4
  -6   3   2 1020.20 92.3605   4
  -6   3   2 907.107 118.684   8
   6   3   2 947.509 123.711   2
   6  -3   3 1592.70 188.786   6
   6   3   3 1586.89 158.300   2
  -6  -3   3 1590.50 200.924   3
   6   3   3 1767.01 139.560   4
  -6   3   3 1704.65 138.783   4
  -6   3   3 1540.69 157.377   8
  -6   3   3 2067.73 223.885   3
   6   3   3 1744.66 177.692   6
   6   3   4 702.117 124.031   6
   6  -3   4 919.928 154.041   6
  -6   3   4 911.820 163.559   3
  -6  -3   4 1046.16 178.716   3
   6  -3   4 747.133 125.640   3
   6   3   4 622.830 98.5444   4
  -6   3   4 817.913 112.196   4
   6   3   4 476.210 92.3149   2
   6  -3   5 1907.08 224.410   6
   6  -3   5 1571.61 175.983   3
  -6   3   5 1549.54 211.076   3
   6   3   5 1724.81 173.062   2
  -6  -3   5 1889.12 245.722   3
   6   3   5 1798.89 201.863   6
   6   3   6 145.361 82.7600   6
   6  -3   6 99.5701 81.1315   6
  -6   3   6 16.9937 47.9744   3
  -6  -3   6-3.21680 75.1057   3
   6   3   7 494.399 132.413   6
   6  -3   7 499.581 131.188   6
  -6   3   7 606.408 158.671   3
  -6  -3   7 573.229 163.958   3
  -6   3   8 2665.98 324.142   3
  -6  -3   8 3182.86 378.496   3
  -6   3   8 2453.40 288.946   7
   6   3   8 2462.68 294.251   6
   6  -3   8 2853.00 331.384   6
   6   3   9 1855.45 279.455   6
  -6  -3   9 1961.21 315.826   3
   6   4  -8 6079.88 474.068   1
  -6   4  -8 5927.39 445.849   8
   6  -4  -8 5742.84 453.434   5
   6   4  -8 6054.58 448.131   2
   6  -4  -7 1310.60 200.696   5
   6   4  -7 1184.07 192.723   2
   6   4  -7 1287.13 209.877   1
   6  -4  -7 1469.94 198.312   1
  -6   4  -7 1304.96 207.341   8
   6   4  -6 4359.59 347.553   2
  -6  -4  -6 4893.21 368.578   8
   6  -4  -6 4002.30 337.255   5
  -6   4  -6 4158.52 346.834   8
   6  -4  -6 3949.27 292.229   1
  -6  -4  -5 4903.00 363.706   8
   6  -4  -5 5544.85 377.009   5
  -6   4  -5 5182.88 367.850   8
   6   4  -5 5632.11 373.188   2
   6  -4  -5 5163.10 306.437   1
   6  -4  -4 139.900 70.4339   6
   6   4  -4 231.159 97.4233   2
   6  -4  -4 76.9274 45.7384   1
  -6  -4  -4-46.9905 62.1870   8
  -6   4  -4 208.186 79.4815   8
   6  -4  -3 8889.04 458.094   6
  -6   4  -3 9537.59 463.103   8
  -6  -4  -3 8886.33 474.569   8
   6   4  -3 9865.69 454.442   2
   6  -4  -2 12590.8 521.438   6
   6   4  -2 12236.3 424.083   6
  -6   4  -2 11788.1 493.847   8
  -6  -4  -2 11023.3 519.943   8
  -6  -4  -2 12273.0 373.159   3
   6   4  -2 12258.9 488.205   2
   6   4  -1 2162.59 170.419   6
  -6   4  -1 2059.71 198.848   8
  -6  -4  -1 1526.35 198.378   8
  -6  -4  -1 2089.59 172.991   3
   6   4  -1 1957.50 189.700   2
   6  -4  -1 1968.52 200.169   6
   6   4   0 2668.37 217.359   2
  -6   4   0 2659.63 216.549   8
  -6  -4   0 2778.37 217.015   3
   6  -4   0 2873.69 239.002   6
   6   4   0 2901.29 195.178   6
   6   4   1 1956.04 185.996   2
  -6   4   1 2155.34 188.381   8
  -6  -4   1 1968.93 195.549   3
   6   4   1 2148.73 169.677   6
   6  -4   1 1936.40 202.843   6
   6   4   2 13172.4 471.368   2
  -6   4   2 12333.4 446.061   8
   6   4   2 12228.0 346.980   4
  -6   4   2 12405.9 351.777   4
  -6  -4   2 12277.4 526.743   3
   6   4   2 12487.6 428.489   6
   6  -4   2 11381.3 485.333   6
   6  -4   3 9375.36 439.745   3
   6   4   3 9373.60 406.771   2
   6   4   3 8397.00 323.289   4
  -6   4   3 9883.04 353.236   4
  -6   4   3 9057.88 373.988   8
  -6  -4   3 8671.99 473.062   3
   6   4   3 8806.46 384.204   6
   6  -4   3 8942.92 446.956   6
   6   4   4 161.594 52.7756   2
   6   4   4 288.843 78.3955   6
   6  -4   4 82.7464 63.8016   6
  -6   4   4 127.501 80.7968   3
  -6  -4   4 223.058 85.5897   3
   6  -4   4 149.469 70.4036   3
   6   4   4 138.997 50.3775   4
  -6   4   4 132.579 49.5545   4
   6  -4   5 5006.08 332.410   3
   6   4   5 5824.08 340.426   2
   6   4   5 4909.70 310.800   4
  -6   4   5 5334.58 330.312   4
  -6   4   5 5037.10 383.714   3
  -6  -4   5 5244.63 415.010   3
   6   4   5 5189.10 340.647   6
   6  -4   5 5212.33 376.517   6
   6   4   6 3997.28 309.885   4
  -6   4   6 3472.08 293.316   4
  -6   4   6 3757.70 346.829   3
  -6  -4   6 3584.25 365.130   3
   6   4   6 3987.27 319.722   6
   6  -4   6 4286.00 361.854   6
   6   4   7 1313.04 200.888   6
   6  -4   7 1492.79 234.206   6
  -6   4   7 1005.40 193.529   3
  -6  -4   7 1213.91 232.951   3
  -6   4   8 5873.77 474.689   3
  -6  -4   8 6591.26 561.217   3
   6   4   8 5923.95 448.657   6
   6  -4   8 6507.77 500.935   6
   6   4   9 555.890 155.943   6
  -6   5  -8 73.3352 58.5316   8
   6   5  -8 262.615 121.940   2
   6  -5  -8 277.720 122.953   5
   6   5  -8 273.497 118.879   1
   6  -5  -7 172.061 78.3098   5
   6   5  -7 325.724 113.937   2
  -6  -5  -7 288.361 130.830   5
  -6   5  -7 48.7494 51.2248   8
   6  -5  -6 285.426 105.656   5
   6   5  -6 321.115 105.143   2
  -6  -5  -6 161.774 102.131   5
  -6   5  -6 442.973 127.315   8
   6  -5  -5 986.126 169.420   5
  -6  -5  -5 899.039 188.311   5
   6   5  -5 814.961 152.258   2
  -6   5  -5 1008.68 166.410   8
  -6  -5  -5 794.899 156.853   8
   6  -5  -4 647.381 137.250   6
  -6  -5  -4 400.052 101.209   8
   6   5  -4 663.080 134.535   2
  -6   5  -4 590.877 127.344   8
   6  -5  -3 7912.63 441.663   6
  -6   5  -3 8642.89 447.111   8
  -6  -5  -3 8152.06 462.826   8
   6   5  -3 7496.04 411.871   2
   6  -5  -2 18949.7 658.122   6
   6   5  -2 18568.9 501.722   6
  -6   5  -2 18464.3 630.786   8
   6   5  -2 17813.4 614.030   2
   6   5  -1 7183.88 298.070   6
  -6   5  -1 7249.42 382.168   8
  -6  -5  -1 7589.53 339.964   3
   6   5  -1 6916.57 372.681   2
   6  -5  -1 7708.14 407.079   6
   6   5   0 57875.1 1060.09   2
  -6   5   0 56706.0 1031.35   8
  -6  -5   0 55945.0 1008.48   3
   6  -5   0 59015.1 1104.57   6
   6   5   0 57982.1 829.179   6
   6   5   1 7192.20 367.133   2
  -6   5   1 6859.74 344.448   8
  -6  -5   1 7382.68 395.017   3
   6  -5   1 7567.17 397.621   6
   6   5   1 6935.43 295.665   6
   6   5   2 17547.2 582.701   2
   6  -5   2 18522.3 648.865   3
   6   5   2 18080.4 467.276   4
  -6   5   2 18643.7 476.521   4
  -6   5   2 17804.7 539.271   8
  -6  -5   2 18077.7 656.762   3
   6   5   2 17571.3 488.150   6
   6  -5   2 19032.8 647.410   6
   6  -5   3 7781.33 427.386   3
   6   5   3 8150.30 404.253   2
   6   5   3 8301.11 342.944   4
  -6   5   3 8683.90 355.662   4
  -6   5   3 7755.37 347.013   8
  -6  -5   3 7554.31 452.719   3
   6   5   3 7630.53 349.047   6
   6  -5   3 8068.43 436.909   6
   6   5   4 576.304 117.978   2
   6   5   4 613.089 105.619   6
   6  -5   4 635.512 132.635   6
   6   5   4 582.082 103.588   4
  -6   5   4 817.717 155.750   3
  -6  -5   4 667.474 146.639   3
   6  -5   4 679.143 131.287   3
  -6   5   4 834.092 124.705   4
   6   5   5 1097.90 158.433   6
   6   5   5 1035.69 154.525   2
   6  -5   5 765.820 152.435   6
  -6   5   5 948.570 174.262   3
  -6  -5   5 1141.87 199.080   3
  -6   5   5 846.400 135.402   4
   6  -5   5 806.359 148.244   3
   6   5   5 810.920 133.716   4
   6   5   6 398.055 103.512   6
   6  -5   6 407.460 113.884   6
   6   5   6 328.465 85.5344   2
  -6   5   6 342.510 117.134   3
  -6  -5   6 294.662 116.255   3
   6   5   6 448.279 112.135   4
  -6   5   6 346.534 97.0965   4
   6   5   7 265.519 86.1289   6
   6  -5   7 259.023 113.324   6
  -6   5   7 212.873 102.777   3
  -6  -5   7 217.523 121.014   3
  -6   5   7 296.644 112.170   4
   6   5   8 135.999 84.2286   6
   6  -5   8 206.601 105.826   6
  -6   5   8 404.541 132.902   3
  -6  -5   8 301.705 159.279   3
  -6   5   8 262.192 113.025   4
   6   5   9 1646.20 251.761   6
   6   6  -8 65.2224 86.1667   1
   6  -6  -8-95.8267 75.0165   5
   6   6  -8-63.2780 71.6106   2
  -6  -6  -8 31.7157 102.792   5
  -6   6  -8-162.507 90.8677   8
   6  -6  -7 3440.27 356.730   5
  -6  -6  -7 4200.48 443.602   5
   6   6  -7 3349.50 328.543   2
  -6   6  -7 3147.84 325.393   8
   6  -6  -6 1328.87 211.208   5
   6   6  -6 1270.97 196.463   2
  -6  -6  -6 1140.48 224.594   5
  -6   6  -6 1501.80 215.371   8
   6  -6  -5 185.856 72.1682   5
  -6  -6  -5 171.902 107.746   5
   6   6  -5 130.922 74.7955   2
  -6   6  -5 138.137 85.0900   8
   6  -6  -4 3680.83 323.962   6
   6  -6  -4 4094.78 336.355   5
  -6  -6  -4 4349.26 391.394   5
  -6   6  -4 3408.78 301.131   8
   6   6  -4 3942.59 318.186   2
   6  -6  -3 3911.17 320.228   6
  -6   6  -3 4448.91 331.987   8
   6   6  -3 3673.68 297.162   2
   6  -6  -2 5763.24 372.124   6
  -6   6  -2 5190.77 348.797   8
   6   6  -2 5785.27 360.671   2
   6  -6  -1 9224.86 457.901   6
  -6   6  -1 9714.24 452.461   8
  -6  -6  -1 9712.74 402.376   3
   6   6  -1 10547.8 479.535   2
   6   6   0 2843.83 245.502   2
  -6   6   0 2724.15 232.966   8
  -6  -6   0 2066.67 204.825   3
   6  -6   0 2259.37 225.637   6
   6   6   1 10217.9 466.270   2
  -6   6   1 10333.9 437.004   8
  -6  -6   1 10282.4 487.498   3
   6  -6   1 9762.17 466.378   6
   6   6   2 5455.54 342.427   2
   6  -6   2 5683.79 380.190   3
   6   6   2 5872.09 292.184   4
  -6   6   2 5327.55 281.417   4
  -6   6   2 5197.77 300.006   8
  -6  -6   2 5265.10 369.937   3
   6  -6   2 5519.18 357.934   6
   6  -6   3 4019.49 325.689   3
   6   6   3 3935.32 296.090   2
   6   6   3 3834.06 249.771   4
  -6   6   3 4261.76 269.014   4
  -6  -6   3 3714.08 329.346   3
   6  -6   3 4117.38 316.700   6
   6  -6   4 3644.41 316.339   3
   6   6   4 4409.00 327.395   2
   6   6   4 3993.68 273.937   4
  -6   6   4 4020.67 278.993   4
  -6  -6   4 4032.84 364.796   3
   6  -6   4 4389.57 340.932   6
   6   6   5 273.454 103.162   2
   6  -6   5 270.334 92.3073   6
  -6   6   5 320.107 116.833   3
  -6   6   5 194.468 75.0719   4
  -6  -6   5 211.589 100.891   3
   6  -6   5 110.709 85.7771   3
   6   6   5 235.439 70.7841   4
   6  -6   6 1354.49 217.080   6
   6   6   6 1594.01 210.081   2
  -6   6   6 1259.89 210.499   3
  -6  -6   6 1482.34 253.273   3
   6  -6   6 1228.49 195.491   3
   6   6   6 1258.16 182.094   4
  -6   6   6 1363.37 195.807   4
  -6   6   7 3735.07 349.169   4
  -6   6   7 3039.33 330.685   3
  -6  -6   7 3436.17 398.888   3
   6  -6   7 3753.49 369.632   6
   6  -6   8-134.725 97.1651   6
  -6  -6   8 41.1798 106.790   3
   6   7  -8 3363.05 350.578   2
   6  -7  -8 3049.11 372.441   5
  -6   7  -8 2643.73 325.831   8
   6  -7  -7 12.3342 67.5480   5
   6   7  -7 179.977 112.811   2
  -6  -7  -7 11.6284 117.352   5
  -6   7  -7 229.075 98.9791   8
   6  -7  -6 463.247 144.539   5
   6   7  -6 480.468 135.706   2
  -6  -7  -6 351.140 125.031   5
  -6   7  -6 444.839 129.156   8
   6  -7  -5 5215.49 412.667   5
  -6  -7  -5 4735.59 446.805   5
  -6   7  -5 5170.27 398.687   8
   6   7  -5 4988.11 380.774   2
   6  -7  -4 189.660 100.440   6
   6  -7  -4 316.490 113.197   5
  -6  -7  -4 417.326 132.807   5
   6   7  -4 300.351 114.673   2
  -6   7  -4 261.936 106.842   8
   6  -7  -3 2104.73 240.910   6
  -6  -7  -3 2405.22 284.366   5
  -6   7  -3 1964.84 234.550   8
   6   7  -3 1606.57 207.064   2
   6  -7  -2 2377.70 248.708   6
  -6   7  -2 2515.75 250.098   8
   6   7  -2 2480.12 249.198   2
   6  -7  -1 10559.3 503.176   6
   6   7  -1 11044.2 510.608   2
  -6   7  -1 11787.6 518.368   8
  -6  -7  -1 10164.0 428.855   3
  -6   7   0 148.093 83.2212   8
   6  -7   0 9.33780 56.9397   6
  -6  -7   0 87.7290 65.8739   3
   6   7   0 101.163 74.7057   2
   6   7   1 11270.0 514.535   2
   6  -7   1 11504.5 564.800   3
  -6   7   1 10034.5 444.837   8
  -6  -7   1 10180.1 506.207   3
   6  -7   1 10620.1 500.595   6
   6  -7   2 2788.03 284.830   3
   6   7   2 2392.40 243.418   2
   6   7   2 2962.85 226.758   4
  -6   7   2 2607.74 213.596   4
  -6   7   2 2472.23 215.023   8
  -6  -7   2 2704.14 280.870   3
   6  -7   2 2669.19 257.323   6
   6  -7   3 2250.81 261.314   3
   6  -7   3 1796.68 214.939   6
   6   7   3 1822.77 186.005   4
  -6   7   3 2051.55 199.666   4
  -6  -7   3 2781.30 299.847   3
   6   7   3 1932.89 222.230   2
   6   7   4 192.541 84.5308   2
   6  -7   4 150.169 75.4664   6
  -6  -7   4 255.787 98.9087   3
   6  -7   4 299.611 115.295   3
   6   7   4 109.181 53.1444   4
  -6   7   4 232.688 76.9799   4
   6  -7   5 4373.77 371.108   3
   6   7   5 5110.46 379.585   2
   6   7   5 5089.94 351.218   4
  -6   7   5 4614.83 339.597   4
  -6   7   5 5760.55 435.376   3
  -6  -7   5 4983.65 443.435   3
   6  -7   5 5027.32 390.350   6
   6  -7   6 416.541 118.690   6
   6   7   6 508.828 129.362   2
  -6   7   6 600.875 152.328   3
  -6  -7   6 266.811 110.180   3
   6  -7   6 530.843 142.177   3
  -6   7   6 550.800 125.419   4
   6  -7   7 82.8160 68.1509   6
   6   7   7-22.7051 47.9407   2
  -6   7   7 2.42769 70.8683   3
  -6  -7   7 100.127 92.0361   3
  -6   7   7 36.8264 54.1552   4
   6  -7   8 2879.04 346.388   6
   6  -8  -7 1016.76 226.595   5
   6   8  -7 849.031 177.390   2
  -6  -8  -7 1137.23 258.676   5
  -6   8  -7 995.530 187.801   8
   6  -8  -6 912.235 195.369   5
  -6  -8  -6 672.710 179.767   5
   6   8  -6 645.616 156.460   2
  -6   8  -6 683.050 160.044   8
   6  -8  -5 1248.87 221.362   5
  -6  -8  -5 1146.04 227.860   5
   6   8  -5 807.275 162.083   2
  -6   8  -5 1264.48 206.564   8
   6  -8  -4 576.897 139.710   6
   6  -8  -4 646.603 152.276   5
  -6  -8  -4 859.506 197.721   5
   6   8  -4 685.029 142.840   2
  -6   8  -4 586.685 135.164   8
   6  -8  -3 1644.82 218.836   6
   6  -8  -3 1420.62 211.429   5
  -6  -8  -3 1402.18 233.766   5
   6   8  -3 1758.50 225.548   2
  -6   8  -3 1592.10 218.017   8
   6  -8  -2 9690.66 508.667   6
  -6   8  -2 9950.24 512.634   8
   6   8  -2 10235.4 519.105   2
   6  -8  -1 1240.91 182.846   6
  -6   8  -1 981.527 160.471   8
   6   8  -1 1396.61 194.704   2
   6  -8   0 320.469 97.6616   6
  -6   8   0 229.529 76.6425   8
  -6  -8   0 180.945 74.0086   3
   6   8   0 337.363 102.868   2
   6  -8   1 938.238 157.058   6
  -6  -8   1 1002.49 171.006   3
   6  -8   1 1400.72 211.694   3
  -6   8   1 1147.18 158.394   8
   6   8   1 1222.09 185.834   2
   6  -8   2 9698.42 553.312   3
   6   8   2 10260.1 524.297   2
   6   8   2 10141.9 449.387   4
  -6   8   2 10700.7 460.919   4
  -6   8   2 9723.93 437.688   8
  -6  -8   2 9281.24 533.104   3
   6  -8   2 10310.1 513.424   6
   6  -8   3 1368.60 197.249   6
  -6  -8   3 1252.64 208.684   3
   6   8   3 1782.49 195.795   4
  -6   8   3 1208.08 164.866   4
   6  -8   3 1806.93 246.866   3
   6   8   3 1470.54 206.604   2
   6   8   4 813.103 160.493   2
   6  -8   4 425.216 120.632   6
  -6  -8   4 453.135 139.754   3
   6  -8   4 573.365 143.279   3
   6   8   4 604.478 127.856   4
  -6   8   4 549.835 120.784   4
   6   8   5 823.916 163.292   2
   6  -8   5 1313.90 209.245   6
  -6   8   5 1044.58 184.416   3
  -6  -8   5 1081.55 218.803   3
   6  -8   5 1342.75 220.871   3
   6   8   5 1170.11 176.084   4
  -6   8   5 1311.38 190.430   4
   6   8   6 781.052 172.033   2
   6  -8   6 1278.88 218.814   6
  -6   8   6 920.574 181.078   3
  -6  -8   6 557.503 185.896   3
   6  -8   6 843.184 186.332   3
  -6   8   6 740.705 163.292   4
   6  -8   7 1008.15 197.672   6
   6   8   7 1318.07 222.243   2
  -6  -8   7 1731.35 300.593   3
   6   9  -7 1986.18 269.892   2
   6  -9  -6 7099.57 551.438   5
  -6  -9  -6 7616.55 618.349   5
  -6   9  -6 6980.12 515.462   8
   6   9  -6 5623.55 435.697   2
   6  -9  -5 158.306 100.682   5
  -6  -9  -5 461.317 148.392   5
   6   9  -5 141.721 69.0069   2
  -6   9  -5 466.669 138.871   8
   6  -9  -4 3363.52 353.090   5
  -6  -9  -4 2465.70 326.715   5
  -6   9  -4 2606.83 299.204   8
   6   9  -4 2445.90 277.883   2
   6  -9  -3 20.1496 43.9455   6
   6  -9  -3-37.0166 56.7715   5
  -6  -9  -3-47.0466 80.8242   5
   6   9  -3-5.67492 55.4430   2
  -6   9  -3 62.8127 68.0666   8
   6  -9  -2 761.031 149.538   6
   6  -9  -2 1321.22 204.045   5
  -6  -9  -2 824.181 175.063   5
  -6   9  -2 905.436 169.561   8
   6   9  -2 1205.83 186.529   2
   6  -9  -1 316.016 111.068   6
   6   9  -1 639.227 140.209   2
  -6   9  -1 275.428 101.709   8
   6   9   0 2529.25 273.133   2
  -6   9   0 1954.54 224.605   8
  -6  -9   0 2400.62 251.963   3
   6  -9   0 2536.03 259.496   6
   6  -9   1 237.919 85.9661   6
  -6  -9   1 383.260 117.582   3
   6  -9   1 637.490 155.945   3
  -6   9   1 531.030 113.181   8
   6   9   1 796.578 166.899   2
   6  -9   2 830.299 158.352   6
  -6  -9   2 992.307 186.100   3
  -6   9   2 822.349 137.642   4
   6  -9   2 741.889 170.455   3
   6   9   2 902.090 169.055   2
   6  -9   3-38.6332 69.8210   6
  -6  -9   3-40.6712 84.1622   3
   6   9   3-20.8798 37.1097   4
  -6   9   3-6.13455 46.2230   4
   6  -9   3-71.5051 100.021   3
   6   9   3 49.9312 57.0032   2
   6  -9   4 2912.64 334.275   3
   6   9   4 2495.80 288.774   2
  -6  -9   4 2168.56 294.608   3
   6   9   4 2438.92 253.614   4
  -6   9   4 2415.29 258.393   4
   6  -9   4 2550.32 280.523   6
   6   9   5 221.441 101.271   2
   6  -9   5 258.391 102.349   6
  -6  -9   5 164.847 91.2676   3
   6  -9   5 309.585 134.445   3
  -6   9   5 291.175 92.4750   4
   6  -9   6 5408.66 471.690   3
   6   9   6 6131.76 472.403   2
  -6   9   6 5584.83 430.107   4
  -6  -9   6 6630.42 581.243   3
   6  -9   6 6161.04 471.754   6
  -6   9   6 5252.52 444.733   3
   6  -9   7 2239.70 304.239   6
   6   9   7 1822.66 275.362   2
  -6 -10  -6 2573.21 373.215   5
   6  10  -6 1977.80 271.112   2
  -6  10  -6 2159.31 300.152   8
   6 -10  -5 560.075 170.212   5
  -6 -10  -5 364.083 156.580   5
   6  10  -5 627.665 157.514   2
  -6  10  -5 507.230 140.931   8
   6 -10  -4 613.533 155.122   5
  -6 -10  -4 259.949 129.922   5
   6  10  -4 396.481 123.211   2
   6 -10  -3 2472.20 276.071   6
   6 -10  -3 2300.95 289.114   5
  -6 -10  -3 1967.13 277.514   5
   6  10  -3 2522.34 286.548   2
   6 -10  -2 1265.00 193.146   6
   6 -10  -2 1101.49 190.893   5
  -6 -10  -2 1501.64 234.028   5
   6  10  -2 1276.00 209.366   2
   6 -10  -1 4275.79 351.929   6
   6  10  -1 4845.48 390.039   2
   6 -10  -1 4956.04 393.251   5
  -6  10  -1 5340.22 394.185   8
   6 -10   0 4140.94 341.036   6
   6  10   0 4418.00 371.307   2
  -6  10   0 4546.69 352.168   8
   6  10   1 4641.96 386.197   2
   6 -10   1 5582.28 456.942   3
  -6  10   1 4150.86 323.252   8
  -6 -10   1 4781.16 395.563   3
   6 -10   1 4931.68 369.594   6
   6 -10   2 992.940 164.306   6
  -6 -10   2 936.442 183.010   3
   6 -10   2 1311.16 226.551   3
   6  10   2 1263.20 210.274   2
  -6 -10   3 1810.39 269.106   3
   6  10   3 2230.11 250.545   4
  -6  10   3 2439.56 265.370   4
   6 -10   3 2460.72 313.015   3
   6 -10   3 2295.46 266.699   6
   6  10   3 2113.65 273.507   2
   6  10   4 458.209 129.379   2
   6 -10   4 472.402 125.055   6
  -6 -10   4 312.221 111.670   3
  -6  10   4 471.666 120.514   4
   6 -10   4 561.322 165.190   3
   6  10   5 594.318 160.049   2
   6 -10   5 811.833 171.288   6
  -6 -10   5 419.556 147.348   3
   6 -10   5 639.939 186.447   3
  -6  10   5 467.704 144.256   4
   6  10   6 2248.17 302.911   2
   6 -10   6 1720.81 255.595   6
  -6 -10   6 2078.37 341.544   3
   6 -10   6 1823.73 292.780   3
   6 -11  -5 4052.55 432.391   5
  -6 -11  -5 4073.71 460.230   5
   6  11  -5 4175.48 394.649   2
   6 -11  -4 4343.62 433.305   5
  -6 -11  -4 4373.69 454.864   5
   6  11  -4 4623.28 406.555   2
   6 -11  -3 2101.38 264.500   6
   6 -11  -3 2422.51 313.324   5
  -6 -11  -3 2625.26 335.140   5
   6  11  -3 2162.57 276.898   2
   6 -11  -2 825.533 165.820   6
   6 -11  -2 697.696 164.450   5
  -6 -11  -2 995.215 201.731   5
   6  11  -2 971.348 183.506   2
   6 -11  -1 3655.62 330.579   6
   6  11  -1 4167.30 380.883   2
   6 -11  -1 4027.34 367.676   5
   6 -11   0 143.574 64.9506   5
  -6  11   0 138.135 84.8065   8
   6  11   0 258.500 106.662   2
   6  11   1 3768.06 365.203   2
   6 -11   1 3977.13 402.191   3
   6 -11   1 3656.17 329.385   5
  -6  11   1 4060.09 333.754   8
  -6 -11   1 3705.11 359.981   3
  -6 -11   2 970.397 200.228   3
   6 -11   2 770.156 199.079   3
   6  11   2 735.870 169.082   2
  -6 -11   3 2004.31 288.637   3
  -6  11   3 2410.90 276.107   4
   6 -11   3 2062.37 312.267   3
   6  11   3 2232.10 289.233   2
   6 -11   4 4377.83 442.637   3
   6  11   4 4274.05 409.347   2
  -6  11   4 4231.28 378.099   4
  -6 -11   4 4683.98 471.978   3
   6 -11   5 3946.85 431.180   3
   6  11   5 4233.23 418.549   2
  -6 -11   5 4125.45 464.448   3
  -6 -12  -4 4876.29 494.464   5
   6  12  -4 5297.08 450.866   2
   6 -12  -3 1425.52 243.389   5
  -6 -12  -3 2462.28 338.479   5
   6  12  -3 1712.58 259.181   2
   6  12  -2 2578.94 308.378   2
   6 -12  -2 2535.81 317.965   5
   6  12  -1 1741.92 257.936   2
   6 -12  -1 2313.89 295.499   5
   6 -12   0 1811.90 253.471   5
  -6  12   0 1462.60 215.716   8
   6  12   0 1977.55 278.835   2
   6 -12   1 3237.29 379.952   3
   6  12   1 2373.79 302.140   2
   6  12   2 3330.09 367.372   2
  -6 -12   2 2967.51 354.146   3
   6 -12   2 2650.53 351.818   3
  -6 -12   3 1871.78 299.956   3
   6 -12   3 2036.05 312.985   3
   6  12   3 2022.98 287.068   2
  -6 -12   4 4351.89 472.737   3
  -6 -13  -3 2930.18 375.375   5
   6 -13  -2 1365.31 249.432   5
   6 -13  -1 667.903 172.425   5
   6  13  -1 1009.87 207.113   2
   6 -13   0 1310.00 221.248   5
  -6  13   0 1660.02 244.810   8
   6  13   0 1512.55 241.161   2
   6 -13   1 567.964 187.169   3
   6  13   1 647.747 163.591   2
  -6 -13   2 1357.29 255.349   3
  -6 -13   3 2684.32 365.262   3
   7   0  -8-8.94211 69.1266   1
  -7   0  -7 3.76691 47.7235   8
   7   0  -7 92.6778 81.4634   1
   7   0  -6 58.0176 69.9565   2
  -7   0  -6-21.0030 71.0367   8
   7   0  -5 57.7870 62.6185   2
  -7   0  -5 69.4129 63.6766   8
   7   0  -4 52.5938 60.8504   6
   7   0  -4 25.2073 42.5121   2
  -7   0  -4-27.5161 53.8484   8
   7   0  -3-91.8819 73.3545   6
   7   0  -3-19.8370 41.5043   2
  -7   0  -3 4.75548 45.3710   8
  -7   0  -2 42.4800 47.6190   3
   7   0  -2 36.3594 50.8583   6
   7   0  -2 27.7825 39.8973   2
  -7   0  -2 1.37904 46.8515   8
  -7   0  -1 117.580 58.2571   3
   7   0  -1-7.79437 36.9970   6
   7   0  -1 45.4172 45.9555   2
  -7   0  -1-34.1121 65.5779   8
   7   0   0 116.406 61.3934   6
  -7   0   0-43.7965 55.0345   3
   7   0   0 46.7347 38.4843   2
  -7   0   0-17.6569 42.8592   8
   7   0   1 41.5419 41.3309   6
  -7   0   1 18.7110 45.2034   3
   7   0   1-24.0296 26.9583   2
  -7   0   1-60.6452 62.5403   8
   7   0   2-15.1018 48.3104   6
  -7   0   2 16.4188 45.1997   3
   7   0   2 39.0120 34.5866   2
  -7   0   2-6.93691 39.3511   8
   7   0   3 62.5372 63.5344   6
  -7   0   3-14.5289 47.8864   3
  -7   0   3-35.5450 50.3263   8
   7   0   4 32.6962 55.3098   6
  -7   0   4 3.30295 56.4061   3
   7   0   5-32.1306 54.7576   6
  -7   0   5-30.0069 64.7071   3
   7   0   6 116.442 100.053   6
  -7   0   6 37.4344 84.1496   3
   7   0   7 155.948 107.313   6
  -7   0   7-137.992 101.569   3
   7   0   8 174.671 107.811   6
  -7   0   8-52.4018 83.6671   3
  -7   0   9 37.6694 100.490   3
   7  -1  -9 1494.36 243.346   1
   7   1  -8 1418.96 229.176   1
   7  -1  -8 1492.44 224.367   1
   7  -1  -7 4433.72 364.330   1
   7   1  -7 4439.83 372.737   1
   7   1  -7 4401.77 379.026   2
  -7   1  -7 4570.90 390.263   8
  -7  -1  -7 4853.07 399.017   8
   7  -1  -6 11482.7 528.711   5
   7  -1  -6 12158.2 562.996   1
  -7   1  -6 11504.5 589.616   8
  -7  -1  -6 10824.2 576.133   8
   7   1  -6 11402.1 572.044   2
  -7   1  -5 3593.65 320.336   8
   7  -1  -5 3859.72 315.375   2
  -7  -1  -5 3750.26 339.493   8
   7   1  -5 3425.71 301.253   2
   7  -1  -4 5348.23 377.550   6
   7   1  -4 5342.26 362.311   6
  -7   1  -4 5286.92 372.820   8
  -7  -1  -4 5574.33 386.639   8
   7  -1  -4 5971.83 365.982   2
   7   1  -4 6130.62 380.631   2
   7  -1  -3 593.845 116.955   6
   7   1  -3 758.061 135.636   6
   7  -1  -3 493.762 97.0733   2
   7   1  -3 664.500 120.886   2
  -7   1  -3 792.371 144.332   8
  -7  -1  -3 819.342 150.784   8
   7  -1  -2 2874.07 253.038   6
   7   1  -2 3236.97 258.883   6
  -7   1  -2 2684.12 252.077   8
  -7  -1  -2 2842.51 204.588   3
   7  -1  -2 3011.42 229.655   2
  -7  -1  -2 2580.71 254.331   8
   7   1  -2 2699.60 223.674   2
  -7  -1  -1 7086.23 339.529   3
  -7   1  -1 6263.79 374.925   8
  -7  -1  -1 6662.56 398.330   8
   7  -1  -1 7105.54 326.199   2
   7   1  -1 7015.09 341.838   2
   7  -1  -1 6704.08 372.256   6
   7   1  -1 6950.00 365.559   6
  -7   1   0 13564.0 540.688   8
  -7  -1   0 13828.3 567.758   8
  -7   1   0 13917.2 515.927   3
  -7  -1   0 14232.4 511.494   3
   7  -1   0 13215.1 411.731   2
   7   1   0 13849.4 456.398   2
   7  -1   0 13116.9 515.674   6
   7   1   0 14726.8 520.202   6
   7  -1   1 6930.44 276.860   2
  -7   1   1 6601.54 375.199   8
  -7   1   1 6761.55 375.646   3
  -7  -1   1 7511.87 391.708   3
  -7  -1   1 6490.23 393.748   8
   7   1   1 6928.71 312.011   2
   7   1   1 7316.47 372.914   6
   7  -1   1 6768.22 373.855   6
  -7   1   2 2869.31 261.123   3
  -7   1   2 2850.71 244.797   8
  -7  -1   2 3188.66 274.571   8
  -7  -1   2 2675.82 252.275   3
   7   1   2 2975.43 198.879   2
   7   1   2 2891.69 240.515   6
   7  -1   2 3196.36 264.984   6
   7   1   3 435.722 95.2561   6
   7  -1   3 850.892 144.464   6
  -7   1   3 590.399 126.036   3
  -7  -1   3 422.553 114.265   3
  -7   1   3 584.787 115.750   8
   7   1   3 649.108 92.8793   2
  -7   1   4 5609.86 397.694   3
  -7  -1   4 5392.31 397.190   3
   7   1   4 5605.88 367.609   6
   7  -1   4 5367.69 367.900   6
  -7   1   5 3594.76 338.858   3
  -7  -1   5 4614.23 388.674   3
   7   1   5 3673.94 316.056   6
   7  -1   5 3717.53 324.262   6
  -7   1   6 11511.6 635.423   3
  -7  -1   6 10176.5 612.803   3
   7   1   6 10236.9 552.251   6
   7  -1   6 9979.20 556.931   6
  -7   1   7 4020.67 399.940   3
  -7  -1   7 4771.47 441.937   3
   7   1   7 4813.25 400.830   6
   7  -1   7 4187.87 385.635   6
   7   1   8 1958.82 280.366   6
   7  -1   8 1742.02 272.466   6
  -7   1   8 1290.87 241.290   3
  -7  -1   8 1806.67 295.288   3
  -7   1   9 1474.63 270.049   3
   7  -2  -9 331.957 146.058   1
   7   2  -8 2660.79 313.775   1
  -7   2  -8 3475.95 349.089   8
   7  -2  -8 3182.61 325.187   1
   7   2  -7 1472.52 221.403   2
   7  -2  -7 1794.98 230.696   5
   7   2  -7 1894.48 249.855   1
   7  -2  -7 1573.35 220.656   1
  -7   2  -7 1948.52 258.094   8
  -7  -2  -7 1670.13 238.803   8
  -7  -2  -6 1494.13 216.986   8
   7  -2  -6 1368.41 194.671   5
   7   2  -6 1971.35 248.132   2
   7  -2  -6 1487.01 196.407   1
  -7   2  -6 1978.41 247.643   8
   7   2  -5 855.596 162.741   2
  -7   2  -5 1409.48 200.003   8
  -7  -2  -5 711.469 153.431   8
   7  -2  -4 10553.9 536.265   6
  -7   2  -4 10574.1 528.775   8
  -7  -2  -4 11354.0 560.563   8
   7   2  -4 10049.6 488.304   2
   7  -2  -3 3130.83 282.429   6
   7   2  -3 3630.29 281.724   6
  -7   2  -3 3300.43 285.390   8
   7  -2  -3 3507.19 263.332   2
  -7  -2  -3 3613.53 314.322   8
   7   2  -3 3028.52 257.874   2
   7  -2  -2-0.19159 43.6897   6
   7   2  -2 202.291 75.9371   6
  -7  -2  -2 93.5394 47.0753   3
   7  -2  -2 97.1477 56.2206   2
   7   2  -2 109.468 56.9911   2
  -7   2  -2 98.5210 56.0923   8
  -7  -2  -2 67.7282 68.6315   8
  -7   2  -1 1126.23 165.179   8
   7  -2  -1 1026.92 153.740   6
   7   2  -1 927.658 130.740   6
  -7  -2  -1 1008.64 128.824   3
   7  -2  -1 772.449 107.697   2
   7   2  -1 807.853 121.300   2
  -7  -2  -1 999.842 163.818   8
  -7   2   0 1087.32 153.194   8
   7  -2   0 1203.63 168.022   6
   7   2   0 1210.19 151.447   6
  -7  -2   0 1182.97 151.674   3
   7   2   0 1084.69 137.590   2
   7  -2   0 1285.56 127.957   2
  -7  -2   0 1136.76 171.488   8
   7   2   1 985.274 142.987   6
   7  -2   1 858.167 141.444   6
  -7   2   1 1283.93 167.598   3
  -7  -2   1 1134.52 157.970   3
   7  -2   1 1133.30 106.126   2
  -7   2   1 1011.24 145.835   8
  -7  -2   1 670.024 133.668   8
   7   2   1 1213.38 142.692   2
   7   2   2 87.4631 52.3265   6
   7  -2   2 57.5334 52.1054   6
  -7   2   2 71.8451 61.3793   3
  -7  -2   2 127.614 68.9274   3
   7   2   2 67.0536 44.7853   2
  -7   2   2 52.4653 34.1146   8
   7   2   3 3656.94 232.962   2
  -7   2   3 2858.82 243.602   8
  -7   2   3 3370.00 297.511   3
  -7  -2   3 3237.58 293.141   3
   7   2   3 3181.46 260.196   6
   7  -2   3 3117.54 276.945   6
  -7   2   4 10732.5 553.124   3
  -7  -2   4 11168.3 574.918   3
   7   2   4 10299.5 489.923   6
   7  -2   4 10640.4 526.210   6
   7   2   5 1134.37 172.802   6
   7  -2   5 811.270 162.220   6
  -7   2   5 1231.49 213.622   3
  -7  -2   5 970.197 190.994   3
   7   2   6 1780.32 233.051   6
   7  -2   6 1679.12 233.587   6
  -7   2   6 1706.84 250.366   3
  -7  -2   6 1681.26 263.064   3
   7   2   7 1413.15 222.080   6
   7  -2   7 1519.89 241.499   6
  -7   2   7 1460.58 247.460   3
  -7  -2   7 1507.11 253.169   3
  -7   2   8 3343.43 385.115   3
  -7  -2   8 2803.80 367.344   3
   7   2   8 3079.99 344.951   6
   7  -2   8 3066.00 354.207   6
  -7   2   9-29.3359 109.084   3
   7   3  -8 353.986 132.164   2
  -7   3  -8 586.680 156.157   8
   7   3  -8 422.717 132.730   1
   7   3  -7 1891.28 259.696   1
   7  -3  -7 1876.78 233.067   1
   7  -3  -7 1957.26 250.296   5
   7   3  -7 1620.56 234.379   2
  -7   3  -7 1843.72 251.130   8
   7  -3  -6 703.270 155.645   5
   7   3  -6 735.085 161.458   2
  -7   3  -6 392.421 116.660   8
  -7  -3  -6 685.408 157.388   8
   7  -3  -6 416.674 104.064   1
   7  -3  -5 5612.66 343.584   1
  -7   3  -5 5948.69 415.421   8
  -7  -3  -5 4979.79 389.129   8
   7   3  -5 6282.83 415.959   2
   7  -3  -4 11840.9 578.180   6
  -7   3  -4 12838.6 584.013   8
  -7  -3  -4 12016.8 589.686   8
   7   3  -4 12731.6 558.978   2
   7  -3  -3 13490.4 586.146   6
   7   3  -3 13113.0 520.264   6
  -7   3  -3 13302.3 575.927   8
  -7  -3  -3 12686.1 595.285   8
   7   3  -3 13022.0 536.157   2
   7   3  -2 1647.02 179.655   6
   7  -3  -2 1643.21 205.322   6
   7   3  -2 1416.86 173.089   2
  -7   3  -2 1713.69 205.413   8
  -7  -3  -2 1827.74 158.316   3
  -7  -3  -2 1484.25 203.008   8
   7   3  -1 20061.8 590.294   6
  -7   3  -1 19182.1 645.787   8
  -7  -3  -1 20636.3 740.370   8
  -7  -3  -1 19825.6 568.872   3
   7   3  -1 21199.9 637.130   2
   7  -3  -1 20706.8 685.232   6
   7  -3   0 2026.74 154.915   2
  -7   3   0 2117.25 212.381   8
  -7  -3   0 1966.90 192.753   3
  -7  -3   0 1963.19 233.519   8
   7   3   0 2155.83 201.245   2
   7  -3   0 1981.38 212.175   6
   7   3   0 2145.31 190.538   6
  -7   3   1 19282.4 625.689   8
  -7  -3   1 20397.2 662.700   3
   7  -3   1 19690.9 666.916   6
   7   3   1 20285.2 595.231   6
   7   3   1 19097.0 577.850   2
   7   3   2 1784.85 177.222   2
   7  -3   2 1668.36 201.609   6
  -7   3   2 1668.38 205.977   3
  -7  -3   2 1679.86 205.718   3
  -7   3   2 1537.59 177.466   8
   7   3   2 1558.34 172.446   6
   7   3   3 12985.6 471.144   2
  -7   3   3 13287.7 509.884   8
  -7   3   3 13156.2 590.079   3
  -7  -3   3 13005.7 596.869   3
   7   3   3 13307.7 519.336   6
   7  -3   3 13288.7 572.961   6
   7   3   4 12623.5 467.608   2
  -7   3   4 13534.1 624.867   3
  -7  -3   4 12869.4 629.279   3
   7   3   4 11975.5 519.274   6
   7  -3   4 12479.0 579.387   6
  -7   3   5 5797.88 428.939   3
  -7  -3   5 6239.31 468.818   3
   7   3   5 5658.76 382.987   6
   7  -3   5 6603.49 449.351   6
   7   3   6 587.368 133.475   6
   7  -3   6 320.189 113.573   6
  -7   3   6 694.341 163.026   3
  -7  -3   6 561.064 153.565   3
   7   3   7 1883.45 255.668   6
   7  -3   7 2051.22 280.154   6
  -7   3   7 1803.35 275.564   3
  -7  -3   7 1980.59 299.348   3
   7   3   8 455.749 132.388   6
   7  -3   8 509.641 156.351   6
  -7   3   8 306.093 102.282   3
  -7  -3   8 598.315 178.192   3
  -7   3   9 275.696 126.979   3
   7   4  -8 442.198 150.275   1
   7   4  -8 167.421 88.0010   2
   7  -4  -8 337.279 110.364   5
  -7   4  -8 417.905 133.161   8
   7  -4  -7 3106.84 325.761   5
  -7   4  -7 3195.67 334.823   8
   7   4  -7 2841.71 309.805   2
   7  -4  -6 661.851 149.389   5
   7   4  -6 877.704 170.789   2
  -7   4  -6 626.542 155.496   8
  -7  -4  -6 765.446 169.772   8
  -7   4  -5 3398.65 319.798   8
   7  -4  -5 3088.04 302.735   5
  -7  -4  -5 3186.69 317.873   8
   7   4  -5 3159.32 298.112   2
   7  -4  -4 411.639 121.031   6
   7   4  -4 687.003 137.071   2
  -7   4  -4 728.416 150.078   8
  -7  -4  -4 686.205 154.900   8
   7   4  -3 1594.60 184.166   6
   7  -4  -3 1477.01 200.358   6
   7   4  -3 1588.37 195.732   2
  -7   4  -3 1636.86 206.668   8
  -7  -4  -3 1420.38 210.917   8
   7  -4  -2 518.604 129.743   6
   7   4  -2 404.292 84.6690   6
   7   4  -2 567.293 122.573   2
  -7   4  -2 312.715 102.416   8
  -7  -4  -2 599.522 139.674   8
   7   4  -1 9553.23 400.426   6
  -7  -4  -1 8634.35 493.371   8
  -7   4  -1 9647.45 467.410   8
  -7  -4  -1 9286.04 397.165   3
   7   4  -1 9160.85 437.149   2
   7  -4  -1 8863.33 459.189   6
   7  -4   0 1762.90 207.336   6
  -7  -4   0 1377.10 168.961   3
   7   4   0 1244.77 161.528   2
  -7   4   0 1317.07 170.886   8
   7   4   0 1371.48 150.082   6
   7   4   1 9545.83 427.866   2
  -7   4   1 8734.82 421.196   8
  -7  -4   1 8995.61 448.120   3
   7  -4   1 9528.72 471.093   6
   7   4   1 9140.99 390.586   6
   7   4   2 516.376 96.6997   6
   7  -4   2 402.234 110.832   6
  -7  -4   2 494.718 123.240   3
  -7   4   2 338.091 83.5493   8
   7   4   2 492.154 105.414   2
   7   4   3 1952.08 194.299   2
   7   4   3 1323.82 160.711   6
   7  -4   3 1604.58 207.114   6
  -7   4   3 1617.93 213.811   3
  -7  -4   3 1688.97 223.300   3
  -7   4   3 1456.92 170.239   8
   7   4   4 384.806 103.230   6
   7  -4   4 717.230 149.376   6
  -7   4   4 614.360 149.663   3
  -7  -4   4 719.289 158.281   3
   7   4   4 564.253 105.160   2
  -7   4   5 2679.34 297.557   3
  -7  -4   5 3630.92 364.538   3
   7   4   5 3375.06 291.610   6
   7  -4   5 3093.45 309.576   6
   7   4   6 564.020 132.364   6
   7  -4   6 718.851 163.793   6
  -7   4   6 570.632 156.293   3
  -7  -4   6 430.911 140.644   3
  -7   4   7 3421.99 369.039   3
  -7  -4   7 3531.30 416.508   3
   7   4   7 3501.68 338.824   6
   7  -4   7 3447.19 366.722   6
   7   4   8 354.588 123.538   6
   7  -4   8 450.431 147.215   6
  -7   4   8 649.107 173.476   3
  -7  -4   8 460.638 163.160   3
  -7   5  -8 431.196 157.952   8
   7   5  -8 477.797 150.272   2
   7  -5  -8 560.194 172.539   5
   7  -5  -7 450.833 127.131   5
   7   5  -7 688.780 166.877   2
  -7   5  -7 593.446 144.142   8
   7  -5  -6 3985.13 366.372   5
  -7   5  -6 4800.83 400.714   8
  -7  -5  -6 4566.30 389.528   8
   7   5  -6 4541.48 382.087   2
   7  -5  -5 1911.84 254.908   5
   7   5  -5 1454.09 211.786   2
  -7   5  -5 1421.54 213.475   8
  -7  -5  -5 1126.69 198.557   8
   7  -5  -4 112.008 56.4071   6
   7   5  -4 104.117 68.5959   2
  -7   5  -4 336.402 116.976   8
  -7  -5  -4 86.8246 79.0221   8
   7  -5  -3 749.796 151.228   6
   7   5  -3 1035.12 168.849   2
  -7   5  -3 1237.62 188.548   8
  -7  -5  -3 505.529 129.624   8
   7  -5  -2 340.474 107.579   6
   7   5  -2 271.387 96.7168   2
  -7   5  -2 215.770 77.0537   8
   7  -5  -1 4148.67 324.424   6
   7   5  -1 3765.87 241.819   6
  -7   5  -1 4398.19 321.036   8
  -7  -5  -1 4077.25 270.720   3
   7   5  -1 4460.87 314.231   2
  -7   5   0 13762.3 550.499   8
  -7  -5   0 14091.0 539.722   3
   7   5   0 14303.0 556.064   2
   7  -5   0 14395.1 596.028   6
   7   5   0 14102.0 463.206   6
   7   5   1 4057.00 292.861   2
  -7   5   1 4486.06 310.170   8
  -7  -5   1 4391.76 324.982   3
   7  -5   1 4331.24 330.297   6
   7   5   1 4123.58 253.273   6
   7   5   2 219.302 69.8203   6
   7  -5   2 375.747 109.951   6
  -7  -5   2 379.291 115.787   3
  -7   5   2 96.5130 50.9940   8
   7   5   2 330.604 91.0709   2
   7   5   3 664.621 117.751   6
   7  -5   3 708.309 147.559   6
  -7  -5   3 847.744 163.974   3
   7   5   3 701.888 129.978   2
   7   5   4 187.241 65.9211   6
   7  -5   4 291.632 97.6893   6
  -7   5   4 659.981 159.650   3
  -7  -5   4 170.713 105.455   3
   7  -5   4 507.883 125.185   3
   7   5   4 326.132 82.5092   2
   7   5   5 1445.00 189.617   6
   7  -5   5 1047.87 187.801   6
  -7   5   5 1514.71 228.780   3
  -7  -5   5 1355.28 227.889   3
   7  -5   5 1504.13 201.618   3
   7   5   5 1198.13 170.031   2
  -7   5   6 4616.33 411.414   3
  -7  -5   6 4669.25 447.046   3
   7   5   6 4276.97 346.556   6
   7  -5   6 4315.94 387.517   6
   7   5   7 449.422 127.619   6
   7  -5   7 416.553 149.906   6
  -7   5   7 612.673 167.889   3
  -7  -5   7 755.752 202.329   3
   7   5   8 509.603 148.550   6
  -7   5   8 464.300 166.575   3
   7  -6  -8 1712.36 279.472   5
  -7   6  -8 1720.75 273.599   8
   7  -6  -7 485.746 147.312   5
   7   6  -7 999.750 198.021   2
  -7   6  -7 505.620 157.583   8
   7  -6  -6 2463.97 299.985   5
   7   6  -6 2400.09 281.276   2
  -7   6  -6 2341.03 290.791   8
   7  -6  -5 639.339 154.243   5
   7   6  -5 231.890 126.481   2
  -7   6  -5 433.218 125.256   8
   7  -6  -4 1135.12 194.047   6
   7   6  -4 937.730 170.773   2
  -7   6  -4 1221.53 193.951   8
   7  -6  -3 6310.23 429.724   6
  -7   6  -3 7067.35 446.166   8
   7   6  -3 6850.45 427.946   2
   7  -6  -2 13863.9 619.406   6
  -7   6  -2 14399.6 613.010   8
   7   6  -2 13471.0 584.266   2
   7  -6  -1 440.040 117.640   6
   7   6  -1 350.443 103.430   2
  -7   6  -1 580.866 124.197   8
   7   6   0 2811.38 259.719   2
  -7   6   0 3206.13 276.444   8
  -7  -6   0 2892.29 252.778   3
   7  -6   0 3371.81 298.337   6
   7  -6   1 406.870 120.672   6
  -7  -6   1 309.763 104.154   3
  -7   6   1 560.504 114.493   8
   7   6   1 591.850 116.863   2
   7   6   2 12621.0 550.823   2
  -7   6   2 13642.4 533.873   8
  -7  -6   2 13593.4 623.758   3
   7  -6   2 13874.8 613.762   6
   7   6   3 7211.08 420.833   2
   7  -6   3 6881.46 443.420   3
  -7  -6   3 7825.06 499.834   3
   7  -6   3 7039.21 447.531   6
   7  -6   4 1022.62 182.466   6
  -7   6   4 972.480 179.340   3
  -7  -6   4 1131.61 208.376   3
   7  -6   4 864.307 166.166   3
   7   6   4 976.815 161.815   2
   7  -6   5 317.037 108.973   6
  -7   6   5 288.561 126.795   3
  -7  -6   5 382.783 139.693   3
   7  -6   5 356.597 113.305   3
   7   6   5 636.115 132.801   2
  -7   6   6 2329.33 297.637   3
  -7  -6   6 2105.35 313.751   3
   7  -6   6 2465.16 304.384   6
   7  -6   7 681.329 174.034   6
  -7   6   7 813.087 187.809   3
  -7  -6   7 620.072 187.720   3
  -7   6   8 1633.29 271.540   3
   7  -7  -7 2240.02 317.938   5
   7   7  -7 2065.03 280.276   2
  -7   7  -7 1546.53 247.486   8
   7  -7  -6 1038.98 209.373   5
   7   7  -6 1210.77 217.666   2
  -7   7  -6 913.830 184.682   8
   7  -7  -5 1724.64 250.514   5
   7   7  -5 1692.93 235.412   2
  -7   7  -5 2194.07 277.255   8
   7  -7  -4 1370.25 221.761   6
   7  -7  -4 1529.33 229.845   5
   7   7  -4 1683.08 233.326   2
  -7   7  -4 1489.79 217.881   8
   7  -7  -3 6138.36 437.239   6
  -7   7  -3 6418.50 441.091   8
   7   7  -3 6037.61 415.597   2
   7  -7  -2 10515.4 550.442   6
  -7   7  -2 10180.1 531.763   8
   7   7  -2 10399.6 530.554   2
   7  -7  -1 2044.49 243.413   6
   7   7  -1 1551.45 202.492   2
  -7   7  -1 1545.96 205.348   8
   7   7   0 2214.42 241.002   2
  -7   7   0 2048.16 225.768   8
  -7  -7   0 2315.70 235.117   3
   7  -7   0 2256.89 251.501   6
   7   7   1 1883.18 225.420   2
   7  -7   1 1274.47 189.005   6
  -7  -7   1 1821.46 228.793   3
  -7   7   1 1860.63 210.216   8
   7   7   2 9850.25 511.223   2
  -7   7   2 10424.9 473.965   8
  -7  -7   2 11780.3 600.440   3
   7  -7   2 10819.9 556.294   6
   7   7   3 6493.41 419.335   2
   7  -7   3 6094.97 442.782   3
  -7  -7   3 6138.01 458.512   3
   7  -7   3 6015.60 423.292   6
   7  -7   4 1722.71 234.336   6
  -7  -7   4 1750.02 266.162   3
   7  -7   4 1533.04 231.002   3
   7   7   4 1336.89 192.181   2
   7  -7   5 1668.76 244.244   6
  -7   7   5 2227.45 292.530   3
  -7  -7   5 1694.46 273.450   3
   7  -7   5 2063.79 265.459   3
   7   7   5 2065.69 251.728   2
   7   7   6 852.094 166.417   2
   7  -7   6 914.503 188.328   6
  -7   7   6 972.913 194.536   3
  -7  -7   6 743.014 197.529   3
   7  -7   7 1496.06 258.796   6
  -7   7   7 1847.66 280.029   3
  -7  -7   7 1324.89 268.903   3
   7  -8  -6 1270.34 229.420   5
   7   8  -6 925.057 192.349   2
  -7   8  -6 1230.94 226.271   8
   7  -8  -5 2084.98 287.548   5
   7   8  -5 2017.84 267.175   2
  -7   8  -5 1729.09 254.543   8
   7  -8  -4 2419.03 288.314   6
   7  -8  -4 2744.45 316.353   5
   7   8  -4 2185.03 265.754   2
  -7   8  -4 2197.25 275.904   8
   7  -8  -3 982.960 175.320   6
   7  -8  -3 907.649 177.638   5
   7   8  -3 771.265 174.328   2
  -7   8  -3 1257.17 207.804   8
   7  -8  -2 5245.11 401.784   6
  -7   8  -2 4824.82 380.079   8
   7   8  -2 4646.64 370.921   2
   7  -8  -1 4472.44 362.877   6
  -7   8  -1 4430.21 356.370   8
   7   8  -1 4780.88 370.604   2
   7   8   0 1982.20 245.713   2
  -7  -8   0 1910.51 223.785   3
  -7   8   0 2060.26 234.283   8
   7  -8   0 2308.08 259.905   6
   7   8   1 4949.84 378.237   2
  -7   8   1 5143.74 355.932   8
  -7  -8   1 5051.20 383.902   3
   7  -8   1 4801.87 375.885   6
   7   8   2 5146.48 385.913   2
  -7  -8   2 4328.83 380.941   3
   7  -8   2 4653.67 373.861   6
   7  -8   3 1216.36 197.848   6
  -7  -8   3 798.992 170.243   3
   7  -8   3 1024.42 196.083   3
   7   8   3 1277.99 205.865   2
   7  -8   4 2565.67 310.002   3
   7   8   4 2919.08 300.728   2
  -7  -8   4 2242.04 312.846   3
   7  -8   4 2345.00 288.350   6
   7  -8   5 1751.02 250.077   6
  -7   8   5 2111.56 288.122   3
  -7  -8   5 1692.90 274.413   3
   7  -8   5 1725.60 258.934   3
   7   8   5 1789.41 244.482   2
   7   8   6 1451.11 224.069   2
   7  -8   6 1356.52 227.174   6
  -7   8   6 1777.85 275.198   3
  -7  -8   6 1280.34 256.602   3
   7  -8   6 1347.43 231.609   3
   7  -8   7 1723.49 275.316   6
  -7   8   7 2065.62 293.716   3
   7   9  -6 849.981 175.978   2
   7  -9  -5 1868.99 286.450   5
   7   9  -5 1865.16 259.285   2
  -7   9  -5 1916.49 273.082   8
   7  -9  -4 1892.38 266.619   6
   7  -9  -4 2114.74 289.803   5
   7   9  -4 1961.70 263.914   2
  -7   9  -4 1558.28 245.728   8
   7  -9  -3 965.553 183.027   6
   7  -9  -3 589.130 161.908   5
   7   9  -3 631.930 153.869   2
  -7   9  -3 568.802 155.949   8
   7  -9  -2 374.338 122.318   6
   7   9  -2 202.893 71.4117   2
  -7   9  -2 308.136 114.244   8
   7  -9  -1 855.144 169.359   6
  -7   9  -1 881.752 161.507   8
   7   9  -1 1125.80 194.752   2
   7  -9   0 2186.52 261.236   6
  -7   9   0 1852.89 228.417   8
   7   9   0 2069.05 258.005   2
   7  -9   1 1046.25 183.079   6
  -7  -9   1 1026.38 185.088   3
  -7   9   1 822.601 157.281   8
   7   9   1 1138.49 190.446   2
   7  -9   2 440.952 129.978   6
  -7  -9   2 644.862 157.746   3
   7  -9   2 662.670 168.467   3
   7   9   2 259.564 109.887   2
   7  -9   3 855.740 170.324   6
  -7  -9   3 1040.48 207.419   3
   7  -9   3 992.359 206.059   3
   7   9   3 727.379 160.385   2
   7  -9   4 1904.93 258.442   6
  -7  -9   4 2051.04 302.467   3
   7  -9   4 1940.89 285.017   3
   7   9   4 1676.51 241.313   2
   7  -9   5 2453.45 304.937   6
  -7   9   5 1932.23 278.964   3
  -7  -9   5 1882.08 305.901   3
   7  -9   5 1938.49 284.096   3
   7   9   5 1721.25 254.983   2
   7   9   6 735.924 173.737   2
   7  -9   6 1047.54 214.416   6
  -7   9   6 963.841 210.291   3
   7  -9   6 1216.33 236.028   3
   7 -10  -5 2356.09 329.603   5
  -7  10  -5 3018.17 352.769   8
   7  10  -5 3332.88 359.253   2
   7 -10  -4 2302.34 311.816   5
   7  10  -4 2425.83 300.634   2
  -7  10  -4 2507.41 319.826   8
   7 -10  -3 5475.21 443.481   6
   7 -10  -3 4757.71 430.712   5
  -7  10  -3 4703.70 412.369   8
   7  10  -3 5685.34 449.630   2
   7 -10  -2 135.392 92.2611   6
   7 -10  -2 105.823 87.7388   5
   7  10  -2 150.357 89.5911   2
  -7  10  -2 242.624 104.731   8
   7 -10  -1 2325.24 274.735   6
  -7  10  -1 2638.14 291.304   8
   7  10  -1 2461.37 293.794   2
   7 -10   0 257.208 111.942   6
  -7  10   0 487.998 124.764   8
   7  10   0 305.299 110.815   2
   7  10   1 2538.41 300.224   2
   7 -10   1 2020.67 260.954   6
  -7  10   1 2588.94 272.368   8
  -7 -10   1 2611.71 299.745   3
   7 -10   2 102.641 63.6525   6
  -7 -10   2 221.437 98.5713   3
   7 -10   2 106.673 85.1734   3
   7  10   2 338.407 116.178   2
   7  10   3 5552.55 446.642   2
   7 -10   3 5633.19 491.641   3
  -7 -10   3 4959.45 460.216   3
   7 -10   3 5188.69 420.390   6
   7 -10   4 2404.09 292.274   6
   7  10   4 2750.94 325.173   2
  -7 -10   4 2802.06 366.777   3
   7 -10   4 2679.66 345.241   3
   7 -10   5 2732.83 323.942   6
   7  10   5 3140.42 350.266   2
  -7  10   5 2938.05 354.480   3
  -7 -10   5 3041.00 397.142   3
   7 -10   5 2952.85 363.057   3
   7 -10   6 2018.48 291.998   6
  -7  10   6 2226.06 321.002   3
   7  11  -4-13.5066 99.5913   2
   7 -11  -3 1033.76 197.946   6
   7 -11  -3 790.870 197.948   5
  -7  11  -3 959.958 200.801   8
   7  11  -3 630.424 179.313   2
   7 -11  -2 723.813 172.489   6
   7 -11  -2 1018.98 210.300   5
   7  11  -2 608.384 158.923   2
  -7  11  -2 1019.70 204.994   8
   7 -11  -1 2312.53 280.320   6
   7 -11  -1 2406.13 298.131   5
  -7  11  -1 2710.82 307.785   8
   7  11  -1 2590.07 314.688   2
   7 -11   0 167.479 85.9335   6
   7 -11   0 5.75470 61.0358   5
  -7  11   0 55.8180 64.7493   8
   7  11   0 40.2473 49.2600   2
   7 -11   1 2276.12 279.887   6
   7  11   1 2525.05 311.482   2
   7 -11   2 599.265 148.154   6
  -7 -11   2 691.653 184.358   3
   7 -11   2 877.792 196.219   3
   7  11   2 664.707 172.536   2
  -7 -11   3 1149.97 230.305   3
   7 -11   3 854.472 200.987   3
   7  11   3 539.084 155.397   2
  -7 -11   4-111.438 132.245   3
   7 -11   4 70.8292 72.4958   3
   7  11   4 50.5082 81.1788   2
   7 -12  -2 5531.13 487.446   5
  -7  12  -2 6356.31 498.396   8
   7  12  -2 5203.08 462.318   2
   7 -12  -1 939.615 190.181   5
  -7  12  -1 1324.15 225.392   8
   7  12  -1 1414.55 245.582   2
   7 -12   0 407.210 127.948   5
  -7  12   0 493.642 140.804   8
   7  12   0 441.532 156.069   2
   7  12   1 884.462 198.744   2
   7  12   2 5763.60 490.385   2
   7 -12   2 5632.50 525.331   3
  -7 -12   3 638.394 199.525   3
   7 -13  -1 439.289 152.760   5
   7 -13   0 35.2651 84.5945   5
   8   0  -8 6197.89 480.879   1
   8   0  -7 7399.45 499.020   1
  -8   0  -7 8556.80 572.596   8
   8   0  -6 1627.20 228.756   2
  -8   0  -6 1292.81 212.300   8
  -8   0  -5 4032.52 369.657   8
   8   0  -5 4303.67 348.398   2
   8   0  -4 1335.87 202.180   6
   8   0  -4 1396.65 190.373   2
  -8   0  -4 1160.64 190.775   8
   8   0  -3 5011.53 371.823   6
  -8   0  -3 5392.88 398.495   8
   8   0  -3 5140.24 345.602   2
  -8   0  -2 487.922 99.6156   3
   8   0  -2 766.628 143.878   6
   8   0  -2 885.845 138.306   2
  -8   0  -2 520.002 127.389   8
  -8   0  -1 4070.27 335.579   8
  -8   0  -1 4316.77 297.557   3
   8   0  -1 4149.96 276.605   2
   8   0  -1 4429.33 323.747   6
   8   0   0-5.39200 56.2823   6
  -8   0   0 47.3265 40.9982   3
   8   0   0 148.506 60.3799   2
  -8   0   0-24.1652 56.4693   8
  -8   0   1 3947.06 330.973   8
  -8   0   1 4271.81 320.770   3
   8   0   1 4185.03 248.735   2
   8   0   1 4612.28 331.935   6
   8   0   2 518.377 114.651   6
  -8   0   2 919.481 159.583   3
  -8   0   2 527.351 125.273   8
  -8   0   3 4995.20 363.823   8
  -8   0   3 5266.63 393.745   3
   8   0   3 5057.58 364.189   6
   8   0   4 1166.41 189.599   6
  -8   0   4 999.452 178.328   3
  -8   0   5 4282.57 394.223   3
   8   0   5 4206.92 358.046   6
   8   0   6 1477.82 232.253   6
  -8   0   6 1661.81 262.062   3
  -8   0   7 8066.08 598.018   3
   8   0   7 7536.74 538.173   6
  -8   0   8 6233.84 551.909   3
   8   0   8 6033.89 504.916   6
   8   1  -8 61.0288 83.9060   1
   8  -1  -8 24.5186 71.6413   1
   8  -1  -7 4218.13 372.082   1
   8   1  -7 4030.50 376.913   1
   8   1  -7 5186.32 427.830   2
  -8   1  -7 3866.65 382.678   8
  -8  -1  -7 3909.76 384.912   8
   8  -1  -6 148.290 89.8347   5
   8   1  -6 179.436 109.462   2
   8  -1  -6 433.353 125.552   1
  -8   1  -6 243.920 97.5357   8
  -8  -1  -6 134.353 77.9755   8
   8  -1  -5 24.4819 54.8671   2
   8   1  -5-28.7622 69.9625   2
  -8   1  -5-0.81473 69.6883   8
  -8  -1  -5-56.0021 63.9298   8
   8  -1  -4 2655.85 288.095   6
   8   1  -4 3217.45 301.849   6
  -8   1  -4 2630.76 288.556   8
  -8  -1  -4 3552.55 334.855   8
   8  -1  -4 2580.69 255.296   2
   8   1  -4 3199.38 292.069   2
   8  -1  -3 2040.18 242.734   6
   8   1  -3 1679.96 211.746   6
   8  -1  -3 1878.66 207.419   2
  -8   1  -3 1667.67 224.383   8
   8   1  -3 1849.25 214.715   2
  -8  -1  -3 2084.67 251.411   8
   8  -1  -2 104.269 72.5879   6
   8   1  -2 128.913 69.5377   6
  -8  -1  -2 77.6550 54.4665   3
   8  -1  -2 293.415 84.1370   2
   8   1  -2 186.122 79.5457   2
  -8   1  -2 125.462 69.1619   8
  -8  -1  -2 194.685 91.3289   8
   8   1  -1 4848.13 332.923   6
  -8   1  -1 4642.19 354.135   8
  -8  -1  -1 4707.15 366.723   8
  -8   1  -1 4222.74 302.936   3
   8  -1  -1 4661.00 286.213   2
   8   1  -1 4754.14 302.902   2
  -8  -1  -1 5323.60 323.212   3
   8  -1  -1 5016.24 349.589   6
   8  -1   0 1426.54 187.986   6
   8   1   0 1310.08 178.602   6
  -8  -1   0 1384.21 175.081   3
   8  -1   0 1259.15 139.409   2
  -8   1   0 1711.36 200.576   3
  -8   1   0 1568.52 204.525   8
  -8  -1   0 1250.18 199.859   8
   8   1   0 1574.56 168.824   2
  -8   1   1 4898.22 357.212   8
  -8  -1   1 4835.85 371.212   8
  -8   1   1 4873.78 343.827   3
  -8  -1   1 4725.69 338.971   3
   8  -1   1 5375.56 265.541   2
   8   1   1 5020.94 285.575   2
   8  -1   1 4707.47 343.844   6
   8   1   1 4909.60 333.908   6
   8   1   2 119.614 57.2177   6
   8  -1   2 248.616 93.0852   6
  -8   1   2 169.800 75.1069   3
  -8  -1   2 109.033 64.8301   3
   8   1   2 178.549 62.9998   2
  -8   1   2 204.755 88.9468   8
  -8  -1   2 199.289 86.6800   8
  -8   1   3 2398.96 251.117   8
  -8   1   3 2347.85 266.075   3
  -8  -1   3 2188.76 255.197   3
   8   1   3 1979.45 226.632   6
   8  -1   3 1924.58 232.742   6
  -8   1   4 3182.49 321.863   3
  -8  -1   4 3147.35 323.448   3
   8   1   4 3002.07 288.217   6
   8  -1   4 2588.03 272.483   6
   8   1   5-18.7239 54.4495   6
   8  -1   5 32.7677 59.1832   6
  -8   1   5 81.1353 92.2009   3
  -8  -1   5 10.0330 65.3537   3
   8   1   6 196.084 97.4734   6
   8  -1   6 267.954 113.104   6
  -8   1   6 111.250 81.0736   3
  -8  -1   6 58.2993 77.5205   3
  -8   1   7 4504.34 448.671   3
  -8  -1   7 4486.18 457.701   3
   8   1   7 4068.19 388.710   6
   8  -1   7 4392.28 418.173   6
   8   1   8 14.4611 72.3861   6
  -8   1   8-164.614 111.812   3
  -8  -1   8 4.14090 62.1676   3
   8  -2  -8 853.406 180.570   1
  -8   2  -8 681.706 178.867   8
   8   2  -8 767.343 187.027   1
   8   2  -7 62.0248 82.2132   1
   8   2  -7-65.9459 86.7792   2
  -8   2  -7 179.465 101.178   8
  -8  -2  -7 55.8423 75.1550   8
   8  -2  -7 131.067 68.5339   1
   8  -2  -6 4684.36 371.934   5
   8  -2  -6 5107.98 373.769   1
  -8   2  -6 5012.53 425.537   8
  -8  -2  -6 4094.69 383.884   8
   8   2  -6 5681.03 430.394   2
   8   2  -5 295.783 110.066   2
  -8   2  -5 47.2997 59.1697   8
  -8  -2  -5 531.401 149.572   8
   8  -2  -4 2590.22 285.036   6
   8   2  -4 2831.77 280.658   6
  -8   2  -4 2486.89 280.579   8
  -8  -2  -4 2400.86 285.037   8
   8   2  -4 3126.96 290.717   2
   8  -2  -3 11685.2 574.182   6
   8   2  -3 11483.4 534.034   6
  -8   2  -3 10255.6 548.883   8
   8  -2  -3 10729.0 481.861   2
  -8  -2  -3 11309.0 596.151   8
   8   2  -3 10663.4 511.941   2
   8  -2  -2 888.318 162.147   6
   8   2  -2 1008.11 159.961   6
  -8  -2  -2 880.741 124.756   3
   8  -2  -2 826.612 127.711   2
   8   2  -2 1010.81 158.060   2
  -8   2  -2 1063.64 174.984   8
  -8  -2  -2 873.881 169.066   8
   8  -2  -1 1802.03 217.689   6
   8   2  -1 1430.76 180.576   6
   8  -2  -1 1662.16 170.036   2
  -8   2  -1 1621.92 206.435   8
  -8  -2  -1 1987.58 199.055   3
  -8  -2  -1 1681.17 229.614   8
   8   2  -1 1792.08 195.045   2
  -8   2   0 35945.6 954.271   8
  -8  -2   0 36651.6 1037.96   8
   8  -2   0 38399.8 747.218   2
  -8  -2   0 38270.7 907.718   3
   8   2   0 38154.0 849.326   2
   8  -2   0 38271.0 974.076   6
   8   2   0 38659.2 907.301   6
   8  -2   1 1510.94 200.646   6
  -8   2   1 1935.36 218.751   3
  -8  -2   1 1691.95 204.378   3
  -8   2   1 1561.33 204.119   8
  -8  -2   1 1847.38 234.856   8
   8   2   1 1945.62 186.919   2
   8   2   1 2116.98 216.001   6
   8   2   2 932.677 149.837   6
   8  -2   2 1150.61 180.539   6
  -8   2   2 1029.06 175.496   3
  -8  -2   2 1043.94 172.456   3
   8   2   2 980.072 128.750   2
  -8   2   2 977.599 159.055   8
  -8   2   3 10953.0 521.508   8
  -8   2   3 11091.5 571.760   3
  -8  -2   3 11183.3 580.358   3
   8   2   3 10204.5 499.070   6
   8  -2   3 10904.4 551.582   6
  -8   2   4 2889.55 308.469   3
  -8  -2   4 2871.43 312.448   3
   8   2   4 3193.66 292.177   6
   8  -2   4 2720.52 285.293   6
   8   2   5 434.759 125.914   6
   8  -2   5 291.805 99.2161   6
  -8   2   5 393.634 139.984   3
  -8  -2   5 252.193 118.554   3
  -8   2   6 5459.95 466.857   3
  -8  -2   6 4753.26 444.560   3
   8   2   6 4546.37 384.395   6
   8  -2   6 6079.79 466.752   6
   8   2   7 60.0499 63.9411   6
   8  -2   7 65.9891 102.005   6
  -8   2   7 110.135 95.6931   3
  -8  -2   7 220.066 129.629   3
   8   2   8 848.030 186.162   6
  -8   2   8 770.200 198.626   3
  -8   3  -8 251.596 114.440   8
   8  -3  -7 2718.71 310.874   5
   8   3  -7 2770.73 322.069   2
  -8   3  -7 2814.97 330.354   8
   8  -3  -6 1744.74 236.778   5
   8   3  -6 2242.24 276.442   2
  -8   3  -6 1794.23 259.293   8
  -8  -3  -6 1751.59 259.044   8
   8   3  -5 177.508 110.057   2
  -8   3  -5 276.489 113.334   8
  -8  -3  -5 167.260 107.889   8
   8  -3  -4 2384.50 281.427   6
  -8   3  -4 2969.47 310.300   8
  -8  -3  -4 2617.13 305.774   8
   8   3  -4 2356.73 263.091   2
   8  -3  -3 7752.02 479.972   6
   8   3  -3 7554.84 425.295   6
  -8   3  -3 8703.36 504.056   8
  -8  -3  -3 7848.74 510.971   8
   8   3  -3 8077.00 452.172   2
   8  -3  -2 3378.83 310.333   6
   8   3  -2 3718.49 289.777   6
  -8   3  -2 3421.35 309.919   8
  -8  -3  -2 3571.24 339.797   8
   8   3  -2 3545.04 287.811   2
   8   3  -1 7813.70 405.731   6
  -8   3  -1 7642.55 449.928   8
  -8  -3  -1 7261.14 480.554   8
  -8  -3  -1 6762.26 365.630   3
   8   3  -1 7867.19 414.739   2
   8  -3  -1 7445.35 446.295   6
   8  -3   0 1514.92 200.216   6
  -8   3   0 1980.11 228.939   8
  -8  -3   0 1993.23 210.233   3
  -8  -3   0 1805.91 238.740   8
   8   3   0 1736.11 193.249   2
   8   3   0 2143.32 211.298   6
  -8   3   1 7133.38 419.441   8
  -8  -3   1 7837.18 444.469   3
   8   3   1 7370.65 380.763   2
   8  -3   1 7598.10 449.271   6
   8   3   1 7432.74 396.366   6
  -8   3   2 3276.72 283.814   8
  -8   3   2 3777.58 327.965   3
  -8  -3   2 3912.77 330.948   3
   8   3   2 3440.99 274.676   6
   8  -3   2 3879.79 325.659   6
   8   3   2 3573.99 261.207   2
   8   3   3 8566.03 401.264   2
  -8   3   3 7715.40 430.718   8
  -8   3   3 8449.69 508.442   3
  -8  -3   3 7487.18 484.856   3
   8   3   3 7744.82 426.232   6
   8  -3   3 7885.24 473.260   6
  -8   3   4 2991.55 313.792   3
  -8  -3   4 3268.52 337.378   3
   8   3   4 2677.11 262.774   6
   8  -3   4 2956.80 302.166   6
   8   3   5 177.378 79.8205   6
   8  -3   5 51.2328 60.4939   6
  -8   3   5 225.623 102.500   3
  -8  -3   5 180.796 109.338   3
   8   3   6 1523.93 225.881   6
   8  -3   6 1647.25 250.021   6
  -8   3   6 1965.01 281.496   3
  -8  -3   6 2151.74 314.942   3
   8   3   7 2633.18 312.341   6
   8  -3   7 2762.49 340.255   6
  -8   3   7 2410.54 332.035   3
  -8  -3   7 3217.72 397.462   3
   8   3   8 261.383 105.168   6
  -8   3   8 427.514 146.028   3
  -8   4  -8 607.151 165.885   8
   8  -4  -7 1007.89 195.533   5
   8   4  -7 1131.41 213.576   2
  -8   4  -7 1225.50 230.354   8
   8  -4  -6 480.561 142.099   5
   8   4  -6 384.779 123.668   2
  -8   4  -6 472.098 152.509   8
  -8  -4  -6 324.852 119.960   8
   8  -4  -5 253.255 105.795   6
   8   4  -5 202.825 86.3566   2
  -8   4  -5 114.245 58.7551   8
  -8  -4  -5 234.381 103.121   8
   8  -4  -4 6805.96 474.681   6
  -8   4  -4 7488.77 489.020   8
  -8  -4  -4 7351.86 513.792   8
   8   4  -4 7262.27 457.470   2
   8  -4  -3 3368.24 327.257   6
   8   4  -3 3462.82 286.480   6
  -8   4  -3 3510.04 328.673   8
  -8  -4  -3 3448.59 347.669   8
   8   4  -3 3405.94 304.283   2
   8  -4  -2 2389.76 266.547   6
   8   4  -2 1818.04 197.821   6
  -8   4  -2 2219.68 253.941   8
  -8  -4  -2 2139.36 266.523   8
   8   4  -2 2211.47 237.775   2
   8  -4  -1 2422.42 264.008   6
   8   4  -1 2674.64 232.234   6
  -8   4  -1 2508.64 261.661   8
  -8  -4  -1 2133.98 270.708   8
  -8  -4  -1 2416.58 218.670   3
   8   4  -1 2553.95 245.573   2
  -8   4   0 4007.97 320.166   8
  -8  -4   0 3818.47 297.302   3
   8   4   0 4330.10 311.627   2
   8  -4   0 4660.04 358.235   6
   8   4   0 4204.22 288.171   6
   8  -4   1 1989.45 237.113   6
  -8   4   1 2516.18 249.929   8
  -8  -4   1 2651.21 265.368   3
   8   4   1 1980.26 210.293   2
   8   4   1 2263.98 214.744   6
   8   4   2 2611.95 238.567   2
   8  -4   2 1837.14 233.929   6
  -8   4   2 1944.71 219.190   8
  -8   4   2 2254.90 261.782   3
  -8  -4   2 2223.65 258.094   3
   8   4   2 2199.96 216.045   6
   8   4   3 3291.79 263.387   2
  -8   4   3 2986.41 265.422   8
  -8   4   3 3015.98 312.142   3
  -8  -4   3 3640.75 345.014   3
   8   4   3 3045.88 265.883   6
   8  -4   3 3526.59 323.824   6
  -8   4   4 7185.69 493.883   3
  -8  -4   4 6903.40 498.094   3
   8   4   4 6848.56 414.533   6
   8  -4   4 7708.70 494.745   6
   8   4   5 195.977 84.8088   6
   8  -4   5 181.580 93.8883   6
  -8   4   5 250.972 117.493   3
  -8  -4   5 254.102 108.141   3
   8   4   6 311.081 114.210   6
   8  -4   6 103.888 66.1377   6
  -8   4   6 373.381 130.107   3
  -8  -4   6 229.906 107.071   3
   8   4   7 1207.70 211.624   6
   8  -4   7 1227.74 221.709   6
  -8   4   7 1407.14 245.862   3
  -8  -4   7 1555.48 281.121   3
   8   4   8 366.300 130.816   6
   8  -5  -7 1344.12 235.579   5
   8   5  -7 1395.09 232.087   2
  -8   5  -7 1543.97 253.410   8
   8  -5  -6 17.4806 83.5869   5
   8   5  -6-9.34629 60.9722   2
  -8   5  -6 2.52005 84.4294   8
  -8  -5  -6 217.859 108.485   8
   8  -5  -5 2027.29 263.090   5
   8   5  -5 1592.56 233.714   2
  -8   5  -5 2240.24 285.551   8
  -8  -5  -5 1641.63 251.507   8
   8  -5  -4 209.753 87.6342   6
   8   5  -4 169.802 89.9177   2
  -8   5  -4 293.594 109.276   8
  -8  -5  -4 231.800 114.087   8
   8  -5  -3 6591.29 459.273   6
  -8   5  -3 6605.76 450.131   8
  -8  -5  -3 6237.67 470.864   8
   8   5  -3 6489.27 427.195   2
   8  -5  -2 828.947 166.480   6
   8   5  -2 861.594 151.818   2
  -8   5  -2 848.819 162.106   8
   8  -5  -1 5160.13 392.769   6
  -8   5  -1 5596.11 393.730   8
   8   5  -1 5484.67 372.707   2
   8  -5   0 97.4937 63.7306   6
  -8  -5   0 182.235 86.6312   3
   8   5   0 83.1119 45.3370   2
  -8   5   0 101.602 51.2034   8
  -8   5   1 5702.83 378.834   8
  -8  -5   1 5252.46 377.468   3
   8  -5   1 6058.23 419.857   6
   8   5   1 5281.42 356.877   2
   8  -5   2 784.269 163.208   6
  -8  -5   2 563.023 140.282   3
  -8   5   2 722.622 139.293   8
   8   5   2 1068.33 158.365   2
   8   5   3 6312.11 389.697   2
  -8   5   3 6878.11 474.709   3
  -8  -5   3 6041.21 453.649   3
   8  -5   3 6727.30 458.432   6
   8  -5   4 260.607 100.551   6
  -8   5   4 152.879 94.9088   3
  -8  -5   4 384.673 153.958   3
   8   5   4 209.806 77.1982   2
   8  -5   5 1917.91 266.183   6
  -8   5   5 1684.70 253.896   3
  -8  -5   5 1994.11 295.433   3
   8  -5   6 119.279 84.8565   6
  -8   5   6 33.6533 100.042   3
  -8  -5   6 66.8233 79.9993   3
   8  -5   7 1434.84 255.170   6
  -8   5   7 1225.59 242.964   3
  -8  -5   7 1288.59 265.949   3
   8  -6  -7 1121.30 220.560   5
  -8   6  -7 721.796 177.655   8
   8  -6  -6 2718.40 332.291   5
   8   6  -6 2550.46 306.197   2
  -8   6  -6 2698.36 327.512   8
   8  -6  -5 80.6092 71.7521   5
   8   6  -5 105.473 71.7305   2
  -8   6  -5 283.269 108.164   8
   8  -6  -4 1063.72 202.026   6
   8   6  -4 902.123 176.656   2
  -8   6  -4 876.917 171.344   8
   8  -6  -3 1695.56 242.268   6
   8   6  -3 1802.23 235.012   2
  -8   6  -3 2021.49 260.214   8
   8  -6  -2 414.882 116.400   6
   8   6  -2 535.469 142.625   2
  -8   6  -2 416.413 114.914   8
   8  -6  -1 2441.74 275.369   6
  -8   6  -1 2548.76 273.140   8
   8   6  -1 2459.48 258.729   2
   8  -6   0 510.577 140.023   6
  -8  -6   0 530.814 121.436   3
   8   6   0 708.663 146.060   2
  -8   6   0 557.682 123.396   8
   8   6   1 2290.20 248.396   2
   8  -6   1 2273.25 266.602   6
  -8   6   1 2131.27 237.055   8
  -8  -6   1 2711.47 279.848   3
   8  -6   2 480.357 126.615   6
  -8  -6   2 372.357 126.569   3
  -8   6   2 350.281 99.4171   8
   8   6   2 375.753 104.977   2
   8   6   3 1939.46 228.267   2
   8  -6   3 2014.43 256.278   6
  -8  -6   3 2149.59 278.825   3
   8  -6   4 1013.21 187.553   6
  -8   6   4 930.845 198.648   3
  -8  -6   4 1192.93 221.180   3
   8   6   4 664.432 137.855   2
   8  -6   5 178.355 113.666   6
  -8   6   5 276.648 136.564   3
  -8  -6   5 187.461 112.791   3
  -8   6   6 2737.62 340.697   3
  -8  -6   6 3133.49 398.709   3
   8  -6   6 3073.73 354.753   6
  -8   6   7 952.215 212.417   3
   8  -7  -6 1379.93 248.822   5
   8   7  -6 1636.59 257.256   2
  -8   7  -6 1413.28 246.744   8
   8  -7  -5 1781.20 272.101   5
   8   7  -5 1915.48 260.598   2
  -8   7  -5 1664.97 255.949   8
   8  -7  -4 408.780 138.112   6
   8  -7  -4 654.717 160.603   5
   8   7  -4 415.389 143.640   2
  -8   7  -4 354.997 124.334   8
   8  -7  -3 8041.49 531.738   6
  -8   7  -3 7265.39 497.415   8
   8   7  -3 6847.09 467.176   2
   8  -7  -2 1401.61 219.281   6
   8   7  -2 1390.42 208.919   2
  -8   7  -2 1610.50 228.952   8
   8  -7  -1 749.543 160.211   6
   8   7  -1 779.872 158.102   2
  -8   7  -1 834.317 165.184   8
  -8   7   0 4521.41 358.509   8
   8   7   0 4214.85 349.066   2
   8  -7   0 4099.17 363.101   6
   8  -7   1 739.654 152.951   6
  -8  -7   1 759.930 158.107   3
  -8   7   1 734.013 148.638   8
   8   7   1 665.413 146.474   2
   8  -7   2 1435.60 220.523   6
  -8  -7   2 1796.81 251.318   3
  -8   7   2 1414.32 190.164   8
   8   7   2 1517.11 210.160   2
   8   7   3 7122.78 459.515   2
  -8  -7   3 7311.02 524.468   3
   8  -7   3 6925.25 485.892   6
   8  -7   4 532.947 149.533   6
  -8   7   4 516.800 158.873   3
  -8  -7   4 611.682 170.045   3
   8   7   4 525.428 132.125   2
   8  -7   5 1836.65 266.761   6
  -8   7   5 2107.54 295.721   3
  -8  -7   5 2040.11 312.034   3
   8   7   5 1604.01 230.315   2
   8  -7   6 1325.32 238.885   6
  -8   7   6 1490.27 260.182   3
  -8  -7   6 1417.25 266.381   3
   8  -8  -5 738.440 185.365   5
   8   8  -5 475.435 136.344   2
  -8   8  -5 893.903 196.111   8
   8  -8  -4 1401.02 231.061   6
   8  -8  -4 1893.84 280.223   5
   8   8  -4 1644.06 241.046   2
  -8   8  -4 1287.33 219.718   8
   8  -8  -3 1018.43 201.703   6
   8   8  -3 797.801 169.530   2
  -8   8  -3 914.398 192.616   8
   8  -8  -2 6663.52 486.182   6
  -8   8  -2 6756.27 480.066   8
   8   8  -2 6844.10 471.569   2
   8  -8  -1 1807.32 250.162   6
   8   8  -1 1968.73 255.319   2
  -8   8  -1 1608.15 230.723   8
   8  -8   0-40.6159 78.7008   6
  -8   8   0-17.8230 56.2785   8
   8   8   0-32.2814 52.0103   2
   8  -8   1 1953.34 259.296   6
  -8  -8   1 1220.15 207.972   3
  -8   8   1 2001.86 242.127   8
   8   8   1 1777.10 244.349   2
   8   8   2 7214.73 476.242   2
  -8  -8   2 7096.96 505.978   3
   8  -8   2 7076.03 490.009   6
   8  -8   3 984.074 196.723   6
  -8  -8   3 776.390 188.225   3
   8   8   3 1057.66 190.766   2
   8  -8   4 1675.06 250.985   6
  -8   8   4 1574.62 252.812   3
  -8  -8   4 1452.35 261.217   3
   8   8   4 1660.61 237.934   2
   8  -8   5 605.161 154.303   6
  -8   8   5 691.150 179.356   3
  -8  -8   5 542.641 170.042   3
   8  -8   5 1027.36 210.044   3
   8   8   5 962.799 187.927   2
  -8   8   6 6225.24 527.870   3
   8  -8   6 7287.19 558.481   6
   8  -9  -4 592.406 165.116   6
   8  -9  -4 393.322 139.753   5
   8   9  -4 582.524 162.682   2
  -8   9  -4 364.110 132.669   8
   8  -9  -3 6597.74 503.824   6
   8  -9  -3 6335.18 498.098   5
  -8   9  -3 7126.08 522.877   8
   8   9  -3 6325.81 482.019   2
   8  -9  -2 5038.76 430.215   6
  -8   9  -2 4463.17 402.646   8
   8   9  -2 4943.84 417.318   2
   8  -9  -1 598.693 164.124   6
   8   9  -1 210.339 104.094   2
  -8   9  -1 371.902 132.355   8
   8  -9   0 722.113 167.477   6
  -8   9   0 720.159 159.707   8
   8   9   0 1008.44 200.321   2
   8  -9   1 330.163 114.252   6
  -8   9   1 619.480 147.510   8
   8   9   1 523.613 140.278   2
   8   9   2 5252.77 426.552   2
  -8  -9   2 5052.27 439.738   3
   8  -9   2 4818.76 415.175   6
   8   9   3 6399.26 476.709   2
  -8  -9   3 6861.32 539.342   3
   8  -9   3 6240.80 482.422   6
   8  -9   4 277.480 111.265   6
  -8  -9   4 787.790 223.190   3
   8   9   4 513.723 149.499   2
   8   9   5 5100.91 437.474   2
   8  -9   5 5266.91 481.789   3
  -8   9   5 5818.88 506.855   3
  -8  -9   5 5223.81 520.306   3
   8  -9   5 5311.62 466.211   6
   8 -10  -4 4373.14 433.588   6
   8 -10  -3 1583.72 252.547   6
   8 -10  -3 1291.59 236.804   5
   8  10  -3 1378.84 231.873   2
  -8  10  -3 1542.57 252.976   8
   8 -10  -2 745.924 173.582   6
   8 -10  -2 728.852 165.042   5
   8  10  -2 968.587 198.088   2
  -8  10  -2 570.932 162.037   8
   8 -10  -1 3704.35 373.249   6
  -8  10  -1 3755.44 370.113   8
   8  10  -1 3761.62 377.094   2
   8 -10   0 149.252 99.9581   6
  -8  10   0 190.104 98.3667   8
   8  10   0-16.7808 65.9228   2
   8  10   1 3483.23 362.536   2
   8 -10   1 4121.51 391.915   6
   8 -10   2 330.220 112.414   6
  -8 -10   2 674.813 180.549   3
   8  10   2 584.590 148.930   2
   8 -10   3 1227.08 220.624   6
  -8 -10   3 1474.00 264.590   3
   8  10   3 1368.71 233.822   2
   8  10   4 4153.58 406.383   2
   8 -10   4 3487.50 404.024   3
  -8 -10   4 3924.53 443.142   3
   8 -10   4 3705.78 387.867   6
   8 -11  -3 217.505 106.880   6
   8 -11  -2 1304.69 238.028   6
   8 -11  -2 1260.60 244.515   5
  -8  11  -2 1328.35 235.630   8
   8 -11  -1 812.804 180.546   6
   8 -11  -1 457.598 141.676   5
   8  11  -1 270.074 122.947   2
  -8  11  -1 413.735 123.556   8
   8 -11   0 601.136 157.190   6
  -8  11   0 792.665 179.600   8
   8  11   0 598.554 159.753   2
   8 -11   1 666.092 171.897   6
   8  11   1 650.761 169.171   2
   8 -11   2 1437.05 242.707   6
   8  11   2 1577.60 259.207   2
   8 -11   3 430.331 139.357   6
  -8 -11   3 282.849 135.197   3
   8 -12   0-5.07940 80.3335   5
   9   0  -7-58.9447 74.2767   1
  -9   0  -7 118.695 84.6479   8
   9   0  -6 57.6679 73.6628   2
  -9   0  -6 159.563 102.338   8
   9   0  -5-113.024 84.7721   2
  -9   0  -5-29.2313 90.2112   8
   9   0  -4-57.1954 70.1293   6
   9   0  -4 58.0559 69.6758   2
  -9   0  -4 135.700 118.813   8
   9   0  -3-6.84405 64.3932   6
   9   0  -3 82.0938 69.6898   2
  -9   0  -3-47.3520 74.6165   8
  -9   0  -2 24.8359 52.5936   3
   9   0  -2 16.6044 61.0020   6
   9   0  -2-45.3793 68.0893   2
  -9   0  -2-29.2315 73.6798   8
   9   0  -1-0.92736 65.5378   6
  -9   0  -1 7.48725 43.5059   3
   9   0  -1-0.86738 54.9730   2
  -9   0  -1-76.3914 78.8618   8
   9   0   0 34.3134 67.2695   6
  -9   0   0 11.7028 53.6997   3
   9   0   0 42.6737 45.9073   2
  -9   0   0 111.550 79.6995   8
   9   0   1 4.80707 53.2414   6
  -9   0   1 61.7580 78.7180   3
  -9   0   1 92.3115 67.1275   8
   9   0   2 16.7498 72.7634   6
  -9   0   2-8.05862 62.7116   3
  -9   0   2 85.8244 72.8142   8
   9   0   3-35.6252 71.5810   6
  -9   0   3 6.36958 67.3432   3
  -9   0   3 117.911 90.2838   8
   9   0   4 51.8084 57.3415   6
  -9   0   4 106.449 99.9035   3
   9   0   5 228.691 96.7752   6
  -9   0   5 1.67902 76.5187   3
   9   0   6 1.88779 80.9453   6
  -9   0   6-78.5768 90.3940   3
   9   0   7 54.1335 76.4832   6
  -9   0   7-14.2915 80.4168   3
   9  -1  -7 4401.43 390.570   1
   9   1  -7 4749.64 419.838   1
  -9   1  -7 5409.65 483.736   8
  -9  -1  -7 4830.35 457.143   8
   9  -1  -6 442.945 134.620   1
   9   1  -6 251.236 99.1649   2
  -9   1  -6 327.630 110.349   8
  -9  -1  -6 518.018 164.108   8
   9   1  -5 645.372 156.325   2
  -9   1  -5 681.176 163.528   8
  -9  -1  -5 452.661 131.715   8
   9  -1  -4 305.267 113.689   6
   9   1  -4 189.242 84.3606   6
   9  -1  -4 106.323 57.9381   2
   9   1  -4 241.273 105.653   2
  -9   1  -4 189.383 94.0798   8
  -9  -1  -4 284.744 124.560   8
   9  -1  -3 976.548 185.016   6
   9   1  -3 612.405 142.716   6
   9  -1  -3 875.114 153.205   2
   9   1  -3 1026.83 176.416   2
  -9   1  -3 1062.29 202.136   8
  -9  -1  -3 894.266 183.223   8
   9  -1  -2 10717.9 568.017   6
   9   1  -2 10190.9 534.082   6
  -9   1  -2 10177.5 575.065   8
  -9  -1  -2 10998.9 615.089   8
  -9   1  -2 10938.7 506.114   3
   9  -1  -2 11003.2 498.339   2
   9   1  -2 10987.2 516.423   2
   9   1  -1 1935.74 235.221   6
   9  -1  -1 1708.37 228.721   6
   9   1  -1 1424.60 181.141   2
  -9   1  -1 1841.68 216.107   3
   9  -1  -1 1703.97 189.039   2
  -9  -1  -1 1993.21 215.522   3
  -9   1  -1 1517.81 231.261   8
  -9  -1  -1 1645.60 241.100   8
  -9   1   0 1977.97 230.075   3
   9  -1   0 2444.48 209.276   2
  -9  -1   0 2232.47 241.508   3
  -9   1   0 1796.79 239.180   8
  -9  -1   0 1880.11 252.040   8
   9   1   0 1931.38 200.552   2
   9  -1   0 2237.57 254.645   6
   9   1   0 2001.19 229.921   6
   9  -1   1 1507.75 209.554   6
   9   1   1 1501.00 207.845   6
  -9   1   1 1671.71 214.637   3
  -9  -1   1 1564.16 214.758   3
   9   1   1 1367.52 160.925   2
  -9   1   1 1736.25 236.531   8
  -9  -1   1 1755.63 244.238   8
  -9   1   2 11308.0 587.107   8
  -9  -1   2 9983.04 571.571   8
  -9   1   2 10739.7 571.628   3
  -9  -1   2 9922.31 548.139   3
   9   1   2 10345.7 534.925   6
   9  -1   2 10991.6 567.409   6
   9   1   3 925.796 164.068   6
   9  -1   3 729.578 153.119   6
  -9   1   3 1296.39 209.305   3
  -9  -1   3 934.037 186.303   3
  -9   1   3 612.146 136.168   8
   9   1   4 248.149 96.1453   6
   9  -1   4 322.012 119.929   6
  -9   1   4 218.376 120.558   3
  -9  -1   4 79.6200 66.5897   3
   9   1   5 653.400 157.045   6
   9  -1   5 793.037 175.549   6
  -9   1   5 602.973 174.117   3
  -9  -1   5 760.153 189.889   3
   9   1   6 398.789 137.238   6
   9  -1   6 275.424 140.463   6
  -9   1   6 405.921 127.998   3
  -9  -1   6 699.307 192.226   3
  -9   1   7 5498.84 521.841   3
  -9  -1   7 5604.99 529.518   3
   9   1   7 5228.11 466.875   6
   9  -1   7 5290.66 478.459   6
  -9  -2  -7 3401.69 390.312   8
  -9   2  -7 2724.24 349.295   8
   9  -2  -6 129.369 70.9791   5
   9   2  -6 101.499 70.7211   2
  -9   2  -6 87.8755 75.9067   8
  -9  -2  -6 150.646 90.8744   8
   9   2  -5 2493.82 292.076   2
  -9   2  -5 2022.43 279.432   8
  -9  -2  -5 2638.27 328.754   8
   9  -2  -4 2499.93 296.148   6
   9   2  -4 2234.61 266.107   6
  -9  -2  -4 2897.14 332.910   8
   9   2  -4 2484.62 282.378   2
  -9   2  -4 2332.73 291.332   8
   9  -2  -3 5062.39 408.246   6
   9   2  -3 4649.01 368.033   6
   9  -2  -3 5748.11 375.234   2
  -9   2  -3 5441.74 432.506   8
  -9  -2  -3 5385.94 444.358   8
   9   2  -3 5808.86 400.037   2
   9  -2  -2 4309.11 375.172   6
   9   2  -2 4207.00 336.120   6
  -9   2  -2 4699.04 389.156   8
   9  -2  -2 4432.54 311.700   2
  -9  -2  -2 3802.93 372.214   8
   9   2  -2 4400.76 330.704   2
   9  -2  -1 5865.84 418.814   6
   9   2  -1 6216.97 402.381   6
  -9   2  -1 5798.11 430.582   8
   9  -2  -1 6897.09 364.339   2
  -9  -2  -1 6101.53 466.254   8
  -9   2  -1 5949.68 395.691   3
  -9  -2  -1 6468.90 384.062   3
   9   2  -1 6596.23 392.620   2
   9  -2   0 3.90827 48.2415   6
  -9   2   0 26.3428 67.6936   3
   9   2   0-51.0174 81.8563   6
  -9  -2   0 73.1695 55.7394   3
   9   2   0 38.5442 43.6619   2
  -9   2   0-4.01086 65.6403   8
  -9  -2   0-48.2120 62.0908   8
  -9   2   1 5647.23 411.792   8
  -9  -2   1 5896.39 448.389   8
  -9   2   1 6488.59 435.623   3
  -9  -2   1 6366.08 424.417   3
   9   2   1 6152.36 353.946   2
   9  -2   1 6062.20 425.215   6
   9   2   1 6318.13 404.113   6
  -9   2   2 3820.86 336.237   8
  -9   2   2 4511.97 379.561   3
  -9  -2   2 4678.45 381.441   3
   9  -2   2 4773.40 383.506   6
   9   2   2 4387.64 344.446   6
  -9   2   3 5439.07 402.250   8
  -9   2   3 5041.31 410.119   3
  -9  -2   3 5838.00 444.919   3
   9   2   3 4620.51 361.673   6
   9  -2   3 5227.53 405.726   6
  -9   2   4 2130.59 281.884   3
  -9  -2   4 2170.66 285.958   3
   9   2   4 2591.25 281.595   6
   9  -2   4 2715.22 308.003   6
   9   2   5 2109.20 268.888   6
   9  -2   5 2378.53 299.214   6
  -9   2   5 2225.05 301.093   3
  -9  -2   5 1640.89 265.502   3
   9   2   6 223.265 104.331   6
   9  -2   6 263.364 130.378   6
  -9   2   6 753.998 201.308   3
  -9  -2   6 228.320 135.534   3
  -9   2   7 3427.87 409.607   3
   9   2   7 3472.67 376.042   6
  -9   3  -7 3073.91 370.148   8
   9  -3  -6 2246.88 280.480   5
   9   3  -6 2348.51 295.139   2
  -9   3  -6 2157.81 302.124   8
  -9  -3  -6 1914.95 298.011   8
   9  -3  -5 723.675 176.769   6
   9   3  -5 772.865 168.125   2
  -9   3  -5 746.117 180.771   8
  -9  -3  -5 734.880 185.979   8
   9  -3  -4 3225.83 343.769   6
  -9  -3  -4 3249.68 356.887   8
  -9   3  -4 2550.02 307.490   8
   9   3  -4 2810.78 299.707   2
   9  -3  -3 1234.44 213.555   6
   9   3  -3 1365.32 197.480   6
   9   3  -3 1852.16 233.737   2
  -9   3  -3 1521.42 230.925   8
  -9  -3  -3 1786.50 264.146   8
   9  -3  -2 3252.62 327.739   6
   9   3  -2 2870.38 274.290   6
  -9   3  -2 3245.49 325.384   8
  -9  -3  -2 3141.13 343.950   8
   9   3  -2 2874.84 275.993   2
   9  -3  -1 8881.27 528.184   6
   9   3  -1 9076.52 477.431   6
  -9   3  -1 8320.26 511.524   8
  -9  -3  -1 8214.13 549.752   8
   9   3  -1 8680.56 462.644   2
  -9   3   0 10383.2 556.070   8
  -9  -3   0 10640.5 614.629   8
  -9  -3   0 11011.9 531.535   3
   9   3   0 10879.4 499.855   2
   9  -3   0 11360.1 587.970   6
   9   3   0 10453.8 507.657   6
  -9   3   1 9124.23 519.370   8
  -9   3   1 8812.50 517.323   3
  -9  -3   1 8890.71 502.518   3
   9   3   1 9200.81 452.129   2
   9  -3   1 9202.09 532.540   6
   9   3   1 9039.05 473.557   6
  -9   3   2 2827.02 288.453   8
  -9   3   2 2974.89 311.493   3
  -9  -3   2 3154.03 320.192   3
   9   3   2 3027.37 256.350   2
   9  -3   2 2562.38 289.550   6
   9   3   2 3722.44 312.775   6
   9  -3   3 1597.44 235.317   6
  -9   3   3 1736.21 242.964   3
  -9  -3   3 1184.59 207.570   3
  -9   3   3 1788.23 230.195   8
   9   3   3 1912.79 232.985   6
  -9   3   4 2620.02 320.805   3
  -9  -3   4 3161.81 354.307   3
   9   3   4 3014.00 298.316   6
   9  -3   4 3077.35 332.317   6
   9   3   5 564.356 145.617   6
   9  -3   5 626.308 156.797   6
  -9   3   5 388.463 130.680   3
  -9  -3   5 475.435 155.710   3
   9   3   6 2263.88 290.014   6
   9  -3   6 2069.56 292.315   6
  -9   3   6 2376.55 331.686   3
  -9  -3   6 2328.72 342.953   3
   9   3   7 2583.46 320.453   6
   9  -4  -7-46.9669 68.4192   5
   9  -4  -6 778.461 176.259   5
   9   4  -6 430.718 132.213   2
  -9   4  -6 709.589 177.959   8
  -9  -4  -6 756.767 189.600   8
   9  -4  -5 499.158 156.271   6
   9   4  -5 888.827 183.583   2
  -9   4  -5 540.567 156.890   8
  -9  -4  -5 742.395 180.561   8
   9  -4  -4 5703.43 460.838   6
  -9   4  -4 4895.72 428.256   8
  -9  -4  -4 5293.80 468.805   8
   9   4  -4 5904.17 435.835   2
   9  -4  -3 993.135 195.302   6
   9   4  -3 953.827 174.794   2
  -9   4  -3 1012.86 191.112   8
  -9  -4  -3 1397.64 240.075   8
   9  -4  -2 1300.94 213.982   6
   9   4  -2 1647.20 219.493   2
  -9   4  -2 922.960 180.859   8
  -9  -4  -2 1475.43 246.042   8
   9   4  -1 1849.84 210.953   6
   9  -4  -1 1728.74 241.629   6
  -9   4  -1 1554.75 226.478   8
  -9  -4  -1 1986.65 280.471   8
   9   4  -1 2069.33 236.342   2
   9  -4   0 1715.01 238.307   6
   9   4   0 1231.57 171.707   6
  -9  -4   0 1486.02 200.459   3
   9   4   0 1253.63 181.523   2
  -9   4   0 1458.02 214.789   8
   9  -4   1 2077.75 263.445   6
  -9  -4   1 1854.53 235.187   3
  -9   4   1 2172.68 251.499   8
   9   4   1 1977.96 221.924   2
   9   4   1 1849.15 211.132   6
   9  -4   2 1423.95 218.424   6
   9   4   2 1472.47 194.751   6
  -9   4   2 1530.34 231.888   3
  -9  -4   2 1495.31 226.873   3
   9   4   2 1228.32 172.867   2
  -9   4   2 1504.20 212.079   8
   9   4   3 1183.80 177.676   6
   9  -4   3 1004.85 186.796   6
  -9   4   3 1286.26 230.334   3
  -9  -4   3 1143.12 215.513   3
  -9   4   4 4965.34 436.441   3
  -9  -4   4 6271.46 503.108   3
   9   4   4 5728.34 404.312   6
   9  -4   4 6166.37 473.437   6
   9   4   5 941.269 181.621   6
   9  -4   5 722.025 175.377   6
  -9   4   5 640.309 168.741   3
  -9  -4   5 593.220 175.171   3
   9   4   6 609.115 149.367   6
   9  -4   6 670.711 186.408   6
  -9   4   6 831.932 188.073   3
  -9  -4   6 763.521 200.461   3
   9  -5  -6 198.376 118.152   5
   9   5  -6 46.4451 87.2443   2
  -9   5  -6-121.469 93.2895   8
  -9  -5  -6 113.320 89.0064   8
   9  -5  -5 390.722 132.204   6
   9  -5  -5 254.557 106.523   5
   9   5  -5 414.373 162.579   2
  -9   5  -5 272.344 114.375   8
  -9  -5  -5 16.9973 96.1948   8
   9  -5  -4 4011.94 394.595   6
  -9   5  -4 4222.96 403.692   8
  -9  -5  -4 3884.38 405.809   8
   9   5  -4 3744.78 354.895   2
   9  -5  -3 4682.43 414.117   6
  -9   5  -3 5127.79 430.132   8
  -9  -5  -3 4516.15 429.563   8
   9   5  -3 4463.41 375.831   2
   9  -5  -2 34.2035 49.0919   6
   9   5  -2 343.859 122.065   2
  -9   5  -2 174.050 110.731   8
   9  -5  -1 731.740 161.664   6
   9   5  -1 1221.12 188.667   2
  -9   5  -1 1113.37 198.079   8
   9  -5   0 360.203 111.658   6
  -9  -5   0 390.463 109.921   3
   9   5   0 418.058 116.310   2
  -9   5   0 509.963 126.637   8
   9  -5   1 978.779 183.606   6
  -9  -5   1 914.820 174.715   3
   9   5   1 1176.48 178.656   2
  -9   5   1 769.789 162.343   8
   9  -5   2 58.6667 70.5711   6
  -9   5   2-23.0903 57.0609   3
  -9  -5   2 52.9648 56.9603   3
   9   5   2 5.60786 61.6387   2
  -9   5   2-33.0916 55.2364   8
   9   5   3 4157.87 327.166   2
  -9   5   3 5028.37 432.503   3
  -9  -5   3 4646.84 416.244   3
   9  -5   3 5006.58 426.414   6
  -9   5   4 3688.92 384.354   3
  -9  -5   4 4008.77 413.313   3
   9  -5   4 3687.84 376.441   6
   9  -5   5 211.353 107.655   6
  -9   5   5 322.014 134.878   3
  -9  -5   5 339.589 147.122   3
   9  -5   6-14.6111 73.6220   6
  -9   5   6 23.9953 89.1096   3
  -9  -5   6 60.7273 87.8692   3
   9  -6  -6 4203.06 421.496   5
   9  -6  -5 2744.73 347.272   6
   9  -6  -5 2805.90 341.861   5
  -9   6  -5 2847.08 347.422   8
   9   6  -5 3044.63 340.770   2
   9  -6  -4 1039.40 201.903   6
   9   6  -4 1229.05 214.398   2
  -9   6  -4 1025.36 202.621   8
   9  -6  -3 834.365 184.430   6
   9   6  -3 1088.28 195.808   2
  -9   6  -3 875.875 185.008   8
   9  -6  -2 62.5846 57.0434   6
   9   6  -2 281.436 112.783   2
  -9   6  -2 204.882 108.068   8
   9  -6  -1 882.002 189.653   6
   9   6  -1 819.886 161.211   2
  -9   6  -1 780.377 164.628   8
   9  -6   0-10.6589 65.8598   6
   9   6   0-93.1731 78.7748   2
  -9   6   0 76.5540 78.8093   8
   9  -6   1 902.803 181.230   6
  -9  -6   1 706.088 162.956   3
   9   6   1 598.336 137.897   2
  -9   6   1 772.078 155.698   8
   9  -6   2 152.322 99.0677   6
  -9  -6   2 265.160 117.366   3
   9   6   2 152.545 77.4940   2
  -9   6   2 44.9596 56.5512   8
   9  -6   3 976.828 196.473   6
  -9   6   3 1001.95 199.748   3
  -9  -6   3 1064.18 215.325   3
   9   6   3 1354.20 202.957   2
   9  -6   4 850.346 192.251   6
  -9   6   4 992.373 213.502   3
  -9  -6   4 1394.93 256.542   3
   9  -6   5 2293.15 316.079   6
  -9   6   5 2507.13 332.237   3
  -9  -6   5 2863.74 366.865   3
   9  -7  -5 3007.27 358.269   5
  -9   7  -5 3410.82 385.505   8
   9   7  -5 3105.67 349.755   2
   9  -7  -4 265.131 134.892   6
   9   7  -4 450.467 139.675   2
  -9   7  -4 422.084 148.766   8
   9  -7  -3 1906.91 272.444   6
   9   7  -3 1863.86 262.313   2
  -9   7  -3 1850.57 274.386   8
   9  -7  -2 694.632 174.219   6
   9   7  -2 595.294 149.382   2
  -9   7  -2 918.665 188.325   8
   9  -7  -1 1077.23 207.719   6
   9   7  -1 1415.45 217.109   2
  -9   7  -1 1433.69 224.468   8
   9  -7   0 127.945 89.7342   6
  -9   7   0-22.5270 61.2479   8
   9  -7   1 1370.41 233.194   6
  -9  -7   1 1214.98 204.170   3
   9   7   1 1242.35 202.537   2
  -9   7   1 1613.17 227.948   8
   9  -7   2 714.302 174.353   6
  -9  -7   2 815.068 184.566   3
   9   7   2 655.033 146.813   2
   9  -7   3 1881.93 276.557   6
  -9   7   3 2005.80 289.005   3
  -9  -7   3 2147.51 303.632   3
   9   7   3 2026.98 253.327   2
   9  -7   4 335.908 109.267   6
  -9   7   4 425.920 161.825   3
  -9  -7   4 307.151 134.518   3
   9   7   4 227.535 89.7354   2
  -9   7   5 2800.66 362.664   3
  -9  -7   5 2991.88 386.087   3
   9  -7   5 3369.82 380.700   6
   9  -8  -4 5941.71 509.987   6
   9  -8  -4 5976.54 506.319   5
  -9   8  -4 6007.94 504.080   8
   9   8  -4 5098.92 445.416   2
   9  -8  -3 6403.03 519.344   6
  -9   8  -3 7119.25 536.751   8
   9   8  -3 6861.03 506.393   2
   9  -8  -2 1244.69 226.759   6
   9   8  -2 1565.52 243.926   2
  -9   8  -2 1454.62 244.605   8
   9  -8  -1 4182.68 403.755   6
  -9   8  -1 3657.24 366.539   8
   9   8  -1 3804.28 363.898   2
   9  -8   0 890.599 188.636   6
   9   8   0 421.763 119.842   2
  -9   8   0 682.309 158.591   8
  -9   8   1 4483.97 383.123   8
   9   8   1 4166.35 376.874   2
   9  -8   1 4380.66 408.362   6
   9  -8   2 1506.24 246.042   6
  -9  -8   2 1484.08 241.595   3
   9   8   2 1583.98 232.159   2
   9   8   3 7662.40 517.093   2
  -9  -8   3 6821.64 546.770   3
   9  -8   3 7371.36 544.069   6
   9   8   4 5290.63 431.378   2
  -9   8   4 6114.94 525.085   3
  -9  -8   4 5575.98 514.593   3
   9  -8   4 5264.01 468.463   6
   9  -9  -3 1598.60 279.508   6
   9  -9  -3 1424.92 253.078   5
   9   9  -3 1253.87 230.322   2
  -9   9  -3 1603.29 259.127   8
   9  -9  -2 1745.26 267.374   6
   9   9  -2 1815.63 270.415   2
  -9   9  -2 2268.78 304.740   8
   9  -9  -1 507.611 152.852   6
   9   9  -1 457.377 133.121   2
  -9   9  -1 525.708 170.818   8
   9  -9   0 383.251 132.067   6
   9   9   0 401.437 124.121   2
  -9   9   0 194.091 108.092   8
   9  -9   1 233.031 94.8231   6
   9   9   1 352.238 103.435   2
   9  -9   2 1727.68 266.935   6
  -9  -9   2 1771.68 269.429   3
   9   9   2 1735.50 255.874   2
   9  -9   3 1616.54 269.289   6
  -9  -9   3 1708.69 290.615   3
   9   9   3 1127.26 212.523   2
   9  -9   4 1713.86 281.499   6
  -9  -9   4 1997.46 319.038   3
   9   9   4 2079.55 284.228   2
   9 -10  -2 2124.13 308.116   6
  -9  10  -2 2056.67 297.071   8
   9 -10  -1 1769.55 279.080   6
   9  10  -1 1588.42 251.602   2
  -9  10  -1 1526.30 253.183   8
   9 -10   0 2788.44 348.979   6
   9  10   0 2454.52 321.763   2
  -9  10   0 2349.94 301.378   8
   9 -10   1 1491.43 258.823   6
   9  10   1 1686.90 259.518   2
   9 -10   2 2055.95 293.135   6
   9  10   2 1780.91 271.525   2
   9 -10   3 1637.33 273.659   6
  -9 -10   3 1981.21 316.219   3
   9 -11  -1 195.114 103.955   6
   9 -11   0 160.167 114.346   6
   9 -11   1 326.397 145.431   6
 -10   0  -6 6826.20 563.332   8
  10   0  -5 2454.90 295.340   2
 -10   0  -5 2967.56 364.947   8
  10   0  -4 525.044 148.667   6
  10   0  -4 416.587 123.606   2
 -10   0  -4 981.516 205.025   8
  10   0  -3 1155.69 204.177   6
  10   0  -3 1640.90 226.231   2
 -10   0  -3 1790.34 268.284   8
  10   0  -2 5117.86 415.414   6
 -10   0  -2 4820.70 431.577   8
  10   0  -2 5615.01 389.158   2
  10   0  -1 8620.49 528.329   6
 -10   0  -1 8640.77 571.732   8
 -10   0  -1 8382.79 481.096   3
  10   0  -1 8901.22 461.279   2
 -10   0   0 25574.0 972.313   8
 -10   0   0 26588.5 886.789   3
  10   0   0 27400.2 939.314   6
 -10   0   1 8239.77 552.458   8
 -10   0   1 8963.26 537.679   3
  10   0   1 9625.07 554.983   6
 -10   0   2 5111.14 433.025   8
 -10   0   2 5231.53 425.096   3
  10   0   2 4035.87 366.294   6
  10   0   3 1346.63 219.539   6
 -10   0   3 1360.84 230.159   3
  10   0   4 817.642 182.435   6
 -10   0   4 247.489 110.738   3
  10   0   5 2494.67 316.463   6
 -10   0   5 2752.79 358.716   3
  10   0   6 6774.08 534.584   6
  10   1  -6 599.980 170.964   2
 -10   1  -6 280.988 121.377   8
 -10  -1  -6 174.434 75.2020   8
  10   1  -5 175.946 93.0051   2
 -10   1  -5 308.745 116.651   8
 -10  -1  -5 212.322 106.088   8
  10  -1  -4 206.599 100.514   6
  10   1  -4 70.0264 63.8263   6
  10  -1  -4 339.966 112.062   2
  10   1  -4 151.490 99.4059   2
 -10   1  -4 32.1624 57.1686   8
 -10  -1  -4 183.411 109.498   8
  10  -1  -3 312.824 115.225   6
  10   1  -3 491.811 138.483   6
  10  -1  -3 490.996 114.090   2
  10   1  -3 545.544 131.480   2
 -10   1  -3 819.098 193.241   8
 -10  -1  -3 458.159 138.154   8
  10  -1  -2 6909.83 487.955   6
  10   1  -2 6692.07 466.531   6
 -10   1  -2 6115.93 483.801   8
 -10  -1  -2 6190.31 495.499   8
  10  -1  -2 6613.90 409.233   2
  10   1  -2 6928.94 434.286   2
  10  -1  -1 3543.01 348.904   6
  10   1  -1 3941.02 354.621   6
 -10   1  -1 4388.39 402.930   8
 -10  -1  -1 3950.83 400.014   8
  10  -1  -1 3766.49 293.503   2
 -10   1  -1 3652.83 322.221   3
 -10  -1  -1 4319.63 339.997   3
  10   1  -1 4153.31 322.615   2
  10  -1   0 304.642 109.837   6
  10   1   0 242.626 99.9517   6
 -10   1   0 180.563 78.4266   3
 -10  -1   0 289.423 98.7251   3
  10   1   0 311.545 93.3511   2
 -10   1   0 328.203 112.944   8
 -10  -1   0 251.871 115.844   8
 -10   1   1 3746.04 366.472   8
 -10  -1   1 3888.80 385.930   8
 -10   1   1 4410.83 381.455   3
 -10  -1   1 3979.60 358.707   3
  10  -1   1 3733.73 358.909   6
  10   1   1 4038.93 354.422   6
 -10   1   2 6749.57 491.639   8
 -10  -1   2 5792.15 468.302   8
 -10   1   2 6601.21 482.187   3
 -10  -1   2 5938.74 455.350   3
  10  -1   2 6683.30 479.697   6
  10   1   2 7271.93 482.303   6
  10   1   3 728.337 156.942   6
  10  -1   3 395.410 117.729   6
 -10   1   3 672.358 162.589   3
 -10  -1   3 452.188 133.368   3
 -10   1   3 736.806 171.437   8
  10   1   4 188.360 96.3174   6
  10  -1   4 146.602 82.9736   6
 -10   1   4 117.360 77.3608   3
 -10  -1   4 239.948 123.837   3
  10   1   5 475.399 150.287   6
  10  -1   5 673.513 171.031   6
 -10  -1   5 633.831 187.606   3
  10   1   6 673.705 171.915   6
  10  -1   6 325.742 130.652   6
 -10   2  -6 568.231 170.014   8
 -10  -2  -6 1221.00 250.210   8
  10  -2  -5 186.070 101.851   6
  10   2  -5 287.192 119.321   2
 -10   2  -5 250.857 112.761   8
 -10  -2  -5 34.0939 65.7092   8
  10  -2  -4 1025.13 200.579   6
  10   2  -4 768.944 169.484   6
  10   2  -4 1066.38 195.983   2
 -10   2  -4 907.168 199.050   8
 -10  -2  -4 1168.25 225.567   8
  10  -2  -3 100.097 86.0586   6
  10   2  -3 308.663 116.637   6
  10   2  -3 234.950 102.001   2
 -10   2  -3 226.499 95.1587   8
 -10  -2  -3 65.7383 76.7275   8
 -10   2  -2 1228.51 191.395   3
  10  -2  -2 1287.49 212.944   6
  10   2  -2 1517.11 221.778   6
  10  -2  -2 1135.29 169.378   2
  10   2  -2 1267.47 193.319   2
 -10   2  -2 763.571 170.897   8
 -10  -2  -2 1205.07 234.237   8
 -10   2  -1 1566.82 220.333   3
  10  -2  -1 1596.77 239.062   6
  10   2  -1 1856.19 241.933   6
  10   2  -1 1980.18 229.979   2
 -10   2  -1 1603.25 250.311   8
 -10  -2  -1 1420.63 244.821   8
  10  -2   0 1167.78 210.795   6
  10   2   0 1356.17 202.714   6
 -10   2   0 1102.06 192.814   3
 -10  -2   0 1260.70 199.127   3
  10   2   0 1051.16 163.191   2
 -10   2   0 1001.83 194.303   8
 -10  -2   0 1146.68 209.022   8
  10  -2   1 1525.87 234.531   6
  10   2   1 1403.05 204.443   6
 -10   2   1 1603.76 233.619   3
 -10  -2   1 1684.87 236.216   3
 -10   2   1 1582.82 239.337   8
 -10  -2   1 1616.71 254.775   8
  10  -2   2 1053.47 196.007   6
  10   2   2 837.120 172.356   6
 -10   2   2 1147.92 200.480   3
 -10  -2   2 1333.06 222.619   3
 -10   2   2 969.414 193.899   8
  10   2   3 64.9772 47.3358   6
  10  -2   3 349.556 135.727   6
 -10   2   3 381.613 132.651   3
 -10  -2   3 303.240 133.817   3
 -10   2   3 181.959 80.3584   8
  10   2   4 835.531 176.999   6
  10  -2   4 1188.74 221.853   6
 -10   2   4 1191.86 222.607   3
 -10  -2   4 1060.33 218.449   3
  10   2   5 6.75241 77.9593   6
  10  -2   5 135.142 76.5323   6
 -10   2   5 129.561 99.1931   3
 -10  -2   5 125.321 108.200   3
  10   2   6 817.829 180.468   6
  10  -3  -6 336.428 132.567   5
 -10  -3  -6 503.639 171.859   8
  10  -3  -5 832.553 194.147   6
  10   3  -5 801.523 173.781   2
 -10   3  -5 857.153 201.597   8
 -10  -3  -5 743.307 195.381   8
  10  -3  -4 2881.82 347.512   6
 -10   3  -4 2418.00 325.347   8
  10   3  -4 2758.41 312.652   2
 -10  -3  -4 2350.15 331.974   8
  10  -3  -3 775.508 174.378   6
  10   3  -3 674.966 153.212   6
  10   3  -3 875.622 176.168   2
 -10   3  -3 964.147 211.205   8
 -10  -3  -3 688.072 180.108   8
  10  -3  -2 2515.81 308.160   6
  10   3  -2 1898.61 240.108   6
 -10   3  -2 2192.35 291.324   8
 -10  -3  -2 2369.38 318.069   8
  10   3  -2 2557.58 274.998   2
 -10   3  -1 993.591 183.036   3
  10  -3  -1 1096.57 208.306   6
  10   3  -1 850.349 159.169   6
  10   3  -1 923.248 163.854   2
 -10   3  -1 995.163 198.302   8
 -10  -3  -1 877.080 200.135   8
  10   3   0 2227.43 253.724   6
 -10   3   0 1894.11 253.602   3
  10  -3   0 2038.85 273.675   6
 -10  -3   0 1644.66 222.745   3
  10   3   0 1818.05 220.926   2
 -10   3   0 2206.68 282.613   8
 -10  -3   0 2528.38 328.475   8
  10  -3   1 843.604 172.038   6
  10   3   1 812.075 159.668   6
 -10   3   1 916.066 190.451   3
 -10  -3   1 977.075 186.612   3
  10   3   1 827.278 145.982   2
 -10   3   1 765.576 175.243   8
  10  -3   2 2160.47 281.807   6
  10   3   2 1885.88 242.326   6
 -10   3   2 2318.29 296.408   3
 -10  -3   2 2472.06 299.479   3
 -10   3   2 1552.74 231.946   8
  10   3   3 613.493 143.585   6
  10  -3   3 1353.32 233.207   6
 -10   3   3 1170.38 219.912   3
 -10  -3   3 823.301 193.074   3
 -10   3   4 2844.56 356.089   3
 -10  -3   4 2740.96 343.303   3
  10   3   4 2734.57 300.868   6
  10  -3   4 2962.72 343.678   6
  10   3   5 655.124 155.929   6
  10  -3   5 702.709 174.517   6
 -10   3   5 880.387 226.251   3
 -10  -3   5 654.923 189.423   3
  10   3   6 138.693 81.3425   6
  10  -4  -6 1675.33 273.336   5
 -10  -4  -6 1873.49 305.366   8
  10  -4  -5 1119.33 234.135   6
  10   4  -5 1368.55 237.738   2
 -10   4  -5 1257.02 247.968   8
 -10  -4  -5 868.409 197.305   8
  10  -4  -4 664.707 169.433   6
  10   4  -4 1160.98 206.668   2
 -10   4  -4 902.600 201.083   8
 -10  -4  -4 1249.82 248.893   8
  10  -4  -3 2849.15 342.952   6
 -10   4  -3 3587.33 382.268   8
 -10  -4  -3 3124.68 380.026   8
  10   4  -3 3309.47 335.168   2
  10  -4  -2 3377.76 364.154   6
 -10   4  -2 2468.25 313.958   8
 -10  -4  -2 2598.41 339.252   8
  10   4  -2 2653.57 286.774   2
  10  -4  -1 726.314 174.122   6
  10   4  -1 921.113 170.000   2
 -10   4  -1 953.974 198.164   8
 -10  -4  -1 552.115 165.577   8
 -10   4   0 7500.83 519.217   8
 -10   4   0 7385.87 504.872   3
  10   4   0 7139.75 447.396   2
  10  -4   0 7379.93 524.800   6
  10  -4   1 649.014 160.504   6
 -10   4   1 903.174 176.510   3
 -10  -4   1 536.937 141.491   3
  10   4   1 900.543 159.487   2
 -10   4   1 476.076 140.603   8
 -10   4   2 2395.07 303.325   3
 -10  -4   2 2556.60 312.350   3
 -10   4   2 2692.85 306.427   8
  10  -4   2 2983.99 336.576   6
 -10   4   3 2895.19 341.964   3
 -10  -4   3 3601.71 385.827   3
  10  -4   3 2868.75 341.529   6
  10  -4   4 1086.39 215.326   6
 -10   4   4 959.999 210.159   3
 -10  -4   4 1267.91 246.433   3
  10  -4   5 851.910 194.707   6
 -10   4   5 690.919 178.951   3
 -10  -4   5 1088.44 231.562   3
 -10  -5  -5 2928.60 371.054   8
  10  -5  -4 396.339 147.396   6
  10   5  -4 404.478 136.763   2
 -10   5  -4 314.342 122.820   8
  10  -5  -3 9211.13 616.149   6
 -10   5  -3 7815.25 569.164   8
  10   5  -3 9431.28 574.738   2
  10  -5  -2 2011.24 289.965   6
  10   5  -2 1713.95 234.724   2
 -10   5  -2 2238.51 299.895   8
  10  -5  -1 158.593 67.2742   6
  10   5  -1 244.162 92.7572   2
 -10   5  -1 516.215 144.877   8
  10  -5   0 709.912 172.882   6
  10   5   0 771.167 155.274   2
 -10   5   0 1055.05 201.118   8
 -10   5   1 235.708 118.915   3
  10  -5   1 356.403 124.218   6
 -10  -5   1 177.339 63.9776   3
  10   5   1 257.568 97.0806   2
 -10   5   1 231.618 108.783   8
  10  -5   2 2226.95 293.268   6
 -10   5   2 1786.82 271.263   3
 -10  -5   2 1792.73 272.133   3
  10   5   2 1776.17 229.326   2
 -10   5   2 1689.24 241.387   8
 -10   5   3 9458.09 630.716   3
 -10  -5   3 8530.18 598.179   3
  10  -5   3 8784.00 595.476   6
  10  -5   4 309.991 131.047   6
 -10   5   4 294.558 134.405   3
 -10  -5   4 670.491 198.117   3
 -10  -5   5 2274.98 344.944   3
  10  -6  -4 3378.93 391.056   6
 -10   6  -4 3396.87 391.273   8
  10   6  -4 3273.55 355.018   2
  10  -6  -3 2166.07 317.317   6
  10   6  -3 2044.66 280.994   2
 -10   6  -3 1636.63 271.556   8
  10  -6  -2 1428.77 251.516   6
  10   6  -2 1707.01 246.899   2
 -10   6  -2 1279.67 231.199   8
  10  -6  -1 56.0573 69.5166   6
 -10   6  -1 143.622 82.5399   8
  10  -6   0 2478.99 322.206   6
  10   6   0 2041.81 256.033   2
 -10   6   0 1997.24 272.376   8
  10  -6   1 175.366 84.1829   6
  10   6   1 243.044 103.187   2
 -10   6   1 295.986 116.886   8
  10  -6   2 1585.95 259.563   6
 -10   6   2 1624.20 258.909   3
 -10  -6   2 1380.65 240.112   3
  10   6   2 1501.30 215.613   2
  10  -6   3 2089.62 299.180   6
 -10   6   3 2059.79 302.999   3
 -10  -6   3 1755.19 279.379   3
 -10  -6   4 2582.19 353.115   3
 -10   6   4 4101.90 436.690   3
  10  -6   4 3834.62 412.157   6
  10  -7  -3 144.268 82.9904   6
  10   7  -3 208.337 116.053   2
 -10   7  -3 191.848 123.231   8
  10  -7  -2 2280.11 317.992   6
  10   7  -2 2325.59 293.709   2
 -10   7  -2 2452.38 327.274   8
  10  -7  -1 556.770 160.001   6
  10   7  -1 465.579 135.062   2
 -10   7  -1 381.408 140.250   8
  10  -7   0 226.042 111.364   6
  10   7   0 132.954 81.0250   2
 -10   7   0-59.6219 91.4411   8
  10  -7   1 456.409 154.541   6
  10   7   1 538.819 148.054   2
 -10   7   1 450.414 145.418   8
  10  -7   2 2484.74 333.173   6
 -10  -7   2 1866.30 274.735   3
  10   7   2 2183.97 273.798   2
  10  -7   3 166.516 93.1842   6
 -10   7   3 166.698 87.3305   3
 -10  -7   3 144.629 91.9614   3
  10   7   3 19.8809 49.5547   2
 -10  -7   4 724.219 200.236   3
  10  -8  -2 292.425 136.289   6
  10   8  -2 198.094 112.387   2
 -10   8  -2 134.663 101.671   8
  10  -8  -1-131.513 96.4697   6
  10   8  -1-89.9945 80.8692   2
 -10   8  -1 34.5129 65.9721   8
  10  -8   0 302.508 117.638   6
  10   8   0 418.073 120.077   2
 -10   8   0 224.436 96.3013   8
  10  -8   1-59.7500 128.539   6
  10   8   1 12.2144 53.7716   2
  10  -8   2 224.389 112.348   6
  10   8   2 317.348 115.453   2
  10   8   3 3413.18 352.186   2
 -10  -8   3 2739.54 367.718   3
 -10   9  -1 963.784 212.938   8
  10  -9   0 98.4666 118.780   6
 -10   9   0 257.224 114.889   8
  11   0  -4-73.2304 96.6392   6
  11   0  -4-12.5050 65.7771   2
 -11   0  -4-58.2395 106.656   8
  11   0  -3-43.8648 81.0204   6
  11   0  -3 24.1983 59.5032   2
 -11   0  -3-6.91385 54.6559   8
  11   0  -2-21.2542 81.2341   6
  11   0  -2 48.0155 71.5043   2
 -11   0  -2 131.005 122.419   8
  11   0  -1-8.70370 74.3013   6
 -11   0  -1-56.2868 77.2793   8
  11   0   0 36.1099 48.9422   6
 -11   0   0-22.2661 47.3854   3
 -11   0   0-30.9899 75.5740   8
  11   0   1 38.8493 82.2309   6
 -11   0   1 159.268 87.3997   3
 -11   0   1 34.3110 65.7606   8
  11   0   2 106.797 97.7050   6
 -11   0   2-43.0978 75.5242   3
 -11   0   2 62.0037 99.3394   8
  11   0   3-77.6495 72.3097   6
 -11   0   3-60.5935 77.8928   3
  11   0   4 28.8363 82.1510   6
 -11   0   4-174.652 109.289   3
  11  -1  -4 1687.27 277.380   6
  11   1  -4 1688.73 271.952   6
  11  -1  -4 1679.05 242.322   2
  11   1  -4 1408.27 231.914   2
 -11   1  -4 1341.68 255.653   8
 -11  -1  -4 1483.88 281.719   8
  11  -1  -3 428.608 144.917   6
  11   1  -3 354.449 123.339   6
  11  -1  -3 387.475 114.916   2
  11   1  -3 434.889 130.102   2
 -11   1  -3 177.860 88.2540   8
 -11  -1  -3 456.083 156.325   8
  11  -1  -2 13899.9 739.502   6
  11   1  -2 14028.7 721.364   6
 -11   1  -2 14204.6 794.601   8
 -11  -1  -2 13650.2 792.948   8
  11   1  -2 14329.2 660.424   2
  11  -1  -1 3948.27 396.786   6
  11   1  -1 3222.15 346.749   6
 -11   1  -1 3015.75 362.048   8
 -11  -1  -1 3773.44 417.085   8
 -11   1  -1 3250.23 326.801   3
  11   1  -1 3494.25 313.615   2
  11  -1   0 334.159 137.227   6
  11   1   0 140.722 73.3748   6
 -11   1   0 244.736 97.9729   3
 -11  -1   0 308.347 108.565   3
 -11   1   0 114.323 100.281   8
 -11  -1   0 134.447 100.035   8
 -11   1   1 3306.90 375.423   8
 -11   1   1 3343.02 356.928   3
 -11  -1   1 3908.07 379.241   3
 -11  -1   1 2817.14 356.048   8
  11  -1   1 3168.60 348.214   6
  11   1   1 3403.66 351.062   6
 -11   1   2 14052.0 760.913   8
 -11   1   2 13718.0 737.157   3
 -11  -1   2 13422.9 727.279   3
  11  -1   2 13320.0 718.388   6
  11   1   2 14790.6 736.698   6
  11  -1   3 359.525 128.799   6
  11   1   3 598.009 169.784   6
 -11   1   3 902.749 205.205   3
 -11  -1   3 955.100 214.968   3
 -11   1   3 337.724 127.635   8
  11   1   4 1741.68 264.883   6
  11  -1   4 1324.57 241.561   6
 -11   1   4 1725.85 291.374   3
 -11  -1   4 1267.08 252.162   3
  11   1   5 426.036 155.625   6
  11  -2  -4 808.198 200.731   6
  11   2  -4 657.138 153.926   6
  11   2  -4 846.235 196.061   2
 -11   2  -4 743.744 197.081   8
 -11  -2  -4 1294.69 267.373   8
  11  -2  -3 318.111 118.657   6
  11   2  -3 385.882 143.470   6
  11   2  -3 385.266 114.126   2
 -11   2  -3 489.459 162.080   8
 -11  -2  -3 259.757 128.015   8
  11  -2  -2 388.710 125.880   6
  11   2  -2 622.040 162.868   6
  11   2  -2 802.412 169.533   2
 -11   2  -2 538.762 162.364   8
 -11  -2  -2 1075.25 223.252   8
  11  -2  -1 1506.73 249.604   6
 -11   2  -1 1797.26 250.203   3
  11   2  -1 1605.74 248.036   6
  11   2  -1 1490.76 207.502   2
 -11   2  -1 1378.02 248.271   8
 -11  -2  -1 1639.07 275.183   8
  11  -2   0 460.846 142.707   6
  11   2   0 487.770 142.171   6
 -11   2   0 686.484 168.016   3
 -11   2   0 311.874 119.754   8
 -11  -2   0 674.651 188.719   8
  11  -2   1 1970.93 281.796   6
  11   2   1 1744.35 250.602   6
 -11   2   1 1559.84 245.142   3
 -11  -2   1 1832.20 265.647   3
 -11   2   1 1759.22 271.300   8
 -11  -2   1 1812.13 292.943   8
  11  -2   2 883.727 197.560   6
  11   2   2 733.978 173.152   6
 -11   2   2 678.512 176.590   3
 -11  -2   2 613.242 167.154   3
 -11   2   2 505.834 147.972   8
  11  -2   3 732.092 185.989   6
  11   2   3 200.622 101.336   6
 -11   2   3 280.446 97.5595   3
 -11  -2   3 353.167 123.948   3
  11   2   4 926.037 197.194   6
  11  -2   4 794.657 187.478   6
 -11   2   4 686.809 181.942   3
 -11  -2   4 641.499 186.946   3
  11   2   5-31.3937 54.9340   6
  11  -3  -4 637.664 175.600   6
  11   3  -4 381.806 124.969   2
 -11  -3  -4 519.427 159.411   8
  11  -3  -3 124.651 84.5406   6
  11   3  -3-62.2805 71.7633   2
 -11   3  -3-79.3172 101.458   8
 -11  -3  -3 89.3006 113.721   8
  11  -3  -2 608.087 177.633   6
  11   3  -2 527.788 146.682   2
 -11   3  -2 593.633 180.195   8
 -11  -3  -2 569.717 180.872   8
 -11   3  -1 355.023 120.436   3
  11  -3  -1 1033.49 225.630   6
  11   3  -1 690.924 143.691   2
 -11   3  -1 869.803 203.549   8
 -11  -3  -1 660.566 167.916   8
  11  -3   0 408.570 142.265   6
 -11   3   0 395.679 133.466   3
  11   3   0 316.520 101.184   2
 -11   3   0 453.948 139.902   8
  11  -3   1 729.766 174.874   6
 -11   3   1 536.949 148.934   3
 -11  -3   1 648.385 154.135   3
 -11   3   1 894.057 190.075   8
  11  -3   2 519.975 170.713   6
 -11   3   2 511.770 149.458   3
 -11  -3   2 728.418 173.012   3
 -11   3   2 580.854 160.669   8
  11  -3   3 17.6797 81.6533   6
 -11   3   3 155.245 113.273   3
 -11  -3   3 228.451 116.417   3
 -11  -3   4 398.081 150.892   3
  11  -4  -3 374.803 129.595   6
  11   4  -3 463.545 140.083   2
 -11   4  -3 517.746 182.157   8
 -11  -4  -3 544.525 162.399   8
 -11   4  -2 66.1519 69.4806   3
  11  -4  -2 145.938 92.4533   6
  11   4  -2 114.454 93.7387   2
 -11   4  -2 62.5134 72.3240   8
 -11  -4  -2-93.0656 121.766   8
 -11   4  -1 910.205 188.808   3
  11  -4  -1 683.785 187.541   6
  11   4  -1 835.986 168.350   2
 -11   4  -1 616.687 172.143   8
 -11   4   0 957.659 206.014   3
  11  -4   0 639.206 171.095   6
  11   4   0 387.379 109.299   2
 -11   4   0 971.634 209.923   8
  11  -4   1 647.449 174.451   6
 -11   4   1 713.920 177.129   3
 -11  -4   1 654.602 162.300   3
 -11   4   1 745.531 175.697   8
  11  -4   2 31.0092 105.570   6
 -11   4   2 60.7808 71.4907   3
 -11  -4   2 20.5116 65.3122   3
 -11   4   2 43.6986 64.3656   8
  11  -4   3 354.687 138.420   6
 -11   4   3 578.424 185.820   3
 -11  -4   3 316.628 142.354   3
 -11  -4   4 780.587 196.464   3
  11   5  -3 545.227 159.313   2
  11  -5  -2 1483.68 265.195   6
  11   5  -2 1630.37 248.320   2
 -11   5  -2 1589.08 275.476   8
  11  -5  -1 2900.49 356.386   6
 -11   5  -1 1795.08 274.599   8
  11   5  -1 2688.04 308.559   2
 -11   5   0 184.874 113.631   3
  11  -5   0-11.1898 66.3945   6
  11   5   0 74.7365 54.1289   2
 -11   5   0 70.9414 90.0700   8
  11  -5   1 2618.41 337.892   6
 -11   5   1 2033.31 294.565   3
 -11   5   1 1873.03 278.658   8
  11   5   1 2318.69 272.905   2
  11  -5   2 1446.80 268.102   6
 -11   5   2 1656.52 281.256   3
 -11  -5   2 1443.97 245.261   3
 -11  -5   3 239.310 109.320   3
  11   6  -2 2731.08 328.115   2
  11   6  -1 16.3251 81.8388   2
 -11   6  -1 92.2898 88.9672   8
  11  -6   0 270.895 125.883   6
  11   6   0 728.128 179.382   2
 -11   6   0 579.111 169.668   8
 -11   6   1-1.48036 71.5482   3
  11  -6   1 30.6305 64.2827   6
  11   6   1 23.4533 72.5805   2
 -11   6   1 99.0016 87.1397   8
 -11  -6   2 2526.37 332.443   3
 -11  -6   3 3802.88 429.343   3
  11   7   0 74.5289 72.9548   2
 -11   7   0 29.7405 61.5706   8
  11   7   1 361.220 131.639   2
  12   0  -3 2831.98 314.272   2
  12   0  -2 5328.57 484.463   6
  12   0  -1 1741.79 278.038   6
 -12   0  -1 1863.19 315.212   8
  12   0   0-101.179 113.611   6
 -12   0   0 58.0325 84.1395   3
 -12   0   0 66.7774 76.9666   8
  12   0   1 1551.43 260.247   6
 -12   0   1 2057.58 291.154   3
 -12   0   1 1786.46 300.553   8
 -12   0   2 6424.73 548.359   8
 -12   0   2 5822.84 508.935   3
  12   0   2 5738.13 495.899   6
  12   1  -3 393.601 143.454   6
  12   1  -3 702.255 158.672   2
  12  -1  -2 1059.15 229.110   6
  12   1  -2 1210.46 232.847   6
  12  -1  -1 3838.47 411.408   6
  12   1  -1 3758.29 398.087   6
 -12   1  -1 3827.20 438.872   8
 -12  -1  -1 3967.21 452.612   8
  12  -1   0-2.51854 90.8066   6
  12   1   0-48.7782 98.0851   6
 -12   1   0-40.7676 85.8433   3
 -12   1   0 149.363 125.423   8
 -12  -1   0-86.8575 118.358   8
 -12   1   1 3566.80 419.249   8
 -12   1   1 4051.47 414.716   3
 -12  -1   1 3890.79 399.940   3
 -12  -1   1 3300.29 407.471   8
  12  -1   1 4228.94 429.504   6
  12   1   1 4334.80 417.897   6
  12  -1   2 1698.54 274.794   6
  12   1   2 1135.96 219.601   6
 -12   1   2 1467.33 262.853   3
 -12  -1   2 1262.52 238.817   3
 -12   1   2 1649.00 281.980   8
  12   1   3 1030.83 214.187   6
  12   2  -2 560.389 154.753   2
  12  -2  -1 4374.39 449.061   6
  12   2  -1 4168.48 407.421   6
 -12   2  -1 3780.88 435.869   8
  12  -2   0 1637.67 265.789   6
  12   2   0 1244.89 223.743   6
 -12   2   0 1465.89 245.553   3
 -12   2   0 1240.71 260.616   8
 -12  -2   0 1260.25 259.399   8
 -12   2   1 4096.08 443.751   8
 -12   2   1 5029.59 464.444   3
 -12  -2   1 4056.42 409.322   3
  12  -2   1 4343.00 442.602   6
  12   2   1 4199.19 409.248   6
  12   2   2 240.112 73.5335   6
 -12   2   2 216.211 130.015   3
 -12  -2   2 649.857 169.723   3
 -12   2   2 475.363 146.570   8
  12   2   3 327.564 125.602   6
  12   3  -2 1875.89 267.364   2
 -12   3  -1 533.958 154.114   3
 -12   3   0-122.659 74.5189   3
 -12   3   0-23.5497 85.1154   8
 -12   3   1 134.696 76.3407   3
 -12   3   1 275.634 169.738   8
 -12  -3   2 2306.01 323.266   3
 -12   4  -1 435.584 136.436   3
  12   4  -1 577.784 166.129   2
 -12   4   0 267.341 134.340   3
 -12   4   0 231.606 119.612   8
 -12   4   1 588.496 178.263   8
 -12  -4   2 2175.74 315.936   3
   0   0   0    0.00    0.00   0

TITL 2017_10_23_MM_AI_amber in Pna2(1)
REM Pna2(1) (#33, found as P2(1)nb in bca setting)
CELL 0.71073   8.452038  10.541527   7.374160  90.0000  90.0000  90.0000
ZERR    8.00   0.000286   0.000356   0.000266   0.0000   0.0000   0.0000
LATT -1
SYMM -x,-y, z+1/2
SYMM  x+1/2,-y+1/2, z
SYMM -x+1/2, y+1/2, z+1/2
SFAC C H N
UNIT 64.00 64.00 16.00
TREF
HKLF 4
END
;
_shelx_hkl_checksum              79453
_olex2_date_sample_data_collection 2017-10-23
_olex2_submission_special_instructions 'No special instructions were received'
_oxdiff_exptl_absorpt_empirical_details
;
Empirical correction (ABSPACK) includes:
- Absorption correction using spherical harmonics
- Frame scaling
;
_oxdiff_exptl_absorpt_empirical_full_max 1.200
_oxdiff_exptl_absorpt_empirical_full_min 0.828
loop_
_space_group_symop_operation_xyz
'x, y, z'
'-x, -y, z+1/2'
'-x+1/2, y+1/2, z+1/2'
'x+1/2, -y+1/2, z'
loop_
_atom_site_label
_atom_site_type_symbol
_atom_site_fract_x
_atom_site_fract_y
_atom_site_fract_z
_atom_site_U_iso_or_equiv
_atom_site_adp_type
_atom_site_occupancy
_atom_site_site_symmetry_order
_atom_site_calc_flag
_atom_site_refinement_flags_posn
_atom_site_refinement_flags_adp
_atom_site_refinement_flags_occupancy
_atom_site_disorder_assembly
_atom_site_disorder_group
N2 N -0.05010(15) -0.23956(14) -0.3393(2) 0.0201(3) Uani 1 1 d . . . . .
H2A H -0.131(3) -0.272(2) -0.278(3) 0.030(6) Uiso 1 1 d . . . . .
C6 C 0.12699(18) -0.05914(15) -0.2978(2) 0.0174(3) Uani 1 1 d . . . . .
H6 H 0.106095 -0.035043 -0.419586 0.021 Uiso 1 1 calc R . . . .
C9 C 0.18101(17) -0.13133(14) 0.0611(2) 0.0162(3) Uani 1 1 d . . . . .
C4 C 0.07497(18) -0.20219(14) -0.0455(2) 0.0170(3) Uani 1 1 d . . . . .
H4 H 0.022141 -0.273823 0.003912 0.020 Uiso 1 1 calc R . . . .
N1 N 0.35581(16) 0.02694(13) 0.11643(18) 0.0198(3) Uani 1 1 d . . . . .
H1 H 0.413(3) 0.094(2) 0.102(3) 0.029(6) Uiso 1 1 d . . . . .
C5 C 0.04867(16) -0.16596(13) -0.2238(2) 0.0162(3) Uani 1 1 d . . . . .
C7 C 0.23373(18) 0.01108(14) -0.1958(2) 0.0180(3) Uani 1 1 d . . . . .
H7 H 0.286955 0.082141 -0.246393 0.022 Uiso 1 1 calc R . . . .
C8 C 0.26043(17) -0.02604(14) -0.0166(2) 0.0165(3) Uani 1 1 d . . . . .
C2 C 0.33486(19) -0.04021(15) 0.2743(2) 0.0215(3) Uani 1 1 d . . . . .
H2 H 0.385404 -0.021553 0.386188 0.026 Uiso 1 1 calc R . . . .
C3 C 0.23073(19) -0.13786(15) 0.2472(2) 0.0208(3) Uani 1 1 d . . . . .
H3 H 0.197649 -0.198401 0.334736 0.025 Uiso 1 1 calc R . . . .
H2B H -0.092(4) -0.193(3) -0.432(4) 0.047(8) Uiso 1 1 d . . . . .
loop_
_atom_site_aniso_label
_atom_site_aniso_U_11
_atom_site_aniso_U_22
_atom_site_aniso_U_33
_atom_site_aniso_U_23
_atom_site_aniso_U_13
_atom_site_aniso_U_12
N2 0.0171(5) 0.0201(6) 0.0232(6) -0.0011(5) -0.0045(5) -0.0013(5)
C6 0.0181(6) 0.0160(6) 0.0181(7) 0.0005(5) 0.0006(5) 0.0029(5)
C9 0.0156(6) 0.0144(6) 0.0185(6) -0.0017(5) 0.0020(5) 0.0018(5)
C4 0.0168(6) 0.0137(6) 0.0206(7) -0.0005(6) 0.0026(5) -0.0003(5)
N1 0.0185(6) 0.0178(6) 0.0231(7) -0.0036(5) -0.0001(5) -0.0021(5)
C5 0.0134(6) 0.0143(6) 0.0208(7) -0.0032(5) 0.0007(5) 0.0023(5)
C7 0.0184(6) 0.0140(6) 0.0217(7) 0.0002(5) 0.0032(5) -0.0004(5)
C8 0.0153(6) 0.0145(6) 0.0196(7) -0.0026(5) 0.0018(5) 0.0003(5)
C2 0.0225(6) 0.0231(7) 0.0189(7) -0.0037(6) -0.0021(6) 0.0022(6)
C3 0.0246(7) 0.0188(7) 0.0190(7) -0.0003(5) 0.0005(6) 0.0016(6)
loop_
_atom_type_symbol
_atom_type_description
_atom_type_scat_dispersion_real
_atom_type_scat_dispersion_imag
_atom_type_scat_source
C C 0.0033 0.0016 'International Tables Vol C Tables 4.2.6.8 and 6.1.1.4'
H H 0.0000 0.0000 'International Tables Vol C Tables 4.2.6.8 and 6.1.1.4'
N N 0.0061 0.0033 'International Tables Vol C Tables 4.2.6.8 and 6.1.1.4'
loop_
_geom_angle_atom_site_label_1
_geom_angle_atom_site_label_2
_geom_angle_atom_site_label_3
_geom_angle
_geom_angle_site_symmetry_1
_geom_angle_site_symmetry_3
_geom_angle_publ_flag
C7 C6 C5 121.28(14) . . ?
C4 C9 C8 119.44(14) . . ?
C4 C9 C3 133.99(14) . . ?
C8 C9 C3 106.56(13) . . ?
C5 C4 C9 119.05(13) . . ?
C2 N1 C8 108.48(13) . . ?
C6 C5 N2 118.49(14) . . ?
C4 C5 N2 120.77(14) . . ?
C4 C5 C6 120.63(14) . . ?
C6 C7 C8 117.91(14) . . ?
N1 C8 C9 107.72(14) . . ?
N1 C8 C7 130.57(14) . . ?
C7 C8 C9 121.68(14) . . ?
C3 C2 N1 110.29(15) . . ?
C2 C3 C9 106.94(15) . . ?
loop_
_geom_bond_atom_site_label_1
_geom_bond_atom_site_label_2
_geom_bond_distance
_geom_bond_site_symmetry_2
_geom_bond_publ_flag
N2 C5 1.4230(19) . ?
C6 C5 1.416(2) . ?
C6 C7 1.388(2) . ?
C9 C4 1.407(2) . ?
C9 C8 1.418(2) . ?
C9 C3 1.437(2) . ?
C4 C5 1.387(2) . ?
N1 C8 1.3873(19) . ?
N1 C2 1.374(2) . ?
C7 C8 1.397(2) . ?
C2 C3 1.369(2) . ?
