#------------------------------------------------------------------------------
#$Date: 2020-10-04 05:50:06 +0300 (Sun, 04 Oct 2020) $
#$Revision: 257004 $
#$URL: file:///home/coder/svn-repositories/cod/cif/4/51/77/4517772.cif $
#------------------------------------------------------------------------------
#
# This file is available in the Crystallography Open Database (COD),
# http://www.crystallography.net/
#
# All data on this site have been placed in the public domain by the
# contributors.
#
data_4517772
loop_
_publ_author_name
'Liu, Lei'
'Song, Hong'
'Liu, Yan-Hua'
'Wu, Le-Song'
'Shi, Bing-Feng'
_publ_section_title
;
 Achiral CpxIr(III)/Chiral Carboxylic Acid Catalyzed Enantioselective C--H
 Amidation of Ferrocenes under Mild Conditions
;
_journal_issue                   13
_journal_name_full               'ACS Catalysis'
_journal_page_first              7117
_journal_page_last               7122
_journal_paper_doi               10.1021/acscatal.0c02049
_journal_volume                  10
_journal_year                    2020
_chemical_formula_moiety         'C26 H42 Cl4 Ir2'
_chemical_formula_sum            'C26 H42 Cl4 Ir2'
_chemical_formula_weight         880.79
_space_group_crystal_system      triclinic
_space_group_IT_number           2
_space_group_name_Hall           '-P 1'
_space_group_name_H-M_alt        'P -1'
_atom_sites_solution_hydrogens   geom
_atom_sites_solution_primary     dual
_audit_creation_date             2020-01-15
_audit_creation_method
;
Olex2 1.2
(compiled 2018.05.29 svn.r3508 for OlexSys, GUI svn.r5506)
;
_cell_angle_alpha                102.796(14)
_cell_angle_beta                 99.295(16)
_cell_angle_gamma                100.694(10)
_cell_formula_units_Z            1
_cell_length_a                   8.389(3)
_cell_length_b                   9.214(2)
_cell_length_c                   9.659(3)
_cell_measurement_reflns_used    7133
_cell_measurement_temperature    170(2)
_cell_measurement_theta_max      27.09
_cell_measurement_theta_min      2.53
_cell_volume                     699.2(4)
_computing_cell_refinement       'SAINT V8.38A (?, 2016)'
_computing_data_reduction        'SAINT V8.38A (?, 2016)'
_computing_molecular_graphics    'Olex2 (Dolomanov et al., 2009)'
_computing_publication_material  'Olex2 (Dolomanov et al., 2009)'
_computing_structure_refinement  'ShelXL (Sheldrick, 2015)'
_computing_structure_solution    'ShelXT (Sheldrick, 2015)'
_diffrn_ambient_temperature      170.0
_diffrn_measured_fraction_theta_full 0.996
_diffrn_measured_fraction_theta_max 0.994
_diffrn_measurement_device_type  'zju Bruker D8 Venture Ims 3.0'
_diffrn_measurement_method       '\f and \w scans'
_diffrn_radiation_type           MoK\a
_diffrn_radiation_wavelength     0.71073
_diffrn_reflns_av_R_equivalents  0.0405
_diffrn_reflns_av_unetI/netI     0.0481
_diffrn_reflns_Laue_measured_fraction_full 0.996
_diffrn_reflns_Laue_measured_fraction_max 0.994
_diffrn_reflns_limit_h_max       10
_diffrn_reflns_limit_h_min       -10
_diffrn_reflns_limit_k_max       11
_diffrn_reflns_limit_k_min       -11
_diffrn_reflns_limit_l_max       12
_diffrn_reflns_limit_l_min       -12
_diffrn_reflns_number            8647
_diffrn_reflns_point_group_measured_fraction_full 0.996
_diffrn_reflns_point_group_measured_fraction_max 0.994
_diffrn_reflns_theta_full        25.242
_diffrn_reflns_theta_max         27.069
_diffrn_reflns_theta_min         2.528
_diffrn_standards_number         0
_exptl_absorpt_coefficient_mu    9.902
_exptl_absorpt_correction_T_max  0.7455
_exptl_absorpt_correction_T_min  0.4528
_exptl_absorpt_correction_type   multi-scan
_exptl_absorpt_process_details
;
SADABS-2016/2 (Bruker,2016/2) was used for absorption correction.
wR2(int) was 0.1253 before and 0.0518 after correction.
The Ratio of minimum to maximum transmission is 0.6074.
The \l/2 correction factor is Not present.
;
_exptl_crystal_colour            orange
_exptl_crystal_colour_primary    orange
_exptl_crystal_density_diffrn    2.092
_exptl_crystal_description       block
_exptl_crystal_F_000             420
_exptl_crystal_size_max          0.09
_exptl_crystal_size_mid          0.07
_exptl_crystal_size_min          0.06
_refine_diff_density_max         1.670
_refine_diff_density_min         -1.325
_refine_diff_density_rms         0.159
_refine_ls_extinction_method     none
_refine_ls_goodness_of_fit_ref   1.057
_refine_ls_hydrogen_treatment    constr
_refine_ls_matrix_type           full
_refine_ls_number_parameters     152
_refine_ls_number_reflns         3061
_refine_ls_number_restraints     0
_refine_ls_restrained_S_all      1.057
_refine_ls_R_factor_all          0.0222
_refine_ls_R_factor_gt           0.0214
_refine_ls_shift/su_max          0.002
_refine_ls_shift/su_mean         0.000
_refine_ls_structure_factor_coef Fsqd
_refine_ls_weighting_details
'w=1/[\s^2^(Fo^2^)+(0.0026P)^2^+0.3247P] where P=(Fo^2^+2Fc^2^)/3'
_refine_ls_weighting_scheme      calc
_refine_ls_wR_factor_gt          0.0497
_refine_ls_wR_factor_ref         0.0502
_reflns_Friedel_coverage         0.000
_reflns_number_gt                2966
_reflns_number_total             3061
_reflns_threshold_expression     'I > 2\s(I)'
_cod_data_source_file            cs0c02049_si_002.cif
_cod_data_source_block           200115_ll_4_cat_0m
_cod_depositor_comments
;Adding full bibliography for 4517772--4517773.cif.

 Adding full bibliography for 4517772--4517773.cif.
;
_cod_original_cell_volume        699.3(3)
_cod_database_code               4517772
_shelx_shelxl_version_number     2016/6
_shelx_space_group_comment
;
The symmetry employed for this shelxl refinement is uniquely defined
by the following loop, which should always be used as a source of
symmetry information in preference to the above space-group names.
They are only intended as comments.
;
_shelx_estimated_absorpt_t_max   0.588
_shelx_estimated_absorpt_t_min   0.469
_olex2_refinement_description
;
1. Fixed Uiso
 At 1.5 times of:
  All C(H,H,H) groups
2.a Idealised Me refined as rotating group:
 C7(H7A,H7B,H7C), C8(H8A,H8B,H8C), C9(H9A,H9B,H9C), C10(H10A,H10B,H10C),
 C11(H11A,H11B,H11C), C12(H12A,H12B,H12C), C13(H13A,H13B,H13C)
;
_shelx_res_file
;
TITL 200115_ll_4_cat_0m_a.res in P-1
    200115_ll_4_cat_0m.res
    created by SHELXL-2016/6 at 10:34:27 on 15-Jan-2020
REM Old TITL 200115_LL_4_Cat_0m in P1
REM SHELXT solution in P-1
REM R1 0.045, Rweak 0.010, Alpha 0.031, Orientation as input
REM Formula found by SHELXT: C13 Cl2 Ir
CELL 0.71073 8.3891 9.2137 9.6594 102.796 99.295 100.694
ZERR 1 0.0026 0.0023 0.0027 0.014 0.016 0.01
LATT 1
SFAC C H Cl Ir
UNIT 26 42 4 2

L.S. 20
PLAN  20
SIZE 0.06 0.07 0.09
TEMP -103.15
BOND $H
htab
list 4
fmap 2 53
acta
OMIT 0 1 0
REM <olex2.extras>
REM <HklSrc "%.\\200115_LL_4_Cat_0m.hkl">
REM </olex2.extras>

WGHT    0.002600    0.324700
FVAR       0.50248
IR1   4    0.316821    0.399920    0.849727    11.00000    0.01576    0.01859 =
         0.01695    0.00206    0.00431    0.00325
CL1   3    0.303440    0.645105    0.810456    11.00000    0.03358    0.02090 =
         0.03531    0.00724    0.00782    0.00521
CL2   3    0.618840    0.479941    0.887677    11.00000    0.01833    0.03440 =
         0.01934   -0.00118    0.00584    0.00272
C1    1    0.228819    0.233593    0.647063    11.00000    0.01985    0.01776 =
         0.01876    0.00044    0.00509    0.00125
C2    1    0.305735    0.162251    0.754231    11.00000    0.02421    0.01733 =
         0.02642    0.00254    0.00558    0.00614
C3    1    0.218777    0.173342    0.871012    11.00000    0.02031    0.02107 =
         0.02585    0.00589    0.00518    0.00100
C4    1    0.085227    0.248504    0.838960    11.00000    0.02248    0.01879 =
         0.02616    0.00325    0.00735    0.00167
C5    1    0.087821    0.280775    0.700099    11.00000    0.01680    0.01838 =
         0.02399    0.00372    0.00064    0.00155
C6    1    0.274535    0.230948    0.498573    11.00000    0.03552    0.02115 =
         0.02025    0.00292    0.00829    0.00341
C7    1    0.202034    0.343448    0.425608    11.00000    0.06183    0.03870 =
         0.02950    0.01519    0.01240    0.01675
AFIX 137
H7A   2    0.081109    0.307379    0.396010    11.00000   -1.50000
H7B   2    0.248755    0.350016    0.339928    11.00000   -1.50000
H7C   2    0.229991    0.444710    0.494342    11.00000   -1.50000
AFIX   0
C8    1    0.201618    0.068524    0.401288    11.00000    0.05485    0.03040 =
         0.02587   -0.00094    0.01123   -0.00112
AFIX 137
H8A   2    0.249273   -0.004355    0.445073    11.00000   -1.50000
H8B   2    0.228084    0.062194    0.305263    11.00000   -1.50000
H8C   2    0.080869    0.043864    0.391316    11.00000   -1.50000
AFIX   0
C9    1    0.461520    0.274047    0.510757    11.00000    0.03714    0.05411 =
         0.03174    0.00863    0.01623    0.00028
AFIX 137
H9A   2    0.508930    0.370733    0.585108    11.00000   -1.50000
H9B   2    0.484673    0.285684    0.417060    11.00000   -1.50000
H9C   2    0.511248    0.193450    0.537942    11.00000   -1.50000
AFIX   0
C10   1    0.446193    0.083459    0.753106    11.00000    0.03520    0.03812 =
         0.04404    0.01452    0.01368    0.02054
AFIX 137
H10A  2    0.544722    0.152867    0.742839    11.00000   -1.50000
H10B  2    0.415455   -0.008160    0.671394    11.00000   -1.50000
H10C  2    0.470504    0.054007    0.844347    11.00000   -1.50000
AFIX   0
C11   1    0.256489    0.113299    1.001369    11.00000    0.04068    0.03614 =
         0.03321    0.01721    0.00890    0.00510
AFIX 137
H11A  2    0.374166    0.152779    1.048026    11.00000   -1.50000
H11B  2    0.231757    0.001309    0.971343    11.00000   -1.50000
H11C  2    0.188255    0.146461    1.070159    11.00000   -1.50000
AFIX   0
C12   1   -0.036324    0.278761    0.933117    11.00000    0.02615    0.03289 =
         0.03776    0.00236    0.01443    0.00128
AFIX 137
H12A  2    0.018356    0.298508    1.035267    11.00000   -1.50000
H12B  2   -0.129696    0.189453    0.907927    11.00000   -1.50000
H12C  2   -0.077267    0.368144    0.917846    11.00000   -1.50000
AFIX   0
C13   1   -0.039858    0.352601    0.631237    11.00000    0.02658    0.03489 =
         0.04528    0.01720    0.00087    0.01131
AFIX 137
H13A  2   -0.112688    0.378381    0.698113    11.00000   -1.50000
H13B  2   -0.106033    0.280487    0.540940    11.00000   -1.50000
H13C  2    0.015835    0.445803    0.609724    11.00000   -1.50000
AFIX   0
HKLF 4




REM  200115_ll_4_cat_0m_a.res in P-1
REM R1 =  0.0214 for    2966 Fo > 4sig(Fo)  and  0.0222 for all    3061 data
REM    152 parameters refined using      0 restraints

END

WGHT      0.0026      0.3247

REM No hydrogen bonds found for HTAB generation

REM Highest difference peak  1.670,  deepest hole -1.325,  1-sigma level  0.159
Q1    1   0.3872  0.3516  0.8930  11.00000  0.05    1.67
Q2    1   0.3818  0.4826  0.8828  11.00000  0.05    1.59
Q3    1   0.2565  0.4465  0.8052  11.00000  0.05    1.56
Q4    1   0.2537  0.3224  0.8139  11.00000  0.05    1.48
Q5    1   0.3195  0.3853  0.7420  11.00000  0.05    1.22
Q6    1   0.1992  0.3958  0.7808  11.00000  0.05    1.19
Q7    1   0.4321  0.4074  0.9160  11.00000  0.05    1.08
Q8    1   0.3052  0.4030  0.9562  11.00000  0.05    1.04
Q9    1   0.6762  0.5573  0.9563  11.00000  0.05    0.77
Q10   1   0.1566  0.3957  0.8612  11.00000  0.05    0.66
Q11   1   0.5665  0.4860  0.9780  11.00000  0.05    0.61
Q12   1   0.4879  0.4021  0.8386  11.00000  0.05    0.56
Q13   1   0.6434  0.4013  0.9264  11.00000  0.05    0.51
Q14   1   0.1911  0.2845  0.6858  11.00000  0.05    0.49
Q15   1   0.3130  0.3625  0.6446  11.00000  0.05    0.49
Q16   1   0.2620  0.1543  0.8089  11.00000  0.05    0.49
Q17   1   0.3605  0.5814  0.8467  11.00000  0.05    0.48
Q18   1   0.3666  0.2502  0.8032  11.00000  0.05    0.46
Q19   1   0.1950  0.0653  0.3388  11.00000  0.05    0.46
Q20   1   0.4064 -0.0167  0.7541  11.00000  0.05    0.45
;
_shelx_res_checksum              70630
_shelx_hkl_file
;
  -1   0   0 1351.46  157.58
   1   0   0 1183.48  149.19
  -2   0   0 4231.98  420.56
   2   0   0 3927.31  407.86
  -3   0   0 5425.46  578.84
   3   0   0 5545.15  581.34
  -4   0   0    6.10    2.40
   4   0   0    3.60    2.10
  -5   0   0 1802.02  113.89
  -5   0   0 2020.90  115.79
   5   0   0 2024.00  116.29
  -6   0   0  954.70   57.29
  -6   0   0  875.61   55.19
   6   0   0  940.31   57.99
  -7   0   0   29.40    4.20
  -7   0   0   26.40    5.50
   7   0   0   20.70    5.40
  -8   0   0 1037.40   63.19
   8   0   0 1058.59   67.29
  -9   0   0  221.98   15.20
  -9   0   0  191.98   17.60
   9   0   0  248.48   20.10
   9   0   0  168.08   18.00
 -10   0   0  252.17   17.40
 -10   0   0  225.48   20.90
  10   0   0  265.87   24.50
  10   0   0  222.48   21.60
  10  -1   0    2.90    4.60
  10  -1   0    0.80    4.90
 -10   1   0   -6.60    2.90
 -10   1   0   -0.80    2.40
   9  -1   0  499.55   38.10
   9  -1   0  633.74   39.70
  -9   1   0  518.75   34.00
  -9   1   0  518.05   37.10
   8  -1   0  125.59   13.10
  -8   1   0  130.39   10.10
   7  -1   0  153.68   13.90
  -7   1   0  158.68   13.50
   6  -1   0 2135.59  129.39
  -6   1   0 2193.48  128.89
   5  -1   0  712.23   44.50
  -5   1   0  705.23   44.10
   4  -1   0 1439.56   87.99
  -4   1   0 1514.25   87.89
   3  -1   0 8040.80  747.43
  -3   1   0 7512.05  733.23
   2  -1   0  130.09    8.90
  -2   1   0  132.69    8.90
   1  -1   0 9254.67  697.43
   0  -1   0    0.10    0.20
  -1  -1   0 1178.68   64.19
  -1  -1   0 1112.79   64.59
   1   1   0 1042.60   64.59
   1   1   0 1064.59   64.19
  -2  -1   0 2441.86  136.39
   2   1   0 2250.07  136.49
  -3  -1   0 2289.17  131.79
   3   1   0 2196.68  131.99
  -4  -1   0   41.50    4.10
  -4  -1   0   48.10    5.30
   4   1   0   50.49    5.70
  -5  -1   0 1482.85   89.59
  -5  -1   0 1560.04   91.39
   5   1   0 1519.45   91.99
  -6  -1   0  230.08   15.80
  -6  -1   0  239.38   17.80
   6   1   0  240.28   18.60
  -7  -1   0  392.66   26.80
   7   1   0  381.96   32.20
   7   1   0  502.05   30.90
  -8  -1   0 1088.69   67.49
   8   1   0  969.60   71.09
   8   1   0 1317.17   72.59
  -9  -1   0   39.90   12.20
  -9  -1   0   40.40    5.60
   9   1   0   23.70    7.60
 -10  -1   0  529.85   31.50
  10   1   0  409.06   36.00
  10  -2   0  255.87   22.30
 -10   2   0  247.68   21.00
 -10   2   0  231.88   17.20
   9  -2   0  593.94   37.00
   9  -2   0  457.25   35.10
  -9   2   0  454.15   31.20
  -9   2   0  490.35   34.70
   8  -2   0   40.80    7.90
   7  -2   0  945.41   60.69
  -7   2   0  977.60   60.29
   6  -2   0 1231.48   75.49
  -6   2   0 1234.08   75.09
   5  -2   0  779.42   49.99
  -5   2   0  838.52   50.09
   4  -2   0 3150.38  187.68
  -4   2   0 3262.57  187.78
  -3   2   0 1025.00   61.29
  -2   2   0  510.85   30.30
   1  -2   0 3951.60  412.86
  -1   2   0 2764.62  407.26
   0  -2   0   12.50    1.20
   0  -2   0   12.10    1.70
   0   2   0   16.30    1.80
   0   2   0   13.40    1.30
  -1  -2   0   38.10    3.30
  -1  -2   0   39.10    3.70
   1   2   0   43.00    4.00
   1   2   0   38.60    3.20
   1   2   0   37.00    3.30
  -2  -2   0 2150.68  117.39
  -2  -2   0 2061.09  117.99
   2   2   0 1859.31  118.49
   2   2   0 1959.80  117.39
  -3  -2   0   98.19    7.80
  -3  -2   0   86.09    6.70
   3   2   0   86.69    7.00
   3   2   0   93.29    8.10
  -4  -2   0  697.03   40.90
  -4  -2   0  686.33   42.30
   4   2   0  638.14   42.70
  -5  -2   0  693.83   41.80
  -5  -2   0  695.53   43.50
   5   2   0  758.12   44.00
   5   2   0  588.54   43.70
  -6  -2   0   78.39    8.50
  -6  -2   0   69.09    6.50
   6   2   0   65.99    9.80
   6   2   0   82.49   11.40
  -7  -2   0 1000.60   58.79
   7   2   0 1079.19   62.49
   7   2   0  820.82   61.89
  -8  -2   0  160.78   15.10
  -8  -2   0  170.88   12.60
   8   2   0  136.19   15.40
   8   2   0  181.38   16.30
  -9  -2   0  287.47   24.20
  -9  -2   0  333.97   21.60
   9   2   0  262.97   25.40
   9   2   0  360.56   26.90
  10  -3   0  877.01   54.79
 -10   3   0  783.72   52.39
 -10   3   0  716.93   47.10
   9  -3   0  185.38   17.30
  -9   3   0  218.98   17.40
  -9   3   0  161.38   12.40
  -8   3   0  618.04   37.70
  -7   3   0 2195.98  131.29
  -7   3   0 2295.87  134.59
  -6   3   0   67.19    5.60
  -6   3   0   71.39    7.80
  -5   3   0 2237.98  133.59
  -5   3   0 2264.77  131.49
  -4   3   0 2445.36  144.19
  -3   3   0   20.60    2.40
   2  -3   0 2626.34  406.86
  -2   3   0 2750.52  433.66
   1  -3   0 3070.59  425.86
  -1   3   0 3260.57  436.86
   0  -3   0  617.74   35.60
   0   3   0  601.64   35.60
   0   3   0  564.14   34.90
  -1  -3   0 1827.32   98.99
   1   3   0 1654.93  100.89
   1   3   0 1681.23   98.59
   1   3   0 1582.74   98.89
  -2  -3   0  862.31   51.19
  -2  -3   0  884.21   50.49
   2   3   0  840.02   50.59
   2   3   0  836.32   51.89
   2   3   0  796.82   50.69
  -3  -3   0 1317.97   73.79
  -3  -3   0 1277.27   74.69
   3   3   0 1147.39   73.89
   3   3   0 1187.68   75.39
   3   3   0 1276.97   74.39
  -4  -3   0 1085.09   67.99
  -4  -3   0 1135.69   66.69
   4   3   0 1059.39   68.99
   4   3   0 1241.58   68.29
   4   3   0 1059.59   67.19
  -5  -3   0    7.60    3.20
  -5  -3   0    2.40    1.70
   5   3   0    0.00    2.00
   5   3   0    3.70    3.20
  -6  -3   0 1143.09   66.59
   6   3   0 1172.98   69.29
   6   3   0  969.10   72.09
  -7  -3   0  830.92   49.99
   7   3   0  840.82   53.29
   7   3   0  754.42   53.99
  -8  -3   0  150.68   11.80
  -8  -3   0  151.68   14.40
   8   3   0  143.89   15.70
   8   3   0  143.29   15.20
  -9  -3   0  574.14   41.60
  -9  -3   0  631.94   37.40
   9   3   0  488.85   42.20
   9   3   0  588.74   41.90
  10  -4   0  837.22   52.69
 -10   4   0  676.93   45.20
 -10   4   0  755.72   50.89
   9  -4   0    8.90    4.70
  -9   4   0    5.00    3.80
  -9   4   0    0.10    1.70
  -8   4   0 1270.07   75.59
  -7   4   0 1568.14   93.19
  -7   4   0 1473.45   89.59
  -6   4   0  299.37   21.10
  -6   4   0  271.87   18.20
  -5   4   0 2866.01  165.28
  -5   4   0 2719.13  162.68
  -4   4   0 2210.88  125.79
  -4   4   0 2021.40  123.49
  -3   4   0  555.34   33.60
   2  -4   0 4362.96  605.94
  -2   4   0 4916.71  653.13
   1  -4   0  170.08   11.40
   1  -4   0  196.58   12.60
  -1   4   0  211.68   12.70
   0  -4   0 2053.59  116.09
   0   4   0 1993.50  116.19
   0   4   0 1900.31  115.09
  -1  -4   0 2633.74  146.49
   1   4   0 2301.37  145.79
   1   4   0 2560.14  147.39
   1   4   0 2526.35  146.59
  -2  -4   0  252.37   16.50
   2   4   0  257.27   16.90
   2   4   0  248.28   16.50
   2   4   0  240.48   18.00
  -3  -4   0 3192.08  184.28
  -3  -4   0 3087.39  183.18
   3   4   0 3109.59  185.68
   3   4   0 3266.27  183.88
   3   4   0 3015.00  183.68
  -4  -4   0  927.01   55.79
  -4  -4   0  943.81   54.49
   4   4   0  973.90   55.79
   4   4   0  784.92   54.79
   4   4   0  856.61   57.09
  -5  -4   0  585.14   38.40
  -5  -4   0  632.94   37.00
   5   4   0  645.94   38.90
   5   4   0  553.24   40.00
   5   4   0  519.35   37.50
  -6  -4   0 1881.31  112.09
   6   4   0 1764.32  116.19
   6   4   0 2011.80  114.99
  -7  -4   0  118.99   10.10
  -7  -4   0  103.89   11.90
   7   4   0  136.69   13.10
   7   4   0  101.99   14.90
  -8  -4   0  665.13   45.80
  -8  -4   0  673.83   42.90
   8   4   0  721.93   47.40
   8   4   0  662.03   48.80
  10  -5   0  208.18   19.00
 -10   5   0  180.98   17.60
 -10   5   0  163.48   13.20
   9  -5   0  303.07   23.00
  -9   5   0  233.08   17.80
  -9   5   0  293.47   23.00
  -8   5   0 1115.89   69.59
  -8   5   0 1223.48   74.19
  -7   5   0  191.58   13.90
  -7   5   0  233.78   21.80
  -6   5   0  626.74   38.70
  -6   5   0  639.14   41.90
  -5   5   0 1448.06   83.39
  -5   5   0 1277.47   80.29
  -4   5   0   81.39    6.70
   3  -5   0 2052.19  118.39
  -3   5   0 1980.20  118.39
   2  -5   0 1608.94   92.59
   2  -5   0 1604.74   93.79
  -2   5   0 1554.44   93.79
   1  -5   0  127.59    9.00
  -1   5   0  110.69    8.90
   0  -5   0 1839.32  107.49
   0   5   0 1851.81  106.09
   0   5   0 1781.42  107.69
  -1  -5   0  591.64   34.90
   1   5   0  554.54   34.20
   1   5   0  519.35   35.00
   1   5   0  590.64   36.00
  -2  -5   0 1684.53   98.89
   2   5   0 1677.53   98.79
   2   5   0 1691.43  100.89
   2   5   0 1626.54   99.29
  -3  -5   0 1817.92  106.69
   3   5   0 1901.41  107.19
   3   5   0 1688.33  107.19
   3   5   0 1789.72  109.49
  -4  -5   0   32.50    5.70
  -4  -5   0   31.80    4.70
   4   5   0   21.00    4.50
   4   5   0   41.90    7.80
   4   5   0   38.00    5.70
  -5  -5   0 1567.34   91.69
   5   5   0 1436.06   95.49
   5   5   0 1454.85   92.69
   5   5   0 1657.43   93.79
  -6  -5   0 1196.28   73.39
   6   5   0 1136.09   76.39
   6   5   0 1202.38   74.19
  -7  -5   0   19.80    4.20
   7   5   0   21.30    7.00
   7   5   0   20.10    6.00
  -8  -5   0  530.45   36.80
   8   5   0  556.64   43.30
   8   5   0  687.83   52.49
  10  -6   0   25.90    7.10
 -10   6   0   24.70    4.50
   9  -6   0  725.93   45.90
  -9   6   0  679.43   46.10
  -9   6   0  583.34   41.90
   8  -6   0  458.35   30.30
  -8   6   0  415.96   30.80
  -8   6   0  370.26   26.30
  -7   6   0   89.19    7.90
  -6   6   0  608.14   40.30
  -6   6   0  579.84   36.80
  -5   6   0  222.18   15.40
  -4   6   0  321.27   21.00
   3  -6   0 1029.60   59.39
   3  -6   0  972.00   57.99
  -3   6   0  953.60   59.29
   2  -6   0   10.20    1.30
   2  -6   0   19.70    3.40
  -2   6   0   15.20    3.20
   1  -6   0 1206.28   70.09
  -1   6   0 1132.39   70.19
   0  -6   0 1030.60   59.89
   0   6   0  949.80   59.99
  -1  -6   0  184.48   12.90
   1   6   0  163.48   13.10
   1   6   0  198.28   14.20
   1   6   0  163.18   11.80
  -2  -6   0 1388.76   79.19
   2   6   0 1345.87   81.29
   2   6   0 1262.47   78.59
   2   6   0 1280.57   79.59
  -3  -6   0  300.67   20.10
   3   6   0  295.77   22.80
   3   6   0  267.27   20.50
   3   6   0  304.57   20.30
  -4  -6   0  276.97   19.30
   4   6   0  256.07   18.70
   4   6   0  235.08   18.60
   4   6   0  233.28   20.70
  -5  -6   0 1261.27   73.89
   5   6   0 1118.59   74.79
   5   6   0 1230.48   78.49
   5   6   0 1242.38   75.89
  -6  -6   0  137.39   14.10
  -6  -6   0  173.28   13.10
   6   6   0  173.28   15.00
   6   6   0  157.28   14.30
   6   6   0  140.09   16.20
  -7  -6   0  224.08   19.20
   7   6   0  203.28   21.90
   7   6   0  256.37   20.60
   9  -7   0  646.94   41.40
  -9   7   0  574.54   42.00
  -9   7   0  530.55   36.60
   8  -7   0    6.00    3.70
  -8   7   0    3.00    2.40
  -8   7   0    9.90    4.70
   7  -7   0  634.24   41.70
  -7   7   0  636.34   44.00
  -6   7   0  571.04   36.10
  -5   7   0   27.90    4.50
  -4   7   0 1404.06   84.09
   3  -7   0  206.28   12.10
   3  -7   0  162.98   11.80
   3  -7   0  206.18   13.90
  -3   7   0  185.88   13.80
   2  -7   0 1087.19   64.29
  -2   7   0 1034.00   64.29
   1  -7   0 1650.73   96.29
  -1   7   0 1578.44   96.49
   0  -7   0    4.90    2.60
   0   7   0    5.60    2.90
   0   7   0    5.50    2.80
  -1  -7   0 1533.65   87.29
   1   7   0 1333.37   87.89
   1   7   0 1432.96   87.49
   1   7   0 1483.65   85.29
  -2  -7   0  939.01   55.89
   2   7   0  866.01   64.99
   2   7   0  936.01   56.69
   2   7   0  869.91   54.79
  -3  -7   0   -2.00    1.70
   3   7   0    3.80    3.30
   3   7   0    0.20    2.40
   3   7   0    2.60    1.80
  -4  -7   0  882.11   53.69
   4   7   0  868.41   57.59
   4   7   0  840.62   54.79
   4   7   0  850.91   54.09
   5   7   0  444.36   30.20
   5   7   0  408.56   30.10
   5   7   0  421.06   33.10
  -6  -7   0   70.29    7.90
   6   7   0   65.69   10.10
   6   7   0   63.69   10.10
   9  -8   0  363.36   26.00
  -9   8   0  286.77   22.00
   8  -8   0  117.99   12.10
  -8   8   0  109.19   15.60
  -8   8   0  105.19   10.00
   7  -8   0  868.31   52.39
  -7   8   0  726.93   50.59
  -7   8   0  877.21   55.99
   6  -8   0  142.69   11.60
  -6   8   0  124.19   11.20
   5  -8   0 1019.70   56.29
   5  -8   0  835.62   54.99
  -5   8   0  916.41   56.79
   4  -8   0 1431.36   78.49
   4  -8   0 1218.48   76.69
  -4   8   0 1281.07   79.29
   3  -8   0   73.59    7.60
   2  -8   0 1419.86   95.89
  -2   8   0 1636.44   96.89
   0  -8   0  360.76   23.30
   0   8   0  332.97   24.00
   0   8   0  313.77   23.70
  -1  -8   0 1804.82  101.09
   1   8   0 1645.14  102.29
   1   8   0 1669.73  101.59
   1   8   0 1609.94   97.79
   2   8   0  396.76   26.00
   2   8   0  426.66   29.90
   2   8   0  404.76   28.40
  -3  -8   0  336.37   30.10
   3   8   0  349.17   23.70
   3   8   0  383.36   28.00
   3   8   0  334.17   25.20
  -4  -8   0 1100.69   63.39
   4   8   0  998.40   67.29
   4   8   0  980.10   64.29
   4   8   0  978.80   62.99
  -5  -8   0   44.70    7.00
   5   8   0   29.80    6.70
   5   8   0   27.20   10.10
   5   8   0   34.90    6.90
   8  -9   0  328.27   24.40
  -8   9   0  319.67   23.10
   7  -9   0  330.77   22.80
  -7   9   0  273.27   22.00
  -7   9   0  354.16   27.60
   6  -9   0   66.19    6.90
   6  -9   0   60.39    5.90
  -6   9   0   68.79    7.70
   5  -9   0  722.53   45.30
   5  -9   0  797.52   46.00
  -5   9   0  756.42   48.10
  -4   9   0  181.58   14.70
   3  -9   0  414.56   26.90
  -3   9   0  375.66   27.00
  -2   9   0 1063.79   65.99
  -1   9   0  143.39   12.70
   0  -9   0  684.93   42.70
   0   9   0  693.93   43.70
   0   9   0  618.44   43.50
  -1  -9   0 1017.50   58.59
   1   9   0  852.61   59.59
   1   9   0  921.61   59.19
  -2  -9   0   27.50    5.30
   2   9   0   37.20    6.70
   2   9   0   26.00    6.80
  -3  -9   0  592.04   36.00
   3   9   0  493.15   33.80
   3   9   0  524.55   38.70
   3   9   0  535.25   36.90
  -4  -9   0  411.66   28.80
   4   9   0  373.56   27.80
   4   9   0  352.76   25.50
   4   9   0  359.16   30.20
   7 -10   0    4.60    2.20
   7 -10   0    2.80    2.40
  -7  10   0    7.70    3.50
   6 -10   0  368.56   24.00
  -6  10   0  390.96   26.90
  -5  10   0  323.27   23.50
  -4  10   0   11.70    4.30
   3 -10   0  496.05   32.20
  -3  10   0  456.75   32.40
   2 -10   0  291.07   20.80
  -2  10   0  265.67   21.10
   1 -10   0   75.79    8.90
  -1  10   0   86.29    9.50
  -1  10   0   69.69   10.10
   0 -10   0  457.95   30.10
   0  10   0  398.26   29.30
   0  10   0  379.86   29.60
  -1 -10   0  192.58   15.60
   1  10   0  180.78   16.00
   1  10   0  168.78   16.50
  -2 -10   0   75.09    9.60
   2  10   0   50.19    8.50
   2  10   0   65.79   11.00
  -5  11   0   40.60    7.20
  -4  11   0  308.57   23.50
   3 -11   0  456.65   31.00
  -3  11   0  426.26   31.50
   2 -11   0    8.60    3.60
  -2  11   0    9.20    4.40
   1 -11   0  304.27   22.50
  -1  11   0  283.77   23.30
  -1  11   0  296.87   23.10
   0  11   0  181.28   17.00
   0  11   0  179.88   16.60
   1  11  -1  139.79   15.10
   1  11  -1  144.79   14.40
  -1 -11   1  153.98   14.40
   0  11  -1  397.96   33.40
   0  11  -1  419.56   32.10
   0 -11   1  501.15   31.40
   1 -11   1   72.59    8.80
  -2  11  -1  335.37   29.30
   2 -11   1  321.07   23.80
  -4  11  -1    5.20    3.40
  -5  11  -1  385.46   27.80
   3  10  -1  154.48   15.20
   3  10  -1  168.38   12.50
   3  10  -1  181.48   18.00
  -3 -10   1  189.98   15.30
   2  10  -1   31.70    6.40
   2  10  -1   34.20    8.10
   1  10  -1  480.15   33.70
   1  10  -1  451.45   34.60
  -1 -10   1  526.75   33.20
   0  10  -1  327.07   26.50
   0  10  -1  351.06   26.10
   0 -10   1  412.16   26.00
  -1  10  -1   76.79    9.40
   1 -10   1  104.19    9.80
  -2  10  -1  560.14   38.70
   2 -10   1  613.74   38.50
  -3  10  -1  177.38   14.80
  -4  10  -1  191.68   15.70
  -5  10  -1  351.46   25.00
  -6  10  -1    4.20    3.10
   6 -10   1    3.30    2.30
   6 -10   1    7.90    2.30
  -7  10  -1  281.57   23.10
   7 -10   1  272.07   19.90
   4   9  -1  649.34   46.00
   4   9  -1  665.63   44.10
  -4  -9   1  788.42   45.50
   3   9  -1   77.09   10.40
   3   9  -1   59.69   10.90
   3   9  -1   74.99    6.80
  -3  -9   1   77.09    8.40
   2   9  -1  610.34   43.30
   2   9  -1  639.84   41.70
  -2  -9   1  637.64   40.70
   1   9  -1  731.73   49.80
   1   9  -1  750.32   50.89
  -1  -9   1  859.01   49.60
   0   9  -1    9.90    3.70
   0   9  -1    2.20    3.30
   0  -9   1    2.40    3.80
  -1   9  -1 1163.18   71.59
  -2   9  -1  486.95   32.40
  -3   9  -1   91.69    9.30
  -4   9  -1  770.72   48.60
  -5   9  -1   66.39    7.50
   5  -9   1   60.39    5.00
   5  -9   1   63.99    5.60
  -6   9  -1  327.07   23.10
   6  -9   1  325.47   22.40
  -7   9  -1  309.27   23.60
  -7   9  -1  390.96   29.20
   7  -9   1  336.87   24.30
  -8   9  -1    9.40    3.20
   8  -9   1    1.40    3.40
   6   8  -1    2.00    5.80
   6   8  -1   -2.30    3.40
   6   8  -1   -1.10    3.30
  -6  -8   1   -1.60    2.20
   5   8  -1  919.81   62.19
   5   8  -1  789.72   62.49
   5   8  -1  870.11   57.89
  -5  -8   1 1020.80   57.09
   4   8  -1  665.13   44.70
   4   8  -1  656.43   47.60
   4   8  -1  719.63   43.80
   3   8  -1   34.30    6.10
   3   8  -1   39.30    5.40
   3   8  -1   40.00    8.20
   2   8  -1 1530.15   90.69
   2   8  -1 1468.35   93.79
   2   8  -1 1472.15   92.09
  -2  -8   1 1594.44   91.49
   1   8  -1  715.53   49.99
   1   8  -1  747.13   47.80
  -1  -8   1  741.13   46.10
   0   8  -1  474.35   31.90
   0  -8   1  499.15   31.60
  -1   8  -1 1583.74   99.79
   1  -8   1 1751.82   99.99
  -2   8  -1   21.80    4.30
  -3   8  -1 1164.28   71.99
  -4   8  -1  686.63   43.30
   4  -8   1  690.03   41.20
   4  -8   1  677.53   40.60
  -5   8  -1   59.69    7.10
   5  -8   1   72.59    6.90
  -6   8  -1  944.71   60.79
   6  -8   1 1037.70   61.59
  -7   8  -1  260.07   21.20
  -7   8  -1  194.48   16.00
   7  -8   1  220.88   17.50
  -8   8  -1  189.28   15.30
  -8   8  -1  196.98   19.60
   8  -8   1  214.18   17.70
  -9   8  -1  745.33   49.10
   9  -8   1  826.52   52.99
   6   7  -1  124.09   15.60
   6   7  -1  124.99   12.80
   6   7  -1  144.69   13.40
   5   7  -1  844.62   60.19
   5   7  -1  904.31   62.59
   5   7  -1  996.00   59.29
  -5  -7   1  974.60   57.79
   4   7  -1  268.17   18.40
   4   7  -1  229.18   21.10
   4   7  -1  220.28   18.40
  -4  -7   1  264.37   18.00
   3   7  -1  472.35   34.90
   3   7  -1  521.45   31.90
   3   7  -1  468.75   32.60
  -3  -7   1  517.45   32.20
   2   7  -1 1476.15   88.59
   2   7  -1 1371.36   84.89
   2   7  -1 1369.76   86.49
  -2  -7   1 1546.95   88.99
   1   7  -1   60.89    6.60
   1   7  -1   53.29    4.30
   1   7  -1   72.09    7.70
  -1  -7   1   65.49    6.50
   0   7  -1 1447.26   88.79
   0  -7   1 1519.35   88.59
  -1   7  -1  502.25   33.50
   1  -7   1  555.64   33.50
  -2   7  -1  108.59    9.50
   2  -7   1  124.49    9.60
  -3   7  -1 1260.87   75.59
   3  -7   1 1282.87   73.29
   3  -7   1 1230.48   73.59
  -4   7  -1  137.49   11.00
   4  -7   1  142.39   10.50
  -5   7  -1  534.25   34.20
   5  -7   1  542.75   34.50
  -6   7  -1 1185.28   73.59
   6  -7   1 1256.27   74.89
  -7   7  -1   39.50    5.80
   7  -7   1   28.30    6.20
  -8   7  -1  734.03   48.70
  -8   7  -1  838.82   54.09
   8  -7   1  804.22   51.99
  -9   7  -1  558.44   37.60
  -9   7  -1  604.04   43.30
   9  -7   1  621.64   42.00
   7   6  -1    6.20    4.80
   7   6  -1   -4.60    2.40
  -7  -6   1   -0.90    3.00
  -7  -6   1    0.40    2.30
   6   6  -1  766.92   53.19
   6   6  -1  673.33   48.60
   6   6  -1  793.82   49.99
  -6  -6   1  781.62   49.80
  -6  -6   1  795.62   47.60
   5   6  -1  451.95   33.80
   5   6  -1  527.85   34.70
   5   6  -1  526.15   37.90
  -5  -6   1  562.54   33.40
   4   6  -1   75.09   12.90
   4   6  -1   89.29    8.40
   4   6  -1   81.79    8.40
  -4  -6   1   86.49    7.80
   3   6  -1 1044.30   66.69
   3   6  -1 1132.69   66.29
   3   6  -1 1056.89   69.19
  -3  -6   1 1143.09   66.19
   2   6  -1  207.98   14.90
   2   6  -1  190.78   16.20
   2   6  -1  208.58   13.90
  -2  -6   1  204.68   14.40
   1   6  -1  488.15   31.60
   1   6  -1  465.25   30.50
   1   6  -1  455.45   28.80
  -1  -6   1  517.05   30.40
   0   6  -1  765.12   47.60
   0  -6   1  793.22   47.50
  -1   6  -1   30.30    4.40
   1  -6   1   31.20    4.30
  -2   6  -1  771.52   48.10
   2  -6   1  814.72   48.20
  -3   6  -1  886.11   54.79
   3  -6   1  928.91   54.19
  -4   6  -1   79.19    7.00
   4  -6   1   79.79    7.00
  -5   6  -1 1204.38   75.19
  -5   6  -1 1114.79   71.59
   5  -6   1 1278.37   72.79
  -6   6  -1  465.05   31.00
   6  -6   1  522.45   33.00
  -7   6  -1  126.59   10.50
   7  -6   1  149.29   14.90
  -8   6  -1 1069.89   71.69
   8  -6   1 1156.68   71.19
  -9   6  -1  131.59   14.70
  -9   6  -1  110.89   10.10
   9  -6   1  140.69   14.80
   8   5  -1  134.39   21.50
   8   5  -1  181.58   17.40
  -8  -5   1  198.68   14.00
  -8  -5   1  167.28   16.30
   7   5  -1  373.76   32.70
   7   5  -1  450.65   31.30
  -7  -5   1  423.56   27.70
  -7  -5   1  442.36   30.50
   6   5  -1 1138.09   78.99
   6   5  -1 1320.87   76.99
   6   5  -1 1117.89   75.29
  -6  -5   1 1297.87   74.29
  -6  -5   1 1273.67   76.59
   5   5  -1    6.90    3.20
   5   5  -1    5.10    2.80
   5   5  -1   14.70    6.30
  -5  -5   1    4.90    3.20
  -5  -5   1    3.90    2.10
   4   5  -1 1254.17   71.89
   4   5  -1 1210.08   74.49
   4   5  -1 1093.59   71.29
  -4  -5   1 1084.99   77.09
  -4  -5   1 1231.98   70.69
   3   5  -1  801.72   51.19
   3   5  -1  806.92   53.49
   3   5  -1  893.01   51.29
  -3  -5   1  843.32   50.69
   2   5  -1  265.67   19.60
   2   5  -1  279.07   17.50
   2   5  -1  263.17   18.00
  -2  -5   1  262.87   17.60
   1   5  -1 2045.10  122.29
   1   5  -1 2061.29  121.39
   1   5  -1 2029.30  120.19
  -1  -5   1 2116.39  121.19
   0   5  -1  164.98   11.80
   0  -5   1  172.78   11.70
  -1   5  -1 1098.19   67.69
   1  -5   1 1183.28   67.79
  -2   5  -1 2463.25  146.19
   2  -5   1 2466.15  145.19
   2  -5   1 2570.04  146.19
  -3   5  -1    8.30    2.10
   3  -5   1    5.70    1.80
  -4   5  -1 1682.03  102.69
   4  -5   1 1808.62  103.49
  -5   5  -1 2183.88  122.79
  -5   5  -1 1893.61  119.59
   5  -5   1 2049.29  121.09
  -6   5  -1    9.10    2.70
  -6   5  -1    9.70    4.10
   6  -5   1   10.10    3.60
  -7   5  -1  996.00   64.49
   7  -5   1 1185.68   70.69
  -8   5  -1  639.04   40.20
   8  -5   1  665.63   47.10
   9  -5   1   56.49    9.80
 -10   5  -1  451.45   31.20
  10  -5   1  554.64   38.00
   9   4  -1  695.33   47.00
  -9  -4   1  629.04   40.70
   8   4  -1    5.30    4.10
   8   4  -1    5.50    4.20
  -8  -4   1    5.10    4.30
  -8  -4   1    6.20    2.50
   7   4  -1 1179.68   68.89
   7   4  -1  879.81   69.09
  -7  -4   1 1153.68   64.99
  -7  -4   1 1054.89   67.59
   6   4  -1  529.45   34.10
   6   4  -1  452.95   35.20
  -6  -4   1  509.75   33.80
  -6  -4   1  486.65   31.10
   5   4  -1  216.58   17.40
   5   4  -1  227.68   19.90
   5   4  -1  278.47   19.00
  -5  -4   1  277.07   17.00
  -5  -4   1  249.78   18.70
   4   4  -1 1530.55   92.09
   4   4  -1 1465.75   94.29
  -4  -4   1 1638.84   91.49
  -4  -4   1 1538.25   92.89
   3   4  -1  183.08   13.20
   3   4  -1  173.98   14.90
  -3  -4   1  194.68   14.00
  -3  -4   1  198.98   12.90
   2   4  -1 2907.21  168.98
   2   4  -1 2732.13  167.08
  -2  -4   1 2949.80  166.98
   1   4  -1 4024.80  496.05
  -1  -4   1 4288.07  537.15
   0   4  -1  100.69    7.40
   0  -4   1   99.99    7.30
  -1   4  -1 5098.59  602.74
   1  -4   1 5261.17  600.74
   2  -4   1 2581.24  150.18
  -3   4  -1  931.21   56.79
   3  -4   1  983.90   57.29
  -4   4  -1 3744.73  225.18
   4  -4   1 3932.21  224.38
  -5   4  -1 1297.07   76.89
  -5   4  -1 1202.08   74.39
   5  -4   1 1280.77   76.19
  -6   4  -1  965.00   59.79
  -6   4  -1  995.40   62.99
   6  -4   1 1047.00   62.39
  -7   4  -1 2135.49  128.69
   7  -4   1 2248.88  132.09
  -8   4  -1   46.70    5.30
  -9   4  -1  531.05   36.90
  -9   4  -1  487.25   32.30
   9  -4   1  536.55   37.40
 -10   4  -1  363.66   28.50
 -10   4  -1  314.77   22.30
  10  -4   1  361.76   28.70
   9   3  -1   95.69   12.20
  -9  -3   1   99.49    8.40
  -9  -3   1   92.39   11.20
   8   3  -1  216.88   18.80
   8   3  -1  202.08   19.30
  -8  -3   1  212.08   17.90
  -8  -3   1  202.18   14.50
   7   3  -1  799.42   49.90
   7   3  -1  672.53   50.19
  -7  -3   1  781.22   46.10
   6   3  -1   20.20    5.50
  -6  -3   1   31.00    4.10
  -6  -3   1   25.40    5.50
   5   3  -1  726.13   49.30
  -5  -3   1  777.42   46.30
  -5  -3   1  793.72   48.50
   4   3  -1 1043.30   70.39
   4   3  -1 1102.29   68.59
  -4  -3   1 1237.58   69.99
  -4  -3   1 1207.48   68.09
   3   3  -1  248.48   18.30
   3   3  -1  250.47   16.70
  -3  -3   1  274.07   16.40
  -3  -3   1  251.37   17.50
   2   3  -1 3857.91  225.68
   1   3  -1  573.64   34.70
   1   3  -1  585.54   35.60
  -1  -3   1  581.14   34.60
   0   3  -1 2066.29  119.59
  -1   3  -1 8589.24  756.52
   1  -3   1 8068.39  734.63
  -2   3  -1 1403.66   81.59
   2  -3   1 1382.76   81.69
  -3   3  -1 1738.43  105.29
   3  -3   1 1819.02  104.79
  -4   3  -1 3254.17  202.58
   4  -3   1 3664.33  202.68
  -5   3  -1   55.19    6.60
   5  -3   1   64.29    6.80
  -6   3  -1 1989.20  122.29
   6  -3   1 2099.89  122.69
   7  -3   1  823.12   52.99
  -9   3  -1  634.34   44.90
   9  -3   1  704.43   46.70
 -10   3  -1   99.19   12.40
  10  -3   1  116.09   14.20
   9   2  -1   15.90    6.10
   9   2  -1   14.00    9.50
  -9  -2   1   11.50    2.90
  -9  -2   1    8.70    4.70
   8   2  -1  632.14   40.30
   8   2  -1  492.95   39.60
  -8  -2   1  570.34   38.70
  -8  -2   1  581.54   35.30
   7   2  -1   62.69    9.70
  -7  -2   1   72.99    6.10
  -7  -2   1   56.69    8.60
   6   2  -1  533.15   37.50
  -6  -2   1  592.84   34.40
  -6  -2   1  543.45   38.20
   5   2  -1 1359.96   88.29
  -5  -2   1 1496.05   85.69
  -5  -2   1 1506.15   87.99
   4   2  -1   23.90    3.10
   4   2  -1   22.80    4.30
  -4  -2   1   23.50    4.20
  -4  -2   1   24.40    2.70
   3   2  -1 2318.47  135.29
   3   2  -1 2217.18  136.69
  -3  -2   1 2424.86  136.49
   2   2  -1 1427.46   89.29
   2   2  -1 1576.14   88.19
  -2  -2   1 1577.54   88.09
  -2  -2   1 1451.15   88.89
   1   2  -1   40.30    3.90
   1   2  -1   41.40    3.20
  -1  -2   1   44.00    3.20
   0   2  -1 5026.40  403.76
   0  -2   1 4463.95  390.36
   1  -2   1 3363.36  358.56
  -2   2  -1  277.07   17.90
   2  -2   1  285.77   17.70
   3  -2   1 2725.43  159.38
  -4   2  -1 1305.07   77.89
   4  -2   1 1398.46   78.19
   4  -2   1 1201.48   77.79
  -5   2  -1  394.86   26.20
   5  -2   1  391.06   26.50
   5  -2   1  403.96   26.50
  -6   2  -1 1082.59   66.09
   6  -2   1 1129.69   66.79
   6  -2   1 1009.50   66.39
   7  -2   1   40.00    7.20
   7  -2   1   34.30    6.50
   8  -2   1  313.77   24.50
  -9   2  -1  368.06   28.00
  -9   2  -1  359.36   25.30
   9  -2   1  396.26   29.40
   9  -2   1  405.86   29.70
 -10   2  -1   20.30    4.60
 -10   2  -1   37.30    8.00
  10  -2   1   17.50    7.00
  10  -2   1   11.30    5.60
  10   1  -1   24.00   11.20
  10   1  -1   27.00    7.40
 -10  -1   1   23.70    3.70
 -10  -1   1   21.40    7.30
   9   1  -1  697.53   43.50
   9   1  -1  512.85   41.50
  -9  -1   1  621.74   41.30
  -9  -1   1  589.04   37.00
   8   1  -1  596.34   42.30
  -8  -1   1  630.04   37.80
   7   1  -1  272.27   21.90
  -7  -1   1  287.07   21.30
  -7  -1   1  296.67   18.60
   6   1  -1 1945.41  116.79
  -6  -1   1 1931.71  115.99
  -6  -1   1 1936.61  113.49
   5   1  -1  834.02   53.29
  -5  -1   1  889.51   53.09
  -5  -1   1  849.81   50.89
   4   1  -1 1618.24   93.59
  -4  -1   1 1483.65   91.49
  -4  -1   1 1608.14   93.29
   3   1  -1 6895.51  643.84
  -3  -1   1 7051.79  649.14
   2   1  -1  381.06   23.20
   2   1  -1  357.16   22.20
  -2  -1   1  387.86   22.20
   1   1  -1 3480.35  262.47
  -1  -1   1 3498.65  263.37
   0   1  -1 9999.00  623.74
   0  -1   1 9921.11  623.74
  -1   1  -1   18.30    1.90
  -1   1  -1   17.40    2.00
   1  -1   1   20.90    2.10
   2  -1   1 1698.03   99.49
  -3   1  -1 1581.94   94.49
   3  -1   1 1498.15   95.69
   3  -1   1 1720.13   94.89
  -4   1  -1   58.69    6.00
   4  -1   1   69.19    6.60
   4  -1   1   66.69    6.50
  -5   1  -1 1685.23  101.79
   5  -1   1 1766.82  102.39
   5  -1   1 1665.13  102.29
  -6   1  -1  170.18   13.60
   6  -1   1  168.38   14.10
   6  -1   1  165.28   14.10
   7  -1   1  323.47   24.20
  -8   1  -1  723.63   45.50
   8  -1   1  741.63   49.10
  -9   1  -1   14.90    3.60
  -9   1  -1   15.00    5.10
   9  -1   1   22.20    5.90
   9  -1   1   19.20    6.30
 -10   1  -1  381.96   26.50
  10  -1   1  361.46   30.80
  10  -1   1  482.85   41.40
  10   0  -1  149.69   15.30
 -10   0   1  119.99    9.30
 -10   0   1   98.59   12.70
   9   0  -1  929.41   67.89
  -9   0   1 1102.59   67.59
  -9   0   1 1127.19   63.59
   8   0  -1   50.59    8.70
  -8   0   1   47.20    4.80
   7   0  -1 1012.50   62.29
  -7   0   1  975.40   61.49
  -7   0   1  971.00   58.69
   6   0  -1 3049.89  175.18
  -6   0   1 3161.38  174.88
  -6   0   1 2680.43  172.08
   5   0  -1   46.20    5.80
  -5   0   1   59.09    6.00
  -5   0   1   41.60    4.10
   4   0  -1 5539.65  620.74
  -4   0   1 5094.29  603.34
   3   0  -1 6623.44  639.54
  -3   0   1 7031.90  656.33
   2   0  -1  297.77   18.30
  -2   0   1  292.37   18.20
   1   0  -1 9321.37  674.13
  -1   0  -1 2389.96  271.07
   1   0   1 2554.44  278.67
  -2   0  -1 5383.26  530.45
   2   0   1 5175.28  645.54
  -3   0  -1  653.13   40.10
   3   0   1  661.23   40.40
   3   0   1  658.43   40.30
  -4   0  -1 1698.23  100.09
   4   0   1 1733.73  100.49
   4   0   1 1623.34  100.49
  -5   0  -1 1260.17   80.19
  -5   0  -1 1372.16   81.59
   5   0   1 1340.27   82.19
   5   0   1 1440.56   82.19
  -6   0  -1  166.98   13.90
  -6   0  -1  165.18   12.50
   6   0   1  171.08   14.70
   6   0   1  193.88   14.80
  -7   0  -1 1182.08   70.29
   7   0   1 1135.29   81.29
  -8   0  -1  552.64   34.70
   8   0   1  528.05   38.20
  -9   0  -1  305.37   21.10
   9   0   1  296.77   25.10
 -10   0  -1  738.43   44.20
  10   0   1  626.64   48.70
  10  -1  -1  443.56   35.40
  10  -1  -1  568.64   37.60
 -10   1   1  465.05   29.20
 -10   1   1  493.05   34.60
 -10   1   1  468.35   30.20
   9  -1  -1  489.75   36.50
  -9   1   1  505.55   32.10
  -9   1   1  559.04   36.30
   8  -1  -1  102.89   10.90
  -8   1   1   87.99    7.30
   7  -1  -1 1258.47   82.29
  -7   1   1 1426.36   82.29
   6  -1  -1 1418.16   85.39
  -6   1   1 1393.16   84.89
   5  -1  -1  892.21   57.29
  -5   1   1  982.00   57.29
   4  -1  -1 5459.25  628.64
   3  -1  -1 1643.44   98.39
  -3   1   1 1703.93   98.39
   2  -1  -1  809.22   45.10
  -2   1   1  754.62   45.80
  -2   1   1  755.92   45.10
   1  -1  -1 5551.64  509.45
  -1   1   1 4973.90  490.25
   0  -1  -1   95.79    5.90
   0  -1  -1   80.89    6.00
   0   1   1   77.09    5.70
   0   1   1   88.69    6.10
  -1  -1  -1  819.02   48.30
  -1  -1  -1  830.42   48.60
   1   1   1  794.92   48.50
   1   1   1  776.32   48.30
   1   1   1  865.11   48.60
  -2  -1  -1 2105.69  128.99
  -2  -1  -1 2333.77  129.59
   2   1   1 2161.48  129.59
   2   1   1 2242.88  129.59
  -3  -1  -1  225.58   15.50
  -3  -1  -1  224.48   14.90
   3   1   1  225.28   15.80
   3   1   1  230.98   15.60
  -4  -1  -1 2498.55  142.79
  -4  -1  -1 2292.27  141.69
   4   1   1 2565.04  143.09
   4   1   1 2321.27  143.19
  -5  -1  -1  569.74   36.10
  -5  -1  -1  605.54   37.50
   5   1   1  545.95   37.80
   5   1   1  608.34   37.90
  -6  -1  -1  522.15   33.40
  -6  -1  -1  552.04   35.50
   6   1   1  515.05   35.90
  -7  -1  -1 1559.84   94.39
   7   1   1 1438.26   97.39
   7   1   1 1746.93   97.99
  -8  -1  -1   40.60    5.70
   8   1   1   31.10    7.30
   8   1   1   55.29    9.50
  -9  -1  -1  766.12   51.79
  -9  -1  -1  785.42   49.10
   9   1   1  882.31   54.59
   9   1   1  700.33   53.39
  10  -2  -1  589.84   45.10
 -10   2   1  734.03   45.70
 -10   2   1  649.43   39.50
 -10   2   1  657.53   40.60
   9  -2  -1   22.10    6.40
  -9   2   1   32.10    4.60
  -9   2   1   26.20    3.20
  -9   2   1   29.10    6.50
   8  -2  -1  549.95   38.20
  -8   2   1  559.34   40.20
  -8   2   1  575.64   34.10
   7  -2  -1 1491.05   94.69
  -7   2   1 1569.94   91.19
  -7   2   1 1608.24   94.69
   6  -2  -1   12.30    3.60
  -6   2   1   10.60    2.00
  -6   2   1   15.80    3.90
   5  -2  -1 1471.15   91.69
  -5   2   1 1606.94   89.59
  -5   2   1 1517.15   91.79
  -4   2   1 1206.68   70.99
  -4   2   1 1164.88   69.29
  -3   2   1  288.57   17.50
  -3   2   1  286.77   18.70
   2  -2  -1 1805.42  323.77
  -2   2   1 2017.00  343.27
   1  -2  -1 1098.49   62.69
   1  -2  -1 1055.79   62.69
  -1   2   1 1054.99   62.79
   0  -2  -1  159.38    9.80
   0  -2  -1  138.89    9.80
   0   2   1  151.48    9.90
   0   2   1  143.19    9.90
  -1  -2  -1   93.49    6.70
  -1  -2  -1   90.39    6.80
  -1  -2  -1   94.39    6.90
   1   2   1   81.59    6.70
   1   2   1   86.49    6.80
   1   2   1   98.89    7.30
  -2  -2  -1  413.96   24.90
  -2  -2  -1  422.66   24.50
   2   2   1  378.36   25.20
   2   2   1  399.76   24.80
   2   2   1  343.57   24.60
  -3  -2  -1 1488.25   83.29
  -3  -2  -1 1451.95   82.49
   3   2   1 1333.97   83.59
   3   2   1 1301.57   82.59
   3   2   1 1382.66   83.09
  -4  -2  -1 1604.54   95.69
  -4  -2  -1 1700.73   96.89
   4   2   1 1605.84   96.79
   4   2   1 1550.14   97.29
  -5  -2  -1    4.10    1.90
  -5  -2  -1    2.60    2.40
   5   2   1    4.30    2.70
   5   2   1    3.60    2.70
  -6  -2  -1 1569.84   96.99
  -6  -2  -1 1620.54   95.39
   6   2   1 1457.55   97.99
   6   2   1 1740.53   98.09
  -7  -2  -1  963.90   57.69
   7   2   1  836.72   60.79
   7   2   1 1012.10   61.09
  -8  -2  -1  195.68   16.80
  -8  -2  -1  196.78   15.90
   8   2   1  199.78   17.80
   8   2   1  161.88   17.60
  -9  -2  -1  578.24   40.60
  -9  -2  -1  599.14   37.80
   9   2   1  639.64   42.90
   9   2   1  508.15   42.60
 -10   3   1  403.26   26.20
 -10   3   1  456.95   31.90
  -9   3   1  197.68   17.50
  -9   3   1  195.88   13.20
  -8   3   1 1374.46   80.99
  -7   3   1  894.41   54.39
  -7   3   1  942.31   57.89
  -6   3   1  991.50   59.89
  -6   3   1  939.41   56.99
  -5   3   1 1578.54   91.09
  -5   3   1 1455.35   88.59
  -4   3   1  119.69    9.50
  -4   3   1  107.49    8.20
   3  -3  -1 1757.22   95.59
  -3   3   1 1510.75   95.39
   2  -3  -1  924.11   53.39
  -2   3   1  883.01   53.49
   1  -3  -1  339.47   20.30
   1  -3  -1  329.17   20.10
  -1   3   1  310.17   20.30
   0  -3  -1 1302.57   74.79
   0  -3  -1 1231.08   74.59
   0   3   1 1268.57   74.69
  -1  -3  -1 1827.42  102.99
  -1  -3  -1 1817.02  102.99
   1   3   1 1616.84  103.09
   1   3   1 1783.72  103.69
   1   3   1 1711.33  103.09
  -2  -3  -1  822.82   49.10
  -2  -3  -1  831.42   48.60
   2   3   1  804.92   48.90
   2   3   1  780.72   49.80
   2   3   1  782.72   48.90
  -3  -3  -1 3482.95  205.88
  -3  -3  -1 3626.84  206.68
   3   3   1 3525.25  207.68
   3   3   1 3221.58  206.18
   3   3   1 3776.02  206.88
  -4  -3  -1  186.48   13.20
  -4  -3  -1  177.58   14.00
   4   3   1  160.98   13.50
   4   3   1  181.98   15.00
   4   3   1  201.58   14.40
  -5  -3  -1 1573.14   95.89
  -5  -3  -1 1631.64   98.29
   5   3   1 1733.33   97.99
   5   3   1 1501.05   98.49
  -6  -3  -1 1489.05   88.09
   6   3   1 1597.94   90.89
   6   3   1 1309.07   91.09
  -7  -3  -1    4.20    2.40
   7   3   1    1.40    2.90
   7   3   1    3.40    3.80
  -8  -3  -1  614.54   41.40
  -8  -3  -1  613.04   38.60
   8   3   1  633.74   42.70
   8   3   1  529.15   42.80
   9   3   1  295.87   24.20
   9   3   1  205.58   22.50
 -10   4   1  100.39   12.40
 -10   4   1   96.59    7.80
  -9   4   1  571.74   36.80
  -9   4   1  653.93   42.20
  -8   4   1 1362.36   80.69
  -7   4   1    7.50    3.80
  -7   4   1    3.40    1.70
  -6   4   1 1996.00  115.89
  -6   4   1 1858.11  112.69
  -5   4   1  971.70   59.99
  -5   4   1 1058.19   62.69
  -4   4   1  260.67   16.70
  -3   4   1 2942.51  171.48
   2  -4  -1  588.74   34.30
   2  -4  -1  559.24   34.60
  -2   4   1  560.24   34.70
   1  -4  -1 2534.55  143.49
   1  -4  -1 2285.07  142.89
  -1   4   1 2545.25  143.69
   0  -4  -1 4119.69  236.88
   0   4   1 4035.00  236.98
  -1  -4  -1   47.30    4.70
   1   4   1   42.70    5.20
   1   4   1   39.00    4.30
   1   4   1   38.10    4.70
   2   4   1 6413.56  374.16
  -3  -4  -1 1577.44   91.09
  -3  -4  -1 1579.34   90.39
   3   4   1 1506.45   92.39
   3   4   1 1423.16   90.79
   3   4   1 1492.45   90.89
  -4  -4  -1  440.76   27.30
  -4  -4  -1  431.76   28.20
   4   4   1  430.36   28.40
   4   4   1  374.46   27.70
   4   4   1  412.36   29.60
  -5  -4  -1 2309.47  143.39
  -5  -4  -1 2415.06  142.09
   5   4   1 2471.05  144.09
   5   4   1 2423.76  148.69
   6   4   1  386.16   30.40
   6   4   1  420.26   29.50
  -7  -4  -1  254.67   18.30
  -7  -4  -1  232.28   19.80
   7   4   1  234.68   22.30
   7   4   1  275.67   21.50
  -8  -4  -1  505.95   34.30
   8   4   1  397.56   38.10
   8   4   1  519.35   46.00
 -10   5   1   39.70    8.90
 -10   5   1   30.60    4.40
  -9   5   1  623.24   41.80
  -9   5   1  789.02   48.00
  -8   5   1  435.46   30.70
  -8   5   1  401.16   26.20
  -7   5   1  415.36   27.70
  -7   5   1  345.27   23.60
  -6   5   1  827.92   50.79
  -6   5   1  735.53   46.80
  -5   5   1  164.38   13.40
  -5   5   1  139.29   10.50
   4  -5  -1 1569.14   89.69
  -4   5   1 1465.25   89.59
   3  -5  -1 1581.84   92.69
   3  -5  -1 1621.74   93.19
  -3   5   1 1527.55   93.19
   2  -5  -1  217.28   14.10
   2  -5  -1  227.08   14.80
  -2   5   1  213.68   14.90
   1  -5  -1 3418.16  207.58
  -1   5   1 3732.73  208.88
   0  -5  -1 1287.27   75.79
   0  -5  -1 1327.97   74.99
   0   5   1 1189.38   75.99
   0   5   1 1239.28   76.19
   0   5   1 1300.67   75.09
  -1  -5  -1 1167.28   70.19
   1   5   1 1177.08   70.69
   1   5   1 1144.09   69.89
   1   5   1 1192.88   71.19
  -2  -5  -1 2907.11  161.28
   2   5   1 2643.54  161.08
   2   5   1 2549.54  161.48
   2   5   1 2867.81  162.98
  -3  -5  -1  149.79   11.50
   3   5   1  148.49   12.20
   3   5   1  127.89   13.10
   3   5   1  149.09   11.90
  -4  -5  -1  636.74   39.90
  -4  -5  -1  653.03   40.90
   4   5   1  662.43   41.10
   4   5   1  626.44   42.70
   4   5   1  573.74   40.50
  -5  -5  -1 1375.46   79.89
   5   5   1 1297.07   83.59
   5   5   1 1273.87   80.99
  -6  -5  -1   72.09    7.70
  -6  -5  -1   76.29    8.90
   6   5   1   51.39    8.90
   6   5   1   64.19   11.20
  -7  -5  -1  488.75   34.30
   7   5   1  507.25   35.90
   7   5   1  465.45   37.40
  10  -6  -1  240.78   21.70
  -9   6   1  204.48   15.50
  -9   6   1  277.37   24.20
  -8   6   1   23.40    6.90
  -8   6   1   23.30    3.90
  -7   6   1  663.03   41.00
  -6   6   1  158.68   12.10
  -6   6   1  176.68   15.50
  -5   6   1  206.38   14.50
   4  -6  -1 1521.15   85.49
  -4   6   1 1349.36   85.29
   3  -6  -1    8.50    1.90
   3  -6  -1    6.60    2.40
  -3   6   1   10.70    2.80
   2  -6  -1 1263.87   72.99
   2  -6  -1 1146.59   71.69
  -2   6   1 1251.67   73.29
   1  -6  -1 1157.68   65.89
   1  -6  -1 1110.19   67.29
  -1   6   1 1080.89   67.59
   0  -6  -1    3.50    2.20
   0   6   1    2.80    1.40
   0   6   1    4.10    2.40
   0   6   1    1.60    2.00
  -1  -6  -1 1498.65   84.89
   1   6   1 1355.46   84.09
   1   6   1 1414.56   85.39
   1   6   1 1391.56   85.79
  -2  -6  -1  839.82   48.30
   2   6   1  735.93   48.70
   2   6   1  765.52   47.90
   2   6   1  754.52   49.80
  -3  -6  -1   47.00    6.30
   3   6   1   48.40    6.80
   3   6   1   35.10    6.30
   3   6   1   44.00    9.20
  -4  -6  -1  805.62   49.80
   4   6   1  822.62   50.89
   4   6   1  845.42   53.49
   4   6   1  713.33   50.49
  -5  -6  -1  374.76   24.70
   5   6   1  360.76   26.10
   5   6   1  338.07   25.80
   5   6   1  333.17   27.90
  -6  -6  -1   61.59    9.80
  -6  -6  -1   80.09    8.10
   6   6   1   63.19   11.20
   6   6   1   63.89    9.70
  -7  -6  -1  427.06   29.00
   7   6   1  424.76   34.60
   7   6   1  414.36   31.90
  -9   7   1   21.80    4.10
  -9   7   1   25.90    7.50
  -8   7   1  553.94   37.10
  -8   7   1  454.55   31.50
  -7   7   1  572.64   37.40
  -7   7   1  466.85   32.30
  -6   7   1   60.89    6.60
   5  -7  -1 1540.95   93.69
  -5   7   1 1623.84   94.49
   4  -7  -1  505.75   33.00
  -4   7   1  452.55   30.50
   3  -7  -1  363.76   23.20
  -3   7   1  386.36   25.00
   2  -7  -1 1179.88   70.19
  -2   7   1 1219.18   72.69
   1  -7  -1  307.87   20.90
  -1   7   1  299.67   21.20
   0  -7  -1  514.25   33.50
   0   7   1  515.75   34.20
   0   7   1  529.55   31.40
   0   7   1  525.85   34.20
  -1  -7  -1 1511.75   89.49
   1   7   1 1504.25   88.29
   1   7   1 1475.25   90.19
   1   7   1 1449.95   90.69
  -2  -7  -1   81.59    8.10
   2   7   1   80.39    7.60
   2   7   1   74.79    9.40
  -3  -7  -1  427.26   28.50
   3   7   1  389.86   26.40
   3   7   1  394.36   29.30
   3   7   1  350.06   27.10
   4   7   1  631.84   44.10
   4   7   1  671.53   46.60
   4   7   1  701.63   43.90
  -5  -7  -1   18.20    4.60
   5   7   1   10.90    5.60
   5   7   1   12.80    4.70
   5   7   1   15.50    4.80
  -6  -7  -1  307.37   22.40
   6   7   1  304.77   24.40
   6   7   1  298.87   27.00
   9  -8  -1   66.99   10.60
  -9   8   1   55.29    7.50
  -8   8   1  752.92   50.39
  -8   8   1  892.51   56.79
  -7   8   1  129.29   11.60
  -7   8   1  157.48   15.90
   6  -8  -1  501.55   32.80
  -6   8   1  544.75   34.10
   5  -8  -1 1502.25   89.99
  -5   8   1 1536.55   91.49
   4  -8  -1    8.30    2.10
   4  -8  -1   11.10    3.50
  -4   8   1   12.20    3.60
   3  -8  -1 1106.09   61.89
   3  -8  -1  926.31   58.79
  -3   8   1  999.70   61.89
   2  -8  -1 1754.72  101.19
  -2   8   1 1619.34  101.49
  -1   8   1    2.60    2.60
   0   8   1 1416.36   88.49
   0   8   1 1486.05   88.69
   1   8   1  562.94   37.70
   1   8   1  581.24   34.70
   1   8   1  542.05   38.00
  -2  -8  -1  153.08   12.70
   2   8   1  128.59   13.20
   2   8   1  147.59   11.70
   2   8   1  179.18   15.30
  -3  -8  -1 1027.90   61.09
   3   8   1  935.81   61.99
   3   8   1  958.20   63.99
   3   8   1  973.80   60.39
  -4  -8  -1   70.19    8.20
   4   8   1   64.59    8.00
   4   8   1   55.69    8.70
   4   8   1   63.39   11.30
  -5  -8  -1  326.77   25.30
   5   8   1  319.27   24.30
   5   8   1  311.57   24.80
   8  -9  -1  430.36   29.00
  -8   9   1  368.86   27.20
   7  -9  -1    1.80    2.00
   7  -9  -1    8.80    3.70
  -7   9   1    2.40    4.20
  -7   9   1    2.20    2.60
   6  -9  -1  639.54   44.10
   6  -9  -1  841.32   45.80
  -6   9   1  698.83   46.10
   5  -9  -1  542.65   32.40
  -5   9   1  486.15   34.10
   4  -9  -1   91.79    9.00
  -4   9   1   85.59    9.20
   3  -9  -1  976.80   58.59
  -3   9   1  902.21   58.79
   2  -9  -1  513.45   32.90
  -2   9   1  473.75   33.20
  -1   9   1  270.97   20.40
  -1   9   1  257.17   20.10
   0  -9  -1  960.30   58.09
   0   9   1  914.81   58.89
   0   9   1  897.41   58.89
  -1  -9  -1   70.39    7.70
   1   9   1   41.10    8.00
   1   9   1   62.89    9.00
  -2  -9  -1  399.46   28.80
   2   9   1  428.66   31.60
   2   9   1  437.66   26.90
   2   9   1  404.86   30.10
  -3  -9  -1  516.95   34.60
   3   9   1  528.75   44.20
   3   9   1  469.55   35.40
   3   9   1  519.15   33.10
  -4  -9  -1   50.59    7.50
   4   9   1   41.00   11.20
   4   9   1   63.09    7.40
   6 -10  -1  416.56   28.00
   6 -10  -1  444.36   27.10
  -6  10   1  401.96   29.30
  -5  10   1    3.80    3.40
   4 -10  -1  212.28   19.20
  -4  10   1  204.38   16.90
   3 -10  -1  441.56   30.90
  -3  10   1  405.46   29.50
   2 -10  -1    6.40    5.10
  -2  10   1    6.70    3.90
   1 -10  -1  323.97   25.70
  -1  10   1  345.37   25.60
  -1  10   1  356.86   25.70
   0 -10  -1  174.28   14.60
   0  10   1  166.48   15.50
   0  10   1  158.98   15.20
  -1 -10  -1   80.89    9.10
   1  10   1   68.39   10.50
  -2 -10  -1  408.46   27.90
   2  10   1  407.26   30.60
   2  10   1  387.76   24.60
   2  10   1  336.17   28.40
  -4  11   1  342.27   25.70
   3 -11  -1   77.09   13.60
  -3  11   1   47.00    8.30
  -2  11   1  260.57   22.10
  -2  11   1  299.37   22.60
  -1  11   1  222.78   20.10
  -1  11   1  258.97   20.60
   1  11  -2  479.35   37.10
  -1 -11   2  552.34   35.50
   0  11  -2  172.78   15.80
   0 -11   2  165.08   14.40
  -1  11  -2  106.89   11.50
  -1  11  -2  113.79   12.10
  -2  11  -2  449.26   31.40
  -3  11  -2   90.59   11.80
  -4  11  -2  301.77   26.00
  -5  11  -2  369.26   26.80
   3  10  -2   16.10    5.10
   3  10  -2    9.90    6.10
   2  10  -2  335.47   26.60
   2  10  -2  307.57   24.30
  -2 -10   2  351.76   24.00
   1  10  -2  318.47   24.80
   1  10  -2  331.77   26.20
  -1 -10   2  386.26   24.90
   0  10  -2   -5.20    2.00
   0  10  -2   -0.60    2.70
   0 -10   2    2.00    2.60
  -1  10  -2  484.45   32.80
  -2  10  -2  276.17   20.60
  -3  10  -2  135.49   12.20
  -4  10  -2  488.55   32.90
  -5  10  -2    8.00    3.60
  -6  10  -2  328.97   22.90
   6 -10   2  299.07   20.40
  -7  10  -2  216.58   21.00
   7 -10   2  237.98   17.70
   5   9  -2  683.33   42.60
   5   9  -2  639.04   47.90
   5   9  -2  585.34   43.20
  -5  -9   2  694.93   42.40
   4   9  -2  145.19   13.80
   4   9  -2  159.28   12.50
   4   9  -2  154.38   16.70
  -4  -9   2  163.38   13.30
   3   9  -2  192.78   16.90
   3   9  -2  209.38   14.40
   3   9  -2  209.38   19.10
  -3  -9   2  226.58   16.30
   2   9  -2  871.31   57.29
   2   9  -2  833.32   54.99
  -2  -9   2  914.01   55.29
   1   9  -2   20.20    5.00
   1   9  -2   36.00    7.10
   0   9  -2  711.73   46.80
   0   9  -2  733.63   46.10
  -1   9  -2  417.76   28.20
  -2   9  -2  170.48   13.80
  -3   9  -2  981.40   60.69
  -4   9  -2   74.49    8.10
  -5   9  -2  220.48   16.40
   5  -9   2  204.78   14.50
  -6   9  -2  514.15   35.60
  -6   9  -2  610.44   40.80
   6  -9   2  540.65   35.60
  -7   9  -2   30.80    8.40
  -7   9  -2   23.50    4.80
   7  -9   2   16.40    4.60
  -8   9  -2  217.78   17.60
   8  -9   2  240.58   19.70
   6   8  -2  339.07   26.30
   6   8  -2  320.27   29.70
   6   8  -2  420.86   27.20
  -6  -8   2  350.26   24.70
   5   8  -2  639.34   44.90
   5   8  -2  673.53   49.30
   5   8  -2  756.62   45.20
   4   8  -2   -2.60    3.10
   4   8  -2   -0.30    2.20
   4   8  -2    1.50    2.00
  -4  -8   2    1.60    2.20
   3   8  -2 1266.67   74.49
   3   8  -2 1075.09   78.69
   3   8  -2 1244.18   79.09
  -3  -8   2 1357.46   75.59
   2   8  -2  546.15   35.60
   2   8  -2  531.25   37.40
   2   8  -2  537.45   32.80
   2   8  -2  540.55   33.90
  -2  -8   2  578.24   35.20
   1   8  -2  342.87   23.70
   1   8  -2  334.97   26.50
  -1  -8   2  353.06   23.30
   0   8  -2 1281.47   82.19
   0  -8   2 1446.96   82.19
  -1   8  -2    9.10    3.30
   1  -8   2   12.90    3.30
  -2   8  -2  791.62   49.10
  -3   8  -2  918.51   59.49
  -4   8  -2   18.60    4.00
  -5   8  -2 1067.99   66.59
   5  -8   2 1115.29   66.69
  -6   8  -2  892.41   55.99
  -6   8  -2  788.32   51.49
   6  -8   2  825.12   52.59
  -7   8  -2   41.60    9.00
  -7   8  -2   34.40    5.70
   7  -8   2   43.90    7.50
  -8   8  -2  832.92   54.89
  -8   8  -2  715.13   49.30
   8  -8   2  839.02   52.59
   7   7  -2   -5.00    4.80
   7   7  -2    2.70    3.00
  -7  -7   2   10.00    3.10
   6   7  -2  597.94   41.80
   6   7  -2  649.74   42.60
   6   7  -2  612.24   46.20
  -6  -7   2  674.13   40.40
   5   7  -2  258.77   20.00
   5   7  -2  286.77   20.40
   5   7  -2  274.37   23.90
  -5  -7   2  267.97   18.90
   4   7  -2  158.68   16.70
   4   7  -2  168.48   13.90
   4   7  -2  182.18   13.70
  -4  -7   2  177.38   14.00
   3   7  -2  913.31   58.09
   3   7  -2 1004.00   57.39
   3   7  -2  849.02   65.09
  -3  -7   2  969.60   57.59
   2   7  -2    0.50    2.60
   2   7  -2    9.40    2.10
   2   7  -2   -1.50    1.70
  -2  -7   2    2.90    2.10
   1   7  -2  731.23   48.90
   1   7  -2  777.82   47.90
  -1  -7   2  813.32   47.70
   0   7  -2  975.40   60.59
   0  -7   2 1020.50   60.39
  -1   7  -2   17.80    3.70
   1  -7   2   28.50    4.40
  -2   7  -2 1271.07   76.19
  -3   7  -2  988.00   55.69
   3  -7   2  845.82   53.89
  -4   7  -2  254.37   17.70
   4  -7   2  256.27   17.60
  -5   7  -2 2016.40  123.09
   5  -7   2 2143.39  124.09
  -6   7  -2  292.47   20.80
   6  -7   2  313.47   22.30
  -7   7  -2  484.95   32.70
  -7   7  -2  543.95   37.00
  -8   7  -2  972.10   59.99
   8  -7   2  976.00   64.39
  -9   7  -2   10.30    6.40
  -9   7  -2   16.10    4.00
   9  -7   2   18.70    6.50
   7   6  -2  279.67   22.00
   7   6  -2  240.58   24.00
  -7  -6   2  287.67   21.90
   6   6  -2  454.45   33.60
   6   6  -2  529.85   35.00
   6   6  -2  482.35   37.90
  -6  -6   2  562.34   32.60
  -6  -6   2  504.35   35.00
   5   6  -2   21.90    6.50
   5   6  -2   22.40    5.00
   5   6  -2   28.10    5.30
  -5  -6   2   36.10    5.00
   4   6  -2  593.54   40.90
   4   6  -2  530.15   37.10
   4   6  -2  632.74   37.80
  -4  -6   2  594.94   36.50
   3   6  -2  195.88   15.00
   3   6  -2  223.38   15.00
   3   6  -2  226.68   18.00
  -3  -6   2  203.08   14.60
   2   6  -2  377.06   22.20
   2   6  -2  348.07   23.00
   2   6  -2  313.87   24.50
  -2  -6   2  351.46   22.60
   1   6  -2 1168.28   72.49
   1   6  -2 1234.58   70.99
   1   6  -2 1193.28   70.89
   1   6  -2 1210.08   73.79
  -1  -6   2 1258.37   72.39
   0   6  -2  107.29    8.90
   0  -6   2  124.89    9.10
  -1   6  -2  820.62   49.70
  -2   6  -2 2385.86  138.29
   2  -6   2 2325.17  136.59
  -3   6  -2   41.30    4.80
   3  -6   2   47.90    4.70
  -4   6  -2 1182.48   72.39
   4  -6   2 1238.58   73.09
  -5   6  -2 1548.05   90.19
  -5   6  -2 1414.26   86.99
   5  -6   2 1432.36   88.29
  -6   6  -2   29.20    4.70
  -6   6  -2   32.30    7.00
   6  -6   2   29.60    5.90
  -7   6  -2  822.72   52.29
   7  -6   2  852.31   54.29
  -8   6  -2  340.07   25.60
  -8   6  -2  295.47   21.20
  -9   6  -2   85.39    8.70
  -9   6  -2  115.59   13.40
   9  -6   2   93.59   12.40
   8   5  -2  166.98   16.10
   8   5  -2  128.69   18.80
  -8  -5   2  155.28   11.60
  -8  -5   2  161.18   15.00
   7   5  -2  637.54   51.59
   7   5  -2  837.62   50.69
  -7  -5   2  757.82   49.60
  -7  -5   2  785.02   46.40
   6   5  -2   19.60    4.20
   6   5  -2   13.10    5.80
  -6  -5   2   18.60    3.30
   5   5  -2  920.41   57.49
   5   5  -2  874.91   60.79
  -5  -5   2 1006.10   56.49
  -5  -5   2  931.21   58.49
   4   5  -2 1039.90   67.49
   4   5  -2  995.20   64.29
  -4  -5   2 1127.89   65.79
  -4  -5   2 1103.49   63.79
   3   5  -2  252.47   19.50
   3   5  -2  252.97   17.10
  -3  -5   2  253.47   16.60
   2   5  -2 2404.16  139.79
   2   5  -2 2314.07  141.69
  -2  -5   2 2429.26  139.49
   1   5  -2 1197.48   71.39
   1   5  -2 1200.48   72.49
  -1  -5   2 1209.58   71.29
   0   5  -2  917.61   55.59
   0   5  -2  901.11   54.19
   0  -5   2  977.30   55.59
  -1   5  -2 2693.03  157.28
  -2   5  -2  973.90   56.39
   2  -5   2  913.11   55.89
  -3   5  -2 1402.56   81.09
   3  -5   2 1333.87   81.39
  -4   5  -2 2228.68  131.49
  -4   5  -2 2298.37  133.79
   4  -5   2 2198.88  132.49
  -5   5  -2   86.89    9.30
  -5   5  -2   89.49    7.40
   5  -5   2   79.89    8.40
  -6   5  -2  952.40   56.99
  -6   5  -2  859.41   53.79
   6  -5   2  863.61   55.99
  -7   5  -2  613.44   39.00
   7  -5   2  642.64   42.10
  -8   5  -2   19.00    6.00
  -9   5  -2  302.47   21.60
  -9   5  -2  306.27   25.60
   9  -5   2  373.86   27.20
   9   4  -2   14.00    6.20
   9   4  -2    0.70    3.80
  -9  -4   2   -3.20    3.50
  -9  -4   2    2.60    1.80
   8   4  -2  568.84   44.00
   8   4  -2  705.73   43.80
  -8  -4   2  598.64   41.90
  -8  -4   2  614.54   37.90
   7   4  -2  576.24   43.10
  -7  -4   2  627.54   41.10
  -7  -4   2  630.94   37.60
  -6  -4   2  404.26   28.50
  -6  -4   2  420.36   25.90
   5   4  -2 1824.62  113.79
   5   4  -2 1773.72  110.59
  -5  -4   2 1943.41  109.69
  -5  -4   2 1927.21  112.09
   4   4  -2  414.46   27.80
   4   4  -2  466.45   30.80
  -4  -4   2  436.76   29.00
  -4  -4   2  461.85   27.30
   3   4  -2 2102.79  123.29
   3   4  -2 1933.81  125.49
  -3  -4   2 2244.18  122.99
  -3  -4   2 2116.79  124.39
   2   4  -2 3572.74  208.28
   2   4  -2 3522.15  206.38
   1   4  -2   96.79    7.40
   1   4  -2  118.59    8.60
  -1  -4   2   98.79    7.30
   0   4  -2 3439.46  199.48
   1  -4   2 5769.42  599.04
   1  -4   2 5787.82  571.74
  -2   4  -2    8.30    1.80
   2  -4   2    9.70    2.10
   3  -4   2 3367.56  196.88
  -4   4  -2 1174.68   71.69
   4  -4   2 1181.98   71.29
  -5   4  -2  695.83   42.80
   5  -4   2  640.44   42.30
  -6   4  -2 1350.46   81.79
   6  -4   2 1312.37   81.69
  -7   4  -2   71.99    9.00
   7  -4   2   76.09    9.30
  -8   4  -2  636.84   43.00
  -9   4  -2  371.66   38.10
   9  -4   2  456.85   32.70
  10  -4   2    1.20    4.40
   9   3  -2  180.38   17.00
   9   3  -2  146.59   16.60
  -9  -3   2  166.08   11.10
  -9  -3   2  156.88   15.40
   8   3  -2  483.05   38.10
  -8  -3   2  558.24   37.10
  -8  -3   2  550.44   32.60
   7   3  -2    6.60    4.50
  -7  -3   2    9.00    2.10
  -7  -3   2    8.60    5.40
   6   3  -2 1035.60   73.79
  -6  -3   2 1232.48   73.29
  -6  -3   2 1270.97   70.09
   5   3  -2 1502.15   92.69
   5   3  -2 1480.85   95.39
  -5  -3   2 1642.64   92.09
  -5  -3   2 1650.33   94.69
   4   3  -2    3.70    1.50
   4   3  -2    4.20    2.50
  -4  -3   2    4.70    2.40
  -4  -3   2    2.40    1.10
   3   3  -2 2856.61  166.78
   3   3  -2 2711.23  168.58
  -3  -3   2 2994.40  166.48
  -3  -3   2 2889.31  167.88
   2   3  -2 2968.00  168.58
   2   3  -2 2840.72  170.08
  -2  -3   2 2887.51  169.38
   1   3  -2  121.49    8.20
   1   3  -2  118.29    9.00
  -1  -3   2  127.39    8.10
   0  -3   2 5518.65  444.96
   0  -3   2 5624.84  472.95
   1  -3   2 2759.12  160.68
  -2   3  -2 2358.36  129.59
   2  -3   2 2070.79  129.79
  -3   3  -2 2711.13  158.18
   3  -3   2 2678.53  158.08
  -4   3  -2  361.66   24.80
   4  -3   2  394.36   25.10
  -5   3  -2 1136.29   67.99
   5  -3   2 1087.59   68.09
  -6   3  -2  675.33   42.80
   6  -3   2  650.93   43.10
  -7   3  -2   69.99    8.50
   7  -3   2   61.59    9.20
  -8   3  -2  956.70   55.69
   8  -3   2  721.53   57.39
  -9   3  -2  273.47   27.30
   9  -3   2  279.77   23.70
  10  -3   2  279.87   29.30
  10   2  -2   22.60    7.50
   9   2  -2  422.66   35.70
  -9  -2   2  530.05   35.90
  -9  -2   2  523.15   30.10
   8   2  -2  199.68   19.40
  -8  -2   2  247.88   19.20
  -8  -2   2  246.58   15.10
   7   2  -2  352.86   27.20
  -7  -2   2  372.76   22.50
  -7  -2   2  369.56   26.20
   6   2  -2 1353.26   86.19
  -6  -2   2 1456.95   82.49
  -6  -2   2 1405.86   85.69
   5   2  -2  437.06   30.70
  -5  -2   2  453.05   30.40
  -5  -2   2  499.15   29.10
   4   2  -2 1631.84   99.69
   4   2  -2 1586.84   97.59
  -4  -2   2 1714.43   99.49
  -4  -2   2 1748.33   97.29
   3   2  -2 3491.25  204.08
   2   2  -2  894.81   56.49
   2   2  -2  986.60   55.29
  -2  -2   2  936.41   56.19
  -2  -2   2  958.20   55.19
   1   2  -2 1635.94   95.79
   0   2  -2 1634.14  100.59
   0  -2   2 1806.12  100.49
  -1   2  -2    4.70    1.40
   1  -2   2    2.70    1.20
  -2   2  -2 1880.41  106.39
  -2   2  -2 1743.53  106.09
   2  -2   2 1803.02  106.59
  -3   2  -2  654.13   40.10
   3  -2   2  670.73   40.60
   3  -2   2  644.14   40.20
  -4   2  -2  148.19   10.90
   4  -2   2  128.09   10.80
   4  -2   2  140.49   11.20
  -5   2  -2 1387.36   80.89
   5  -2   2 1324.67   81.39
   5  -2   2 1304.37   81.19
  -6   2  -2  127.09   11.30
   6  -2   2  137.59   12.00
   6  -2   2  118.79   11.70
  -7   2  -2  480.15   33.00
   7  -2   2  478.65   36.10
   7  -2   2  505.65   34.20
  -8   2  -2  792.32   49.80
   8  -2   2  794.02   51.19
   8  -2   2  697.43   50.39
  -9   2  -2    5.80    3.00
   9  -2   2   -0.60    4.10
   9  -2   2    7.60    4.40
  10  -2   2  567.24   42.00
 -10  -1   2  479.15   34.80
   9   1  -2  860.81   58.39
  -9  -1   2  908.81   57.49
   8   1  -2    1.00    2.90
  -8  -1   2    2.70    1.40
   7   1  -2 1839.22  114.69
  -7  -1   2 1947.41  114.19
   6   1  -2 1396.06   90.29
  -6  -1   2 1509.15   90.09
  -6  -1   2 1556.24   86.99
   5   1  -2  322.47   22.60
  -5  -1   2  345.97   22.50
  -5  -1   2  329.17   19.80
   4   1  -2 4714.83  271.57
  -4  -1   2 4598.04  271.27
   3   1  -2  460.05   30.10
  -3  -1   2  511.95   30.20
  -3  -1   2  492.35   28.40
   2   1  -2  870.11   49.99
   2   1  -2  898.31   51.09
  -2  -1   2  815.22   50.89
   1   1  -2 3043.70  273.97
  -1  -1   2 3373.66  276.87
   0   1  -2  472.55   28.80
   0  -1   2  470.55   28.70
  -1   1  -2  980.90   61.29
  -1   1  -2 1106.69   60.49
   1  -1   2  988.00   61.29
   1  -1   2 1043.40   60.49
  -2   1  -2  926.71   53.09
  -2   1  -2  839.62   53.49
   2  -1   2  890.71   53.09
   2  -1   2  909.01   53.79
  -3   1  -2   55.09    5.10
   3  -1   2   52.69    5.40
  -4   1  -2 2564.14  149.79
   4  -1   2 2510.05  150.38
   4  -1   2 2563.24  150.28
  -5   1  -2  535.45   33.20
   5  -1   2  503.35   33.70
   5  -1   2  499.75   33.60
  -6   1  -2  355.46   24.80
   6  -1   2  370.06   27.20
   6  -1   2  353.46   25.70
  -7   1  -2 1219.88   78.49
  -7   1  -2 1398.36   80.59
   7  -1   2 1305.37   81.59
  -8   1  -2  195.18   16.90
  -8   1  -2  232.28   17.90
   8  -1   2  203.38   18.50
  -9   1  -2  360.26   26.60
  -9   1  -2  280.27   22.10
   9  -1   2  392.16   28.00
   9  -1   2  283.87   25.80
  10  -1   2  536.35   40.70
  10   0  -2  917.71   64.09
 -10   0   2 1027.00   63.49
   9   0  -2  376.26   30.10
  -9   0   2  449.16   30.10
  -9   0   2  410.06   24.50
   8   0  -2  577.04   39.90
  -8   0   2  601.34   40.10
   7   0  -2 2476.85  149.19
  -7   0   2 2426.76  150.98
  -7   0   2 2575.74  145.29
   6   0  -2  415.56   27.40
  -6   0   2  403.46   27.00
  -6   0   2  394.56   24.10
   5   0  -2 1890.11  110.19
  -5   0   2 1909.41  110.09
  -5   0   2 1767.62  107.49
   4   0  -2 2595.54  149.99
  -4   0   2 2662.93  149.99
  -4   0   2 2454.35  147.79
  -4   0   2 2521.95  147.69
   3   0  -2   58.89    5.00
  -3   0   2   56.49    5.00
   2   0  -2 2892.61  353.36
  -2   0   2 2550.54  332.87
   1   0  -2 4019.30  390.36
  -1   0   2 2806.62  404.46
   0   0  -2  460.65   27.20
   0   0  -2  423.96   28.50
   0   0   2  475.15   28.60
   0   0   2  493.85   27.30
  -1   0  -2 6649.13  633.64
   1   0   2 6764.22  636.24
  -2   0  -2  293.37   20.60
  -2   0  -2  325.07   20.10
   2   0   2  352.46   20.40
   2   0   2  300.97   20.70
  -3   0  -2 3008.40  171.98
   3   0   2 2913.91  172.58
   3   0   2 2892.51  172.28
  -4   0  -2 3247.88  205.58
  -4   0  -2 3629.84  206.48
   4   0   2 3699.03  207.18
   4   0   2 3522.55  206.88
  -5   0  -2   16.20    3.50
  -5   0  -2   19.00    4.30
   5   0   2   17.60    4.20
   5   0   2   21.70    4.60
  -6   0  -2 1560.74   97.49
  -6   0  -2 1647.04   99.89
   6   0   2 1740.33  100.19
   6   0   2 1607.24   99.89
  -7   0  -2 1151.38   74.39
  -7   0  -2 1336.57   76.49
   7   0   2 1212.08   77.49
  -8   0  -2   45.30    7.90
  -8   0  -2   54.69    6.50
   8   0   2   55.59    9.70
   8   0   2   41.50    8.20
  -9   0  -2  999.20   62.69
  -9   0  -2  948.11   59.99
   9   0   2 1100.79   65.59
   9   0   2  823.32   63.39
  10  -1  -2  693.23   48.70
 -10   1   2  767.52   48.50
 -10   1   2  695.93   41.80
 -10   1   2  708.73   43.20
   9  -1  -2    5.60    4.30
  -9   1   2   14.20    4.70
  -9   1   2    7.20    1.40
  -9   1   2    7.60    1.90
   8  -1  -2  847.42   53.69
  -8   1   2  811.12   48.70
  -8   1   2  832.32   49.50
  -8   1   2  838.12   53.19
   7  -1  -2 1269.87   77.59
  -7   1   2 1282.97   79.39
  -7   1   2 1239.08   73.49
   6  -1  -2    5.20    2.80
  -6   1   2    7.20    1.10
  -6   1   2    6.30    2.80
   5  -1  -2 1936.91  115.79
  -5   1   2 2014.00  115.79
  -5   1   2 1912.11  113.19
   4  -1  -2 1027.70   63.89
  -4   1   2 1101.69   62.19
  -4   1   2 1070.49   63.99
   3  -1  -2  160.68   11.70
   3  -1  -2  182.98   10.70
  -3   1   2  178.08   11.90
  -3   1   2  185.28   10.90
   2  -1  -2 5967.90  641.34
  -2   1   2 6300.57  658.03
   1  -1  -2  735.63   42.00
   1  -1  -2  689.43   41.40
  -1   1   2  740.63   42.00
  -1   1   2  641.24   41.40
   0  -1  -2 3412.46  466.45
   0   1   2 3905.41  495.25
  -1  -1  -2 2182.68  129.29
  -1  -1  -2 2353.56  128.79
   1   1   2 2260.47  128.59
   1   1   2 2110.99  129.09
   1   1   2 2089.79  128.59
  -2  -1  -2  134.39   10.30
  -2  -1  -2  130.49    9.50
  -2  -1  -2  127.09    9.50
   2   1   2  134.79    9.80
   2   1   2  125.49   10.00
  -3  -1  -2 4164.08  250.17
  -3  -1  -2 4599.64  250.77
   3   1   2 4124.29  250.87
  -4  -1  -2 1508.05   85.19
  -4  -1  -2 1336.27   84.19
   4   1   2 1452.75   85.69
   4   1   2 1366.16   85.49
  -5  -1  -2  407.06   27.60
  -5  -1  -2  469.65   29.00
   5   1   2  443.46   29.50
   5   1   2  399.86   29.20
  -6  -1  -2 2341.77  142.19
  -6  -1  -2 2446.16  143.59
   6   1   2 2186.78  144.29
   6   1   2 2653.03  145.09
  -7  -1  -2  533.35   34.00
  -7  -1  -2  524.95   35.40
   7   1   2  551.34   36.90
   7   1   2  475.25   36.30
  -8  -1  -2  395.06   27.80
  -8  -1  -2  425.96   30.10
   8   1   2  398.06   31.40
   8   1   2  446.46   31.90
  -9  -1  -2  629.04   42.70
  -9  -1  -2  578.64   40.90
   9   1   2  696.03   45.70
   9   1   2  571.84   47.30
 -10   2   2  186.88   12.80
 -10   2   2  212.48   13.20
 -10   2   2  197.18   17.80
  -9   2   2  186.68   15.80
  -9   2   2  151.88   12.20
  -9   2   2  175.58   11.60
   8  -2  -2  860.61   58.39
  -8   2   2  997.30   58.89
  -8   2   2  909.71   54.19
   7  -2  -2  326.57   24.40
  -7   2   2  355.16   21.20
  -7   2   2  370.56   27.90
  -6   2   2  636.14   38.60
  -6   2   2  674.23   41.50
  -5   2   2  864.41   52.09
  -5   2   2  915.41   54.39
  -4   2   2   15.10    3.10
  -4   2   2   11.40    1.70
  -3   2   2 1446.36   84.59
  -3   2   2 1413.36   83.49
   2  -2  -2  647.34   38.30
   2  -2  -2  632.24   37.60
  -2   2   2  620.04   37.70
   1  -2  -2 1150.98   69.39
   1  -2  -2 1196.38   68.99
  -1   2   2 1166.48   69.09
   0  -2  -2 2523.65  151.08
   0   2   2 2634.04  151.38
  -1  -2  -2 1136.39   64.89
  -1  -2  -2 1188.68   64.79
  -1  -2  -2 1045.10   65.19
   1   2   2  979.70   64.79
   1   2   2 1061.79   65.29
   1   2   2 1115.19   64.99
  -2  -2  -2 1001.10   64.19
  -2  -2  -2 1052.09   64.29
  -2  -2  -2 1107.29   64.99
   2   2   2 1116.29   64.99
   2   2   2 1119.59   64.99
   2   2   2 1052.09   64.49
  -3  -2  -2 2776.52  164.98
  -3  -2  -2 2847.02  164.78
   3   2   2 2892.31  165.78
   3   2   2 2720.63  165.68
  -4  -2  -2   43.40    5.30
  -4  -2  -2   55.59    6.00
   4   2   2   46.30    6.10
   4   2   2   40.90    6.50
  -5  -2  -2 1114.39   70.79
  -5  -2  -2 1199.78   71.99
   5   2   2 1145.69   72.99
   5   2   2 1231.88   72.89
  -6  -2  -2 1394.06   86.19
  -6  -2  -2 1490.75   87.79
   6   2   2 1511.25   88.89
   6   2   2 1313.97   92.69
  -7  -2  -2    2.80    2.40
  -7  -2  -2    0.00    2.60
   7   2   2    2.10    3.30
   7   2   2    9.70    4.50
  -8  -2  -2  527.45   33.30
  -8  -2  -2  528.75   38.50
   8   2   2  418.36   36.20
   8   2   2  526.15   37.10
  -9  -2  -2  256.77   19.60
   9   2   2  230.78   22.70
   9   2   2  276.17   29.80
 -10   3   2   -6.40    3.10
 -10   3   2    0.40    1.20
 -10   3   2    4.10    2.00
  -9   3   2  661.43   42.90
  -9   3   2  817.42   48.80
  -8   3   2  578.44   36.70
  -8   3   2  502.15   32.00
  -7   3   2  450.55   29.20
  -7   3   2  391.16   25.20
  -6   3   2 1609.34   99.29
  -6   3   2 1800.02  102.39
  -5   3   2   43.20    6.00
   4  -3  -2 1095.49   62.49
  -4   3   2 1027.00   62.59
  -4   3   2 1057.29   64.29
   3  -3  -2 1436.16   81.19
  -3   3   2 1330.97   81.39
   2  -3  -2  201.38   12.90
   2  -3  -2  205.08   13.20
  -2   3   2  171.58   15.10
   1  -3  -2 4521.05  639.84
  -1   3   2 4376.76  634.84
   0  -3  -2 1861.11  117.49
   0  -3  -2 2031.80  117.19
   0   3   2 1955.80  117.29
   0   3   2 2084.09  117.69
   0   3   2 2045.20  117.49
  -1  -3  -2  366.16   22.80
  -1  -3  -2  336.17   22.20
   1   3   2  350.76   22.60
   1   3   2  327.07   22.60
   1   3   2  352.26   22.70
  -2  -3  -2 4677.13  259.87
  -2  -3  -2 4698.33  259.27
   2   3   2 4432.36  259.67
   2   3   2 3958.80  259.17
   2   3   2 4454.85  260.07
  -3  -3  -2  638.24   38.40
  -3  -3  -2  649.34   38.80
   3   3   2  566.44   38.60
   3   3   2  614.04   39.60
   3   3   2  599.24   39.10
  -4  -3  -2  397.66   25.20
  -4  -3  -2  368.36   25.50
   4   3   2  367.16   26.10
   4   3   2  376.66   26.80
  -5  -3  -2 1229.08   72.19
  -5  -3  -2 1197.58   72.99
   5   3   2 1125.69   74.39
   5   3   2 1188.88   74.39
  -6  -3  -2  126.79   11.30
  -6  -3  -2  143.99   12.70
   6   3   2  123.09   13.50
   6   3   2  148.79   13.70
  -7  -3  -2  321.07   23.10
  -7  -3  -2  322.77   24.70
   7   3   2  331.27   26.80
   7   3   2  356.86   26.50
  -8  -3  -2  340.67   26.30
   8   3   2  393.86   29.10
   8   3   2  311.07   28.40
 -10   4   2  290.17   22.30
 -10   4   2  228.38   15.90
  -9   4   2  828.32   50.09
  -9   4   2  682.93   44.40
  -8   4   2    5.80    1.90
  -7   4   2 1588.74   91.49
  -7   4   2 1402.66   87.49
  -6   4   2  566.44   35.80
  -6   4   2  625.94   39.10
  -5   4   2  239.28   16.30
  -5   4   2  276.17   19.00
  -4   4   2 3291.37  191.78
   3  -4  -2 1212.28   70.49
  -3   4   2 1166.38   70.59
   2  -4  -2 1798.42  105.39
   2  -4  -2 1870.61  105.49
  -2   4   2 1704.83  105.49
   1  -4  -2 4553.24  265.07
   0  -4  -2  138.39   11.10
   0  -4  -2  151.98   11.10
   0   4   2  156.98   11.60
   0   4   2  183.68   11.70
   0   4   2  141.29   11.20
  -1  -4  -2 3189.48  191.28
  -1  -4  -2 3427.96  190.88
   1   4   2 3187.58  191.38
   1   4   2 3227.68  191.18
   1   4   2 3265.87  191.28
  -2  -4  -2 2929.51  161.38
   2   4   2 2671.63  161.68
   2   4   2 2786.72  162.58
   2   4   2 2582.94  161.68
  -3  -4  -2   17.40    4.00
  -3  -4  -2   10.90    3.30
   3   4   2   13.30    3.70
   3   4   2   14.00    3.80
   3   4   2    7.90    3.40
  -4  -4  -2 1198.78   70.09
  -4  -4  -2 1195.98   70.59
   4   4   2 1112.59   70.79
   4   4   2 1192.38   71.39
   4   4   2 1042.20   71.79
  -5  -4  -2  715.73   45.40
  -5  -4  -2  738.93   46.40
   5   4   2  707.53   48.40
   5   4   2  720.23   47.40
  -6  -4  -2   92.29   10.20
  -6  -4  -2   91.49    9.00
   6   4   2   92.09   13.30
   6   4   2   90.29   11.10
   7   4   2  613.64   42.10
   7   4   2  564.64   42.70
  -8  -4  -2   45.90    6.80
   8   4   2   55.09   10.30
   8   4   2   46.60   10.40
 -10   5   2  467.25   32.50
 -10   5   2  382.46   25.90
  -9   5   2  182.68   13.20
  -9   5   2  200.68   17.80
  -8   5   2  161.48   11.50
  -8   5   2  148.09   18.80
  -7   5   2 1139.69   65.59
  -7   5   2  935.11   61.09
  -6   5   2   56.99    5.50
  -6   5   2   72.19   14.10
  -5   5   2  777.72   50.49
  -5   5   2  917.21   53.79
   4  -5  -2 2808.92  158.08
   4  -5  -2 2747.82  158.48
  -4   5   2 2547.95  158.18
   3  -5  -2   -1.10    1.30
  -3   5   2   -0.10    1.30
   2  -5  -2 2847.02  169.78
   2  -5  -2 2978.70  170.08
  -2   5   2 2885.71  170.28
   1  -5  -2 1980.40  129.29
   1  -5  -2 2269.47  129.69
  -1   5   2 2209.78  130.09
  -1   5   2 2348.27  129.09
   0  -5  -2   78.99    6.90
   0  -5  -2   62.69    6.20
   0   5   2   69.09    7.00
   0   5   2   67.89    6.40
   0   5   2   66.29    6.70
  -1  -5  -2 2786.22  158.48
  -1  -5  -2 3019.80  158.68
   1   5   2 2477.25  158.88
   1   5   2 2546.65  158.38
   1   5   2 2619.34  158.88
  -2  -5  -2  561.34   35.60
   2   5   2  527.65   36.20
   2   5   2  570.24   36.10
   2   5   2  582.34   37.20
  -3  -5  -2  131.79   13.10
   3   5   2  144.29   12.30
   3   5   2  145.09   12.50
   3   5   2  142.79   13.30
  -4  -5  -2 1277.67   76.59
  -4  -5  -2 1292.47   75.99
   4   5   2 1285.17   78.89
   4   5   2 1115.99   76.49
   4   5   2 1262.57   77.19
  -5  -5  -2   97.69   10.50
  -5  -5  -2  116.59   10.30
   5   5   2   98.79   11.10
   5   5   2  106.19   12.60
  -6  -5  -2  419.96   28.50
   6   5   2  372.16   29.30
   6   5   2  383.16   30.70
  -7  -5  -2  439.66   31.30
  -7  -5  -2  453.95   29.90
   7   5   2  475.85   33.70
   7   5   2  331.97   35.00
 -10   6   2  181.98   13.40
  -9   6   2   11.00    3.00
  -8   6   2  564.04   38.90
  -8   6   2  738.83   44.60
  -7   6   2  257.97   17.70
  -6   6   2   92.69    8.40
  -6   6   2  128.49   12.20
   5  -6  -2 1450.95   88.79
   5  -6  -2 1583.44   88.69
  -5   6   2 1433.66   88.69
   4  -6  -2  461.15   29.00
   4  -6  -2  470.05   29.10
  -4   6   2  442.06   29.20
   3  -6  -2  470.25   29.60
  -3   6   2  457.85   29.80
   2  -6  -2 1458.55   93.19
   2  -6  -2 1703.73   94.09
  -2   6   2 1572.94   94.19
   1  -6  -2  247.28   17.40
   1  -6  -2  274.17   18.20
  -1   6   2  268.57   18.70
   0  -6  -2  553.54   34.90
   0  -6  -2  568.84   35.60
   0   6   2  571.44   34.90
   0   6   2  540.15   36.10
   0   6   2  565.04   36.00
  -1  -6  -2 1023.50   64.39
   1   6   2  953.80   61.49
   1   6   2  926.91   61.59
   1   6   2 1069.49   60.89
  -2  -6  -2   23.30    4.50
   2   6   2   27.50    4.80
   2   6   2   20.00    5.40
   2   6   2   24.00    5.50
  -3  -6  -2  308.57   22.10
   3   6   2  343.27   24.80
   3   6   2  302.47   22.50
   4   6   2  636.94   41.70
   4   6   2  641.24   43.70
   4   6   2  605.94   41.70
  -5  -6  -2   38.50    6.10
   5   6   2   38.10    7.20
   5   6   2   32.90    8.60
   5   6   2   33.10    6.90
  -6  -6  -2  507.35   34.50
   6   6   2  528.95   37.30
   6   6   2  511.15   39.30
  -9   7   2  261.87   18.50
  -8   7   2  808.12   54.79
  -7   7   2    3.40    2.40
  -7   7   2    2.10    3.50
   6  -7  -2  776.02   47.70
  -6   7   2  760.42   47.70
   5  -7  -2 1237.98   77.69
   5  -7  -2 1399.16   78.29
  -5   7   2 1262.47   78.29
   4  -7  -2   87.89    7.70
   4  -7  -2   71.49    6.80
  -4   7   2   75.49    7.70
   3  -7  -2  990.10   64.89
   3  -7  -2 1177.88   66.09
  -3   7   2 1096.79   66.29
   2  -7  -2  803.02   45.00
   2  -7  -2  657.63   43.30
  -2   7   2  693.53   45.00
   1  -7  -2  135.39   11.10
   1  -7  -2  123.39    9.70
  -1   7   2  150.28   12.00
   0   7   2  830.92   53.99
   0   7   2  857.41   53.69
   0   7   2  872.31   51.69
  -1  -7  -2   68.19    7.50
   1   7   2   57.79    8.50
   1   7   2   83.79   15.70
   1   7   2   64.79    6.70
   2   7   2  250.07   19.50
   2   7   2  233.88   18.50
   2   7   2  217.18   17.00
  -3  -7  -2  805.22   48.10
   3   7   2  721.23   47.70
   3   7   2  715.73   48.70
   3   7   2  743.93   50.19
  -4  -7  -2    1.40    2.80
   4   7   2    0.10    3.20
   4   7   2   -0.50    2.20
   4   7   2   -2.70    3.00
  -5  -7  -2  560.84   35.20
   5   7   2  489.45   36.30
   5   7   2  519.75   38.80
   5   7   2  495.95   36.10
  -8   8   2  457.95   34.40
  -8   8   2  417.46   28.80
   7  -8  -2  126.09   11.10
  -7   8   2  166.98   15.80
  -7   8   2  128.19   11.50
   6  -8  -2 1175.78   72.49
  -6   8   2 1230.08   73.49
   5  -8  -2  254.57   17.50
   5  -8  -2  228.08   16.50
  -5   8   2  235.38   17.60
   4  -8  -2  609.24   40.90
   4  -8  -2  740.33   42.60
  -4   8   2  665.93   42.70
   3  -8  -2 1282.57   71.89
   3  -8  -2 1049.40   69.69
  -3   8   2 1210.48   72.19
   2  -8  -2   43.50    4.20
   2  -8  -2   35.80    5.90
  -2   8   2   39.10    6.90
  -1   8   2  932.71   57.69
  -1   8   2  902.51   57.89
   0   8   2  695.73   42.30
   0   8   2  703.63   45.40
   0   8   2  697.53   45.60
  -1  -8  -2  138.19   11.70
   1   8   2  124.99   10.20
   1   8   2  127.39   12.60
   1   8   2  125.79   12.80
  -2  -8  -2  931.51   56.39
   2   8   2  904.61   58.39
   2   8   2  827.82   57.29
   2   8   2  905.21   55.49
  -3  -8  -2  197.18   15.70
   3   8   2  186.68   17.90
   3   8   2  196.88   15.70
   3   8   2  183.78   16.80
  -4  -8  -2  704.83   45.20
   4   8   2  671.13   46.80
   4   8   2  692.93   45.50
   7  -9  -2  349.47   24.70
  -7   9   2  351.36   25.80
  -7   9   2  457.35   32.20
   6  -9  -2  677.33   43.10
  -6   9   2  715.83   44.90
   5  -9  -2    8.40    3.50
   5  -9  -2   10.40    2.80
  -5   9   2    7.90    3.60
   4  -9  -2  511.15   30.10
   4  -9  -2  390.66   26.90
  -4   9   2  430.76   29.90
   3  -9  -2  465.95   27.70
   3  -9  -2  492.95   31.40
  -3   9   2  431.86   31.50
   2  -9  -2  184.68   14.90
  -2   9   2  180.78   15.60
   1  -9  -2  939.61   58.79
  -1   9   2  948.11   59.89
  -1   9   2  927.31   59.49
   0  -9  -2   70.49    8.20
   0   9   2   53.39    9.10
   0   9   2   78.09    9.50
  -1  -9  -2  512.95   34.90
   1   9   2  478.65   35.30
   1   9   2  506.55   31.20
   1   9   2  500.35   35.30
  -2  -9  -2  637.14   40.90
   2   9   2  594.14   42.00
   2   9   2  611.74   38.90
   2   9   2  617.84   43.10
  -3  -9  -2   25.70    6.00
   3   9   2   26.70    5.20
   3   9   2   23.60    6.60
   3   9   2   34.90   10.10
   6 -10  -2   56.99    6.00
  -6  10   2   59.39    8.50
   5 -10  -2  107.99    8.50
   5 -10  -2  154.68   12.40
  -5  10   2  130.59   12.20
   4 -10  -2  295.57   20.80
  -4  10   2  245.68   20.50
   3 -10  -2   13.80    4.30
  -3  10   2   12.20    4.40
   2 -10  -2  411.66   28.10
  -2  10   2  419.36   29.30
  -2  10   2  364.46   28.30
   1 -10  -2  171.48   14.30
  -1  10   2  149.99   15.00
   0 -10  -2   55.09    8.00
   0  10   2   51.39   12.80
   0  10   2   60.29   11.00
  -1 -10  -2  410.56   32.80
   1  10   2  337.97   27.10
   1  10   2  330.07   27.30
   1  11  -3  242.28   21.10
   1  11  -3  245.68   19.70
   0  11  -3   79.99   11.80
   0  11  -3   70.89   10.10
  -1  11  -3  388.96   29.00
  -1  11  -3  403.76   28.30
  -2  11  -3   84.39    9.50
  -3  11  -3  410.96   33.10
  -4  11  -3  438.06   30.70
  -5  11  -3    9.20    4.00
   3  10  -3  105.69   17.80
   3  10  -3  108.39   11.40
  -3 -10   3  120.89   11.00
   2  10  -3  264.47   21.40
   2  10  -3  308.57   24.30
  -2 -10   3  300.37   21.20
   1  10  -3    2.10    3.00
   1  10  -3    1.50    2.70
   0  10  -3  380.36   26.00
   0  10  -3  349.07   26.60
  -1  10  -3  312.87   22.60
  -2  10  -3   71.89    8.30
  -3  10  -3  586.24   38.40
  -4  10  -3   89.09    9.40
  -5  10  -3  244.98   18.70
  -6  10  -3  500.05   35.50
  -6  10  -3  449.36   30.10
   6 -10   3  388.86   27.60
  -7  10  -3   28.10    6.10
   5   9  -3  142.09   11.90
   5   9  -3  113.39   16.60
   5   9  -3  109.19   12.10
  -5  -9   3  145.49   11.60
   4   9  -3   91.09   13.50
   4   9  -3   94.79    8.70
   4   9  -3  100.19   10.20
  -4  -9   3   98.49    9.40
   3   9  -3  516.65   38.10
   3   9  -3  546.05   33.60
   3   9  -3  516.35   35.20
   3   9  -3  524.15   32.70
  -3  -9   3  538.45   35.50
   2   9  -3   32.70    7.00
   2   9  -3   36.50    6.50
   1   9  -3  579.94   38.20
   1   9  -3  596.94   39.80
   0   9  -3  512.25   35.50
   0   9  -3  543.25   34.70
  -1   9  -3   19.70    4.60
  -2   9  -3 1055.29   64.89
  -3   9  -3  334.47   23.20
  -4   9  -3  115.19   10.60
   4  -9   3  118.29    7.50
  -5   9  -3  664.43   40.20
   5  -9   3  582.44   38.50
  -6   9  -3  196.98   15.50
  -6   9  -3  234.98   20.20
   6  -9   3  174.88   15.30
  -7   9  -3  106.49   15.20
  -7   9  -3  101.19   10.10
   7  -9   3   99.69   11.00
   6   8  -3  531.15   32.80
   6   8  -3  362.36   39.90
   6   8  -3  443.46   31.80
   5   8  -3    2.10    3.10
   5   8  -3    9.40    3.40
   5   8  -3   -1.50    4.10
  -5  -8   3    8.80    3.00
   4   8  -3  580.24   42.90
   4   8  -3  683.03   40.50
   4   8  -3  609.74   44.80
  -4  -8   3  647.24   40.10
   3   8  -3  534.95   40.20
   3   8  -3  546.25   37.60
   3   8  -3  603.94   36.50
  -3  -8   3  640.34   37.30
   2   8  -3  246.38   20.40
   2   8  -3  246.88   16.40
   2   8  -3  270.27   18.80
  -2  -8   3  272.27   18.20
   1   8  -3 1499.85   94.09
   1   8  -3 1491.55   92.29
  -1  -8   3 1620.84   92.09
   0   8  -3  381.46   25.40
  -1   8  -3  656.53   41.30
  -2   8  -3 1628.24   97.49
  -3   8  -3   34.80    5.30
   3  -8   3   27.20    2.40
  -4   8  -3  734.33   44.40
   4  -8   3  680.03   43.20
  -5   8  -3  904.11   55.99
   5  -8   3  908.41   56.39
  -6   8  -3    2.50    2.70
  -6   8  -3   11.30    5.40
   6  -8   3    6.00    3.10
  -7   8  -3  642.14   43.20
  -7   8  -3  553.44   38.30
   7  -8   3  611.74   40.90
  -8   8  -3  335.97   24.20
  -8   8  -3  363.96   29.30
   7   7  -3  370.26   27.70
   7   7  -3  401.86   34.20
   7   7  -3  417.56   29.30
  -7  -7   3  383.96   25.50
   6   7  -3  244.98   19.10
   6   7  -3  213.28   22.10
   6   7  -3  278.97   20.40
  -6  -7   3  264.67   17.80
   5   7  -3  120.69   10.80
   5   7  -3   92.19    9.70
   5   7  -3   94.69   13.90
  -5  -7   3  113.79    9.30
   4   7  -3  891.11   57.49
   4   7  -3  913.61   61.49
  -4  -7   3  991.70   56.89
   3   7  -3  120.59   12.60
   3   7  -3  120.79   10.40
  -3  -7   3  132.19   10.00
   2   7  -3  793.92   49.00
   2   7  -3  771.42   47.70
   2   7  -3  786.32   51.19
  -2  -7   3  832.22   48.70
   1   7  -3 1536.45   96.99
   1   7  -3 1590.04   95.79
   1   7  -3 1603.34   94.09
  -1  -7   3 1701.03   95.59
   0   7  -3   20.70    3.90
  -1   7  -3 1775.92  105.29
  -2   7  -3 1756.32  104.19
  -3   7  -3    4.40    2.20
   3  -7   3    2.80    1.60
  -4   7  -3 1315.57   78.19
   4  -7   3 1287.47   78.59
  -5   7  -3  805.02   51.39
   5  -7   3  757.32   49.40
  -6   7  -3  264.37   21.50
  -6   7  -3  255.97   18.40
   6  -7   3  257.47   20.20
  -7   7  -3  984.30   64.39
  -7   7  -3 1146.69   68.99
   7  -7   3 1055.29   67.49
  -8   7  -3   67.09   11.10
  -8   7  -3   42.00    6.30
  -9   7  -3  366.36   25.60
   9  -7   3  379.16   30.10
   8   6  -3  146.99   19.00
   8   6  -3  198.58   18.50
  -8  -6   3  181.38   12.70
  -8  -6   3  185.58   18.50
   7   6  -3  284.57   26.50
   7   6  -3  353.46   25.10
  -7  -6   3  327.17   20.80
  -7  -6   3  294.67   25.50
   6   6  -3    8.30    3.30
   6   6  -3    5.80    4.60
  -6  -6   3   11.90    2.70
   5   6  -3  815.92   55.49
   5   6  -3  814.42   51.49
  -5  -6   3  856.01   50.29
   4   6  -3  679.93   47.50
   4   6  -3  699.83   44.00
  -4  -6   3  738.03   43.20
   3   6  -3  200.88   14.10
   3   6  -3  195.08   16.50
  -3  -6   3  191.68   13.40
   2   6  -3 1271.37   74.89
   2   6  -3 1259.97   77.69
   2   6  -3 1194.48   75.39
  -2  -6   3 1332.57   75.29
   1   6  -3  792.72   49.30
   1   6  -3  810.32   50.59
   1   6  -3  827.02   48.50
  -1  -6   3  821.72   49.10
   0   6  -3  438.66   26.50
   0   6  -3  443.86   27.80
  -1   6  -3 2228.78  130.99
  -2   6  -3  502.55   30.30
   2  -6   3  466.75   29.50
  -3   6  -3  773.12   46.20
   3  -6   3  740.43   46.50
  -4   6  -3 1716.73  101.29
   4  -6   3 1700.83  102.49
  -5   6  -3    9.00    2.80
  -5   6  -3   16.30    4.90
   5  -6   3   12.80    3.80
  -6   6  -3  673.03   43.00
  -6   6  -3  738.93   46.30
   6  -6   3  673.73   45.40
  -7   6  -3  332.27   24.50
  -7   6  -3  283.17   20.80
   7  -6   3  309.97   23.80
  -8   6  -3  133.49   14.40
  -8   6  -3  120.19   10.60
   8  -6   3  127.49   15.10
  -9   6  -3  371.36   27.50
  -9   6  -3  444.26   32.70
   9  -6   3  464.15   33.20
   8   5  -3  597.34   46.60
  -8  -5   3  709.83   44.50
  -8  -5   3  651.13   39.50
   7   5  -3   77.09   12.40
  -7  -5   3   78.89    9.40
  -7  -5   3   85.69    6.70
   6   5  -3 1018.80   61.59
   6   5  -3  956.40   65.39
  -6  -5   3 1032.60   59.99
   5   5  -3 1140.29   79.79
   5   5  -3 1295.27   76.69
  -5  -5   3 1318.07   78.09
  -5  -5   3 1333.07   75.59
   4   5  -3    4.20    1.90
   4   5  -3    2.10    2.90
  -4  -5   3    4.90    1.70
   3   5  -3 1978.50  121.09
   3   5  -3 2063.79  124.09
  -3  -5   3 2145.69  120.79
   2   5  -3 1633.14  103.89
   2   5  -3 1762.82  101.99
  -2  -5   3 1794.52  101.79
   1   5  -3    3.30    2.20
   1   5  -3    3.40    1.40
   1   5  -3    5.90    1.80
   0   5  -3 2509.45  152.48
   0   5  -3 2721.13  152.78
  -1   5  -3 1048.40   62.59
  -1   5  -3 1045.30   62.99
   1  -5   3 1083.99   62.49
  -2   5  -3  730.23   43.90
  -2   5  -3  750.92   43.70
   2  -5   3  694.03   44.10
  -3   5  -3 1552.94   90.19
   3  -5   3 1495.75   91.19
  -4   5  -3   42.80    6.60
   4  -5   3   52.69    6.20
  -5   5  -3  746.73   46.80
   5  -5   3  707.33   46.50
  -6   5  -3  428.96   29.70
   6  -5   3  414.36   29.60
  -7   5  -3    3.10    3.50
   7  -5   3   10.50    4.10
  -8   5  -3  452.05   33.80
   8  -5   3  488.65   34.60
  -9   5  -3  232.98   21.00
   9  -5   3  235.88   22.50
  -9  -4   3  798.52   52.59
  -9  -4   3  786.62   47.00
   8   4  -3  574.64   43.10
  -8  -4   3  609.64   36.30
  -8  -4   3  634.44   41.40
   7   4  -3  137.39   14.10
  -7  -4   3  121.09    8.50
   6   4  -3 1970.70  119.19
  -6  -4   3 1951.50  117.19
  -6  -4   3 1932.91  113.89
   5   4  -3  690.73   48.30
   5   4  -3  766.92   45.60
  -5  -4   3  735.43   44.40
  -5  -4   3  794.52   47.30
   4   4  -3  536.35   36.40
   4   4  -3  565.64   34.00
  -4  -4   3  555.54   35.10
  -4  -4   3  549.54   33.10
   3   4  -3 2899.51  187.38
   3   4  -3 3247.78  185.38
  -3  -4   3 3373.66  184.78
   2   4  -3 1049.20   63.19
   2   4  -3 1092.19   65.09
   1   4  -3 2163.28  128.59
   1   4  -3 2155.38  129.29
   1   4  -3 2277.17  128.39
   0   4  -3 2797.22  178.18
   0  -4   3 3310.87  177.78
  -1   4  -3   12.60    2.30
  -1   4  -3   12.80    2.30
  -2   4  -3 2257.97  132.19
   2  -4   3 2248.08  132.69
  -3   4  -3  471.05   30.20
   3  -4   3  465.85   30.30
  -4   4  -3  249.48   18.00
   4  -4   3  247.98   18.10
  -5   4  -3 1288.17   77.29
   5  -4   3 1241.98   77.59
  -6   4  -3  193.28   15.90
   6  -4   3  202.88   16.60
  -7   4  -3  458.95   31.60
   7  -4   3  441.16   32.10
  -8   4  -3 1048.20   67.09
   8  -4   3 1055.49   68.19
  -9   4  -3   29.40    7.90
   9   3  -3  634.54   48.10
  -9  -3   3  757.72   48.00
   8   3  -3  114.69   13.20
  -8  -3   3  129.69   12.20
  -8  -3   3  117.59    8.10
   7   3  -3  525.85   37.70
  -7  -3   3  568.44   36.80
   6   3  -3 1442.86   88.59
  -6  -3   3 1448.26   87.99
  -6  -3   3 1428.66   83.99
   5   3  -3  344.47   24.30
   5   3  -3  327.17   21.40
  -5  -3   3  344.67   20.90
  -5  -3   3  360.56   23.60
   4   3  -3 1565.14   96.19
   4   3  -3 1642.24   93.89
  -4  -3   3 1602.44   95.49
  -4  -3   3 1597.34   93.49
   3   3  -3 2871.71  176.28
   3   3  -3 3070.69  174.38
  -3  -3   3 3060.29  175.68
   2   3  -3  188.08   13.90
   2   3  -3  205.08   12.50
   1   3  -3 3327.97  193.88
   0   3  -3  797.72   53.69
   0  -3   3 1001.30   54.49
  -1   3  -3  258.67   17.50
   1  -3   3  267.37   17.40
  -2   3  -3 2152.88  118.19
  -2   3  -3 1953.70  118.19
   2  -3   3 1910.41  118.49
  -3   3  -3  363.26   24.30
  -3   3  -3  362.76   24.10
   3  -3   3  397.06   25.10
  -4   3  -3 1134.79   68.99
   4  -3   3 1146.49   69.89
  -5   3  -3 2007.90  118.79
   5  -3   3 1976.40  119.69
  -6   3  -3   13.40    4.20
  -7   3  -3 1571.54   97.79
   7  -3   3 1637.44   99.29
  -8   3  -3  741.03   49.60
   8  -3   3  770.72   51.19
  -9   3  -3   77.89   11.50
   9  -3   3  104.29   13.00
  10   2  -3  452.05   35.70
 -10  -2   3  504.45   35.10
   9   2  -3  373.56   29.80
  -9  -2   3  413.76   29.20
   8   2  -3    4.40    3.90
   7   2  -3 1155.48   73.19
  -7  -2   3 1186.58   72.59
   6   2  -3  775.82   48.50
  -6  -2   3  741.73   44.20
  -6  -2   3  770.62   48.10
   5   2  -3   59.19    6.70
  -5  -2   3   50.59    6.10
   4   2  -3 2143.29  126.59
   4   2  -3 2237.78  128.89
  -4  -2   3 2164.38  128.59
   3   2  -3  492.15   31.30
   3   2  -3  516.05   29.50
  -3  -2   3  487.95   30.80
   2   2  -3  602.64   37.60
   2   2  -3  651.03   36.60
  -2  -2   3  608.24   37.30
   1   2  -3 2947.41  230.38
  -1  -2   3 2928.11  244.18
   0   2  -3  301.87   21.50
   0  -2   3  371.26   21.60
  -1   2  -3 1394.06   75.29
  -1   2  -3 1199.38   76.49
   1  -2   3 1242.78   76.39
  -2   2  -3  736.33   41.40
  -2   2  -3  603.54   43.40
   2  -2   3  706.33   42.60
  -3   2  -3  144.69   10.50
  -3   2  -3  136.69   11.10
   3  -2   3  140.49   10.70
   3  -2   3  148.99   11.60
  -4   2  -3 3133.19  182.38
   4  -2   3 3037.00  182.68
   4  -2   3 3156.98  183.58
  -5   2  -3  653.23   40.80
   5  -2   3  646.14   41.80
   5  -2   3  630.84   41.30
  -6   2  -3  463.25   32.40
   6  -2   3  464.25   32.30
   6  -2   3  489.15   32.80
  -7   2  -3 1826.22  108.69
   7  -2   3 1817.92  116.89
   7  -2   3 1737.73  109.59
  -8   2  -3  130.29   12.60
   8  -2   3  110.59   12.80
   8  -2   3  114.59   12.90
  -9   2  -3  341.77   27.10
   9  -2   3  369.56   29.00
   9  -2   3  368.16   29.00
  10   1  -3  727.53   51.99
 -10  -1   3  793.42   51.39
   9   1  -3   86.69   11.00
  -9  -1   3  103.49   11.10
   8   1  -3  717.03   45.90
  -8  -1   3  652.63   48.50
   7   1  -3 1601.44   98.79
  -7  -1   3 1647.74   98.99
   6   1  -3   25.80    5.20
  -6  -1   3   21.50    4.50
   5   1  -3 1482.75   89.29
  -5  -1   3 1498.35   89.19
   4   1  -3  740.53   44.70
  -4  -1   3  720.73   44.60
   3   1  -3  472.35   28.80
  -3  -1   3  465.25   28.80
   2   1  -3 4629.54  444.16
  -2  -1   3 4025.00  420.56
   1   1  -3   30.90    2.30
   1   1  -3   32.30    3.70
  -1  -1   3   35.40    3.70
   0   1  -3 2442.06  144.89
   0  -1   3 2490.95  144.69
  -1   1  -3 2887.41  169.58
  -2   1  -3  106.69    7.90
  -2   1  -3  117.29    9.30
   2  -1   3   98.49    9.00
   2  -1   3  113.89    8.20
  -3   1  -3 1830.92  109.59
  -3   1  -3 1831.52  110.79
   3  -1   3 1943.51  110.09
   3  -1   3 1830.82  110.89
  -4   1  -3 1800.32  104.19
   4  -1   3 1722.03  105.19
   4  -1   3 1730.33  104.59
  -5   1  -3  140.29   11.50
   5  -1   3  132.49   12.00
   5  -1   3  142.69   12.50
  -6   1  -3 1637.64   99.79
   6  -1   3 1714.33  101.39
   6  -1   3 1610.94  100.79
  -7   1  -3  632.04   42.40
  -7   1  -3  677.03   43.50
   7  -1   3  687.23   45.00
  -8   1  -3   83.89    9.20
  -8   1  -3   91.39   10.60
   8  -1   3  125.09   12.80
   8  -1   3   92.69   11.60
  -9   1  -3  493.65   35.40
   9  -1   3  535.35   38.00
   9  -1   3  464.45   36.90
  10   0  -3  614.94   43.40
 -10   0   3  621.74   42.60
   9   0  -3   47.00    8.40
  -9   0   3   68.79    9.50
   8   0  -3 1328.67   87.49
  -8   0   3 1517.85   87.59
   7   0  -3  379.96   27.10
  -7   0   3  407.76   27.20
   6   0  -3  605.04   39.20
  -6   0   3  627.94   39.30
   5   0  -3 2834.02  170.98
  -5   0   3 2991.70  171.08
   4   0  -3    2.60    1.60
  -4   0   3    4.70    1.90
   3   0  -3 2014.60  116.29
   3   0  -3 1928.91  117.39
  -3   0   3 2088.49  117.69
   2   0  -3 2540.95  147.49
   1   0  -3 3119.69  396.96
  -1   0   3 2004.40  549.25
   0   0  -3 7676.33  730.23
   0   0   3 5571.34  670.73
  -1   0  -3 1111.29   72.99
  -1   0  -3 1290.27   71.29
   1   0   3 1142.19   72.79
   1   0   3 1294.47   71.39
  -2   0  -3 1339.77   86.89
  -2   0  -3 1526.35   85.79
   2   0   3 1437.76   87.09
   2   0   3 1498.95   85.99
  -3   0  -3 4733.23  274.57
   3   0   3 4694.43  274.97
  -4   0  -3  332.27   23.00
  -4   0  -3  374.36   23.50
   4   0   3  342.77   23.80
   4   0   3  350.06   24.40
  -5   0  -3 1272.47   73.59
  -5   0  -3 1140.69   72.69
   5   0   3 1239.68   74.79
   5   0   3 1168.98   74.19
  -6   0  -3 1637.24  100.59
  -6   0  -3 1763.32  101.69
   6   0   3 1700.23  104.69
   6   0   3 1621.44  102.59
  -7   0  -3    4.70    3.50
  -7   0  -3    5.50    2.70
   7   0   3    3.00    3.70
  -8   0  -3  498.15   35.40
  -8   0  -3  490.75   33.70
   8   0   3  569.44   37.90
   8   0   3  494.85   36.80
  -9   0  -3  322.87   22.50
  -9   0  -3  291.07   24.10
   9   0   3  277.07   27.60
   9   0   3  324.57   26.90
  10  -1  -3  100.49   12.00
 -10   1   3  114.29   18.10
   9  -1  -3  280.07   22.50
  -9   1   3  296.57   22.40
  -8   1   3  863.01   54.89
   7  -1  -3    1.10    2.40
  -7   1   3    3.40    2.80
   6  -1  -3 1075.39   66.19
  -6   1   3 1094.49   66.29
   5  -1  -3  954.50   60.49
  -5   1   3 1024.30   58.39
  -5   1   3 1025.50   60.79
  -4   1   3  489.25   29.70
  -4   1   3  463.95   28.10
  -3   1   3 3399.96  190.48
  -3   1   3 3145.69  189.68
   2  -1  -3  788.42   46.60
   2  -1  -3  845.12   48.10
  -2   1   3  814.22   46.60
  -2   1   3  710.53   46.60
   1  -1  -3 2392.36  143.19
   1  -1  -3 2561.04  144.19
  -1   1   3 2645.54  144.19
  -1   1   3 2229.48  143.09
   0  -1  -3 6641.34  768.42
   0   1   3 6516.25  770.92
  -1  -1  -3  128.09   10.80
  -1  -1  -3  150.28    9.60
  -1  -1  -3  149.88   10.20
   1   1   3  128.99   10.70
   1   1   3  127.19    9.60
  -2  -1  -3 3105.49  183.98
  -2  -1  -3 3035.40  182.88
  -2  -1  -3 3286.07  182.68
   2   1   3 3036.20  183.78
   2   1   3 3165.38  182.98
  -3  -1  -3 3312.77  197.38
  -3  -1  -3 3392.96  198.58
  -3  -1  -3 3437.86  197.38
   3   1   3 3241.78  197.68
   3   1   3 3464.55  198.58
  -4  -1  -3   56.49    6.20
  -4  -1  -3   68.49    6.70
   4   1   3   50.09    6.80
   4   1   3   54.89    6.70
  -5  -1  -3 1626.24   94.79
  -5  -1  -3 1528.75   93.99
   5   1   3 1626.64   96.49
   5   1   3 1495.15   95.49
  -6  -1  -3  814.72   53.19
  -6  -1  -3  865.41   53.99
   6   1   3  775.02   59.49
   6   1   3  932.51   55.79
  -7  -1  -3  182.48   14.40
  -7  -1  -3  184.08   15.60
   7   1   3  157.98   16.10
   7   1   3  180.38   16.90
  -8  -1  -3  550.34   37.70
   8   1   3  588.24   42.20
   8   1   3  481.65   38.40
  -9  -1  -3   60.79    8.40
   9   1   3   62.29   11.10
  -9   2   3  446.16   31.70
  -8   2   3  114.49   11.30
  -8   2   3  112.09    7.30
  -7   2   3  360.46   22.40
  -7   2   3  395.06   26.10
  -6   2   3 1042.20   61.19
  -6   2   3 1047.00   63.99
  -5   2   3    5.90    2.40
  -5   2   3    1.90    1.00
   4  -2  -3 1390.86   79.79
  -4   2   3 1364.86   81.29
  -4   2   3 1339.57   79.99
   3  -2  -3 2666.23  153.98
  -3   2   3 2570.84  152.88
  -3   2   3 2637.04  153.48
   2  -2  -3  451.05   26.30
  -2   2   3  406.66   26.40
   1  -2  -3 4177.38  601.84
   0  -2  -3 1994.50  113.09
   0  -2  -3 1795.52  115.69
   0   2   3 2016.40  112.59
   0   2   3 1765.22  112.99
   0   2   3 2019.80  114.09
  -1  -2  -3  571.24   30.80
  -1  -2  -3  526.35   31.10
  -1  -2  -3  449.06   31.70
   1   2   3  502.25   31.90
   1   2   3  431.36   34.00
   1   2   3  461.45   31.10
  -2  -2  -3 2710.23  154.58
  -2  -2  -3 2583.54  155.78
  -2  -2  -3 2663.43  154.88
   2   2   3 2621.74  155.08
   2   2   3 2586.94  155.68
  -3  -2  -3  849.61   51.49
  -3  -2  -3  837.52   52.49
  -3  -2  -3  835.72   51.29
   3   2   3  835.32   52.49
   3   2   3  821.12   51.99
  -4  -2  -3  293.47   20.20
  -4  -2  -3  288.17   20.00
   4   2   3  277.47   20.90
   4   2   3  285.97   21.20
  -5  -2  -3 1074.89   63.79
  -5  -2  -3 1025.80   63.09
   5   2   3  985.70   64.79
   5   2   3 1019.70   64.99
  -6  -2  -3   87.69    8.60
  -6  -2  -3   86.59    9.20
   6   2   3   71.59   10.80
   6   2   3   61.19    9.80
  -7  -2  -3  464.05   32.00
  -7  -2  -3  500.45   33.60
   7   2   3  471.85   35.20
   7   2   3  490.25   35.30
  -8  -2  -3  320.17   23.00
  -8  -2  -3  312.07   24.30
   8   2   3  328.87   26.80
   8   2   3  298.87   26.40
 -10   3   3  416.66   32.20
 -10   3   3  380.76   24.30
 -10   3   3  382.36   23.20
  -9   3   3  267.67   17.00
  -9   3   3  286.37   22.20
  -8   3   3  203.58   13.50
  -8   3   3  209.28   17.20
  -7   3   3 1449.85   86.49
  -7   3   3 1164.38   75.19
  -6   3   3  273.27   18.50
  -6   3   3  223.98   16.60
  -5   3   3 1535.55   92.19
   4  -3  -3 2996.30  175.38
  -4   3   3 2880.11  175.88
  -4   3   3 3177.78  177.28
   3  -3  -3  169.58   12.20
   3  -3  -3  164.58   11.20
  -3   3   3  168.78   11.60
   2  -3  -3 2984.90  177.18
   2  -3  -3 3126.99  177.98
  -2   3   3 3003.20  177.48
   1  -3  -3 1671.03   95.99
  -1   3   3 1657.43   96.49
  -1   3   3 1544.15   96.09
   0  -3  -3    4.40    2.20
   0  -3  -3    3.30    1.80
   0   3   3    2.40    1.60
   0   3   3    1.70    1.80
   0   3   3    3.00    2.10
  -1  -3  -3 1551.04   94.99
  -1  -3  -3 1694.93   94.39
   1   3   3 1668.13   94.49
   1   3   3 1526.55   94.89
   1   3   3 1476.05   94.39
  -2  -3  -3 1348.97   76.19
  -2  -3  -3 1226.28   77.09
  -2  -3  -3 1336.07   76.39
   2   3   3 1240.68   77.09
   2   3   3 1269.27   76.89
   2   3   3 1180.88   76.49
  -3  -3  -3   44.00    6.20
  -3  -3  -3   34.10    5.20
  -3  -3  -3   31.20    5.60
   3   3   3   35.00    6.00
   3   3   3   38.50    6.30
  -4  -3  -3  855.71   53.49
  -4  -3  -3  858.61   53.29
   4   3   3  798.92   54.49
   4   3   3  917.21   54.99
  -5  -3  -3  328.97   23.70
  -5  -3  -3  328.97   24.10
   5   3   3  374.26   25.90
  -6  -3  -3  305.47   21.80
  -6  -3  -3  307.77   22.70
   6   3   3  284.77   24.20
   6   3   3  313.07   24.20
  -7  -3  -3  378.96   28.90
  -7  -3  -3  391.66   28.40
   7   3   3  346.07   29.70
   7   3   3  437.46   30.80
  -8  -3  -3    0.50    3.00
  -8  -3  -3    6.00    4.00
   8   3   3   -0.60    3.80
   8   3   3    5.20    4.50
 -10   4   3  546.25   33.50
 -10   4   3  562.24   39.70
  -9   4   3   39.20    4.20
  -9   4   3   45.90    8.70
  -8   4   3  885.31   52.89
  -7   4   3 1232.18   72.69
  -7   4   3 1107.09   68.89
  -6   4   3   94.69    7.80
  -6   4   3  121.79   10.80
   5  -4  -3 2901.41  172.18
  -5   4   3 2829.12  172.48
  -5   4   3 3147.08  175.08
   4  -4  -3 1982.10  113.89
   4  -4  -3 1909.51  112.69
  -4   4   3 1872.51  112.99
   3  -4  -3  620.34   39.40
   3  -4  -3  674.23   40.30
  -3   4   3  650.83   39.80
   2  -4  -3 3393.76  192.68
   2  -4  -3 3299.67  193.18
  -2   4   3 3197.48  192.88
   1  -4  -3 1024.60   62.09
   1  -4  -3  978.70   62.69
  -1   4   3 1011.50   62.49
  -1   4   3 1114.39   62.59
   0  -4  -3  533.75   31.30
   0  -4  -3  463.65   31.60
   0   4   3  506.05   31.70
   0   4   3  463.95   30.90
   0   4   3  484.05   31.60
  -1  -4  -3 2191.48  131.99
  -1  -4  -3 2374.16  131.49
   1   4   3 2125.89  131.79
   1   4   3 2267.27  131.79
   1   4   3 2145.99  131.89
  -2  -4  -3   32.00    5.70
  -2  -4  -3   33.10    5.00
   2   4   3   34.00    5.70
   2   4   3   31.60    5.40
   2   4   3   24.80    4.90
  -3  -4  -3 1388.56   78.29
  -3  -4  -3 1307.57   78.09
   3   4   3 1169.78   78.49
   3   4   3 1267.77   78.99
   3   4   3 1299.27   79.49
  -4  -4  -3  866.91   54.19
  -4  -4  -3  881.71   54.19
   4   4   3  856.41   55.49
   4   4   3  863.21   56.09
  -5  -4  -3   88.59    9.20
  -5  -4  -3   98.79    9.90
   5   4   3   78.19   11.30
   5   4   3   90.39   12.40
  -6  -4  -3  948.81   58.79
   6   4   3  818.72   60.49
   6   4   3  988.20   60.99
  -7  -4  -3   93.79   11.20
  -7  -4  -3   98.39   10.20
   7   4   3   89.59   13.40
   7   4   3   93.59   14.10
 -10   5   3  248.38   20.90
 -10   5   3  205.08   14.70
  -9   5   3   91.99    7.90
  -9   5   3  121.09   13.20
  -8   5   3 1082.39   64.79
  -7   5   3  512.25   32.20
  -7   5   3  400.56   27.70
  -6   5   3  325.87   21.20
   5  -5  -3 2266.37  125.29
   5  -5  -3 2084.89  126.29
  -5   5   3 2042.30  125.49
   4  -5  -3  436.96   27.50
   4  -5  -3  422.86   26.70
  -4   5   3  409.26   27.00
   3  -5  -3 1432.26   83.99
   3  -5  -3 1416.26   83.49
  -3   5   3 1360.16   83.89
   2  -5  -3 2564.14  143.29
   2  -5  -3 2322.37  143.39
  -2   5   3 2410.96  143.59
   1  -5  -3  121.39    9.60
   1  -5  -3   98.59    9.30
  -1   5   3  121.09    9.40
  -1   5   3  112.29    9.80
   0  -5  -3 1682.23  106.19
   0  -5  -3 1842.62  106.09
   0   5   3 1722.13  106.59
   0   5   3 1754.22  105.99
   0   5   3 1898.51  106.49
  -1  -5  -3  954.30   59.19
  -1  -5  -3  975.80   58.79
   1   5   3  975.20   59.29
   1   5   3  924.51   59.39
   1   5   3  959.10   59.39
  -2  -5  -3  255.97   18.10
  -2  -5  -3  235.88   17.30
   2   5   3  247.38   18.00
   2   5   3  232.18   18.30
   2   5   3  204.78   17.60
  -3  -5  -3 1206.58   69.19
   3   5   3 1135.89   69.99
   3   5   3 1029.80   69.69
   3   5   3 1120.39   70.69
  -4  -5  -3  143.09   13.20
   4   5   3  141.89   13.50
   4   5   3  152.38   14.60
   4   5   3  145.69   13.60
  -5  -5  -3  722.93   46.10
  -5  -5  -3  745.33   45.90
   5   5   3  704.83   48.60
   5   5   3  655.43   47.20
  -6  -5  -3  764.12   52.89
  -6  -5  -3  811.02   50.59
   6   5   3  827.32   53.69
   6   5   3  745.63   53.99
  -7  -5  -3    3.20    4.30
   7   5   3    5.40    5.40
   7   5   3    7.90    5.70
  -9   6   3  399.26   26.60
  -9   6   3  458.25   42.40
  -8   6   3  778.52   47.30
  -8   6   3  609.94   41.60
  -7   6   3    2.40    2.20
   6  -6  -3  854.51   54.59
  -6   6   3  971.40   57.79
  -6   6   3  844.82   53.89
   5  -6  -3 1297.67   74.19
   5  -6  -3 1231.88   74.79
  -5   6   3 1180.68   74.39
   4  -6  -3   68.29    6.90
   4  -6  -3   69.59    6.70
  -4   6   3   71.89    7.10
   3  -6  -3 1215.18   68.49
   3  -6  -3 1109.29   68.39
  -3   6   3 1065.59   68.59
   2  -6  -3  370.06   23.60
   2  -6  -3  333.67   23.40
  -2   6   3  352.86   24.00
   1  -6  -3  303.07   21.10
   1  -6  -3  282.77   25.10
  -1   6   3  326.37   20.80
  -1   6   3  310.97   21.40
  -1   6   3  314.77   22.00
   0  -6  -3  997.20   59.39
   0  -6  -3  949.90   59.19
   0   6   3  995.80   59.19
   0   6   3  934.21   60.09
   0   6   3  940.51   59.49
  -1  -6  -3   24.60    5.00
  -1  -6  -3   22.80    4.70
   1   6   3   23.70    5.40
   1   6   3   16.90    4.70
   1   6   3   28.80    4.90
  -2  -6  -3  495.45   30.90
   2   6   3  425.06   31.40
   2   6   3  440.26   30.90
   2   6   3  477.95   32.80
   3   6   3  666.63   43.80
   3   6   3  663.73   44.30
   3   6   3  670.03   45.00
  -4  -6  -3   35.90    6.10
   4   6   3   17.40    5.50
   4   6   3   22.40    6.50
   4   6   3   33.30    6.40
  -5  -6  -3  919.61   55.89
   5   6   3  909.01   59.39
   5   6   3  804.52   57.09
  -6  -6  -3  258.37   19.40
   6   6   3  233.68   22.60
   6   6   3  235.68   21.50
  -9   7   3  897.11   54.79
  -9   7   3  699.33   48.10
  -8   7   3  141.49   15.70
  -8   7   3  165.28   16.80
   7  -7  -3  358.66   26.50
  -7   7   3  485.35   31.40
  -7   7   3  376.26   26.00
   6  -7  -3 1004.60   61.29
  -6   7   3  986.20   60.99
   5  -7  -3    8.30    2.70
   5  -7  -3   -1.90    1.60
  -5   7   3    2.40    2.20
   4  -7  -3  831.62   51.99
   4  -7  -3  942.21   52.39
  -4   7   3  759.22   52.19
   3  -7  -3  292.37   20.80
   3  -7  -3  330.57   21.40
  -3   7   3  300.97   21.70
   2  -7  -3   65.29    7.00
   2  -7  -3   89.19    8.10
  -2   7   3   65.79    9.50
   1  -7  -3  675.93   43.80
   1  -7  -3  713.53   44.60
  -1   7   3  736.43   44.90
  -1   7   3  694.73   45.40
   0  -7  -3  136.29   11.50
   0   7   3  133.59   12.90
   0   7   3  157.98   11.70
   0   7   3  145.69   13.10
   1   7   3  320.87   22.00
   1   7   3  303.97   23.30
   1   7   3  310.07   23.30
  -2  -7  -3  820.42   49.70
   2   7   3  766.82   51.19
   2   7   3  743.63   50.79
   2   7   3  774.72   49.50
  -3  -7  -3   44.70    7.10
   3   7   3   39.40    8.40
   3   7   3   51.69    8.80
   3   7   3   42.30    7.10
  -4  -7  -3  756.32   46.60
   4   7   3  638.54   47.40
   4   7   3  756.62   49.60
   4   7   3  705.03   47.40
  -5  -7  -3  442.06   31.10
   5   7   3  444.96   32.90
   5   7   3  453.55   34.70
   8  -8  -3   23.40    4.80
  -8   8   3   28.90    5.30
  -8   8   3   56.99   11.00
   7  -8  -3  711.83   48.20
  -7   8   3  880.61   53.99
  -7   8   3  753.72   48.40
   6  -8  -3  287.87   20.00
  -6   8   3  273.87   20.30
   5  -8  -3  327.17   24.10
   5  -8  -3  419.16   25.20
  -5   8   3  349.77   25.10
   4  -8  -3  493.55   34.60
   4  -8  -3  596.74   35.90
  -4   8   3  566.54   36.30
   3  -8  -3   21.40    4.90
   3  -8  -3   19.60    3.80
  -3   8   3   28.00    5.60
   2  -8  -3  704.43   47.10
   2  -8  -3  839.02   49.00
  -2   8   3  782.72   49.70
   1  -8  -3  838.82   50.29
   1  -8  -3  816.62   52.19
  -1   8   3  804.42   52.69
  -1   8   3  815.92   52.09
   0   8   3   62.89    9.00
   0   8   3   59.69    8.80
   0   8   3   59.09    6.30
  -1  -8  -3 1131.49   70.69
   1   8   3 1082.29   71.99
   1   8   3 1191.48   69.79
   1   8   3 1148.19   72.09
  -2  -8  -3  419.36   28.70
   2   8   3  414.36   30.50
   2   8   3  392.66   27.80
   2   8   3  409.76   30.20
  -3  -8  -3  270.97   20.90
   3   8   3  305.97   23.80
   3   8   3  246.08   22.00
   3   8   3  267.67   26.40
  -4  -8  -3  754.62   45.70
   4   8   3  631.14   46.70
   4   8   3  715.53   48.60
   4   8   3  636.34   45.30
   7  -9  -3  345.77   24.50
  -7   9   3  369.76   25.50
   6  -9  -3    4.90    2.60
  -6   9   3    4.20    2.80
   5  -9  -3  362.66   27.00
   5  -9  -3  491.55   29.20
  -5   9   3  416.86   29.10
   4  -9  -3  279.17   20.30
   4  -9  -3  341.77   22.40
  -4   9   3  307.27   22.80
   3  -9  -3   35.20    6.20
  -3   9   3   37.40    7.00
   2  -9  -3 1048.50   61.39
   2  -9  -3 1000.00   58.69
  -2   9   3  916.51   61.79
  -2   9   3  921.11   61.29
   1  -9  -3  150.28   13.10
  -1   9   3  135.39   13.60
  -1   9   3  133.59   13.20
   0  -9  -3  465.85   30.60
   0   9   3  436.46   31.50
   0   9   3  397.46   30.80
  -1  -9  -3  870.41   55.59
   1   9   3  880.91   53.49
   1   9   3  849.91   57.19
  -2  -9  -3   66.19    9.30
   2   9   3   57.69   13.40
   2   9   3   53.59    7.50
   2   9   3   55.99    9.90
   5 -10  -3  224.38   16.30
  -5  10   3  286.07   25.30
   4 -10  -3   35.50    3.90
   4 -10  -3   39.90    7.00
  -4  10   3   37.80    8.40
   3 -10  -3  343.27   25.10
   2 -10  -3  398.56   26.50
  -2  10   3  312.57   28.00
   1 -10  -3    2.40    3.80
  -1  10   3    7.70    4.20
  -1  10   3   -2.20    3.50
   0  10   3  368.16   28.60
   0  10   3  378.66   28.90
   1  11  -4  108.09   11.30
   0  11  -4  523.35   36.70
   0  11  -4  572.04   38.40
  -1  11  -4  152.88   13.80
  -2  11  -4  208.78   17.40
  -3  11  -4  482.65   37.50
  -4  11  -4   28.10    5.90
  -5  11  -4  332.87   24.70
   3  10  -4  253.97   21.90
   3  10  -4  234.78   18.80
   2  10  -4    3.60    2.80
   2  10  -4    5.90    4.00
   1  10  -4  432.36   31.70
   1  10  -4  451.35   30.40
   0  10  -4  278.87   20.70
   0  10  -4  282.17   21.80
  -1  10  -4   -0.60    2.10
  -2  10  -4  747.83   47.70
  -3  10  -4  387.26   26.80
  -4  10  -4   39.50    6.70
  -5  10  -4  527.45   33.30
   5 -10   4  459.65   29.70
  -6  10  -4  152.98   13.50
  -6  10  -4  151.68   16.80
   6 -10   4  137.09   11.80
   5   9  -4   73.59    7.90
   5   9  -4   57.99    8.80
   5   9  -4   81.59    8.50
   4   9  -4  504.55   32.60
   4   9  -4  527.65   34.30
   4   9  -4  418.56   36.80
   4   9  -4  564.64   33.20
   3   9  -4  123.49   11.60
   3   9  -4  132.89    9.70
   3   9  -4  125.19   13.80
   2   9  -4  334.17   23.00
   2   9  -4  320.27   19.70
   2   9  -4  306.77   24.80
   2   9  -4  325.97   19.50
   1   9  -4  779.32   48.40
   1   9  -4  751.62   49.80
   0   9  -4   32.80    5.30
   0   9  -4   29.80    6.00
  -1   9  -4  647.04   41.30
  -2   9  -4  724.63   45.70
  -3   9  -4    9.60    3.30
  -4   9  -4  518.85   32.30
   4  -9   4  462.25   29.70
  -5   9  -4  309.77   20.10
   5  -9   4  236.78   18.40
  -6   9  -4   23.60    5.00
   6  -9   4   15.70    4.60
  -7   9  -4  389.46   29.60
  -7   9  -4  337.17   24.60
   7  -9   4  336.27   26.40
   6   8  -4   16.10    5.00
   6   8  -4   19.60    6.70
   6   8  -4    8.40    4.10
   5   8  -4  523.55   31.60
   5   8  -4  475.55   35.60
   5   8  -4  392.26   30.40
   4   8  -4  970.30   59.29
   4   8  -4  933.91   63.99
   4   8  -4  993.40   60.09
   3   8  -4   18.70    5.50
   3   8  -4   16.70    4.10
   3   8  -4    9.80    2.70
   2   8  -4 1719.63  102.29
   2   8  -4 1704.43  105.19
   2   8  -4 1706.73  100.79
   1   8  -4  783.82   47.80
   1   8  -4  753.02   46.10
   1   8  -4  698.93   43.70
   0   8  -4  251.97   17.80
  -1   8  -4 1762.72  105.09
  -2   8  -4  139.49   13.30
  -3   8  -4  267.67   18.80
   3  -8   4  267.37   17.20
  -4   8  -4  814.92   48.40
   4  -8   4  735.63   47.70
  -5   8  -4   14.40    3.90
  -5   8  -4   24.60    6.80
   5  -8   4   20.30    4.80
  -6   8  -4  506.95   33.40
  -6   8  -4  562.54   37.60
   6  -8   4  471.65   34.90
  -7   8  -4  317.37   22.80
   7  -8   4  325.37   25.30
  -8   8  -4   38.50    6.60
  -8   8  -4   36.00    8.60
   8  -8   4   23.70    6.70
   7   7  -4  315.77   23.00
   7   7  -4  325.07   28.30
   6   7  -4   39.60    9.30
   6   7  -4   44.20    6.70
   5   7  -4 1267.97   83.09
   5   7  -4 1280.87   78.49
  -5  -7   4 1327.67   77.19
   4   7  -4  515.85   37.30
   4   7  -4  527.85   33.50
   3   7  -4  540.55   37.40
   3   7  -4  543.15   34.00
   3   7  -4  539.15   34.30
   2   7  -4 1681.33  103.49
   2   7  -4 1693.53  101.99
   2   7  -4 1728.83  101.19
   1   7  -4  166.98   13.60
   1   7  -4  166.18   12.40
   1   7  -4  165.78   11.70
   0   7  -4  733.23   43.80
   0   7  -4  736.73   45.20
  -1   7  -4 1648.44   93.19
  -1   7  -4 1534.95   94.69
  -2   7  -4   14.00    3.10
   2  -7   4   16.00    2.50
  -3   7  -4  854.71   50.59
   3  -7   4  791.12   50.19
   4  -7   4  930.81   57.89
  -5   7  -4  110.59    9.80
  -5   7  -4  116.09   12.30
   5  -7   4  104.79   10.90
  -6   7  -4 1051.79   65.59
  -6   7  -4 1008.00   62.19
   6  -7   4  981.80   64.59
  -7   7  -4   59.29    7.40
  -7   7  -4   66.89   11.10
   7  -7   4   80.09   10.30
  -8   7  -4  365.76   29.30
  -8   7  -4  371.06   25.80
   8  -7   4  388.16   29.90
   8   6  -4  549.25   49.99
  -8  -6   4  593.84   39.90
   7   6  -4    9.10    4.70
   6   6  -4  551.74   41.40
   6   6  -4  602.14   37.30
   5   6  -4  976.80   62.59
   5   6  -4  921.31   57.59
   4   6  -4   21.70    5.70
   4   6  -4   22.90    4.00
   3   6  -4 1041.10   62.99
   3   6  -4 1045.00   62.59
   3   6  -4 1037.30   65.69
   2   6  -4  922.41   56.39
   2   6  -4  927.91   56.39
   2   6  -4  963.40   58.69
   1   6  -4   10.90    2.70
   1   6  -4    8.60    3.00
   1   6  -4   11.60    2.70
   0   6  -4 1143.19   66.29
   0   6  -4 1072.99   66.19
  -1   6  -4  481.45   30.70
  -1   6  -4  495.25   31.10
   1  -6   4  515.65   30.40
  -2   6  -4  256.67   16.90
  -2   6  -4  247.08   16.40
   2  -6   4  241.58   16.70
  -3   6  -4 1417.36   81.09
   3  -6   4 1295.27   81.79
  -4   6  -4   48.50    7.50
  -4   6  -4   47.10    5.40
   4  -6   4   36.00    6.20
  -5   6  -4  898.31   57.49
   5  -6   4  903.01   57.49
  -6   6  -4  659.03   43.20
   6  -6   4  615.64   50.19
  -7   6  -4   58.49    9.90
   7  -6   4   65.29   10.70
   8  -6   4  611.04   43.50
  -9   6  -4  214.28   16.90
   9  -6   4  238.78   21.70
   8   5  -4  181.08   18.20
   7   5  -4  247.48   22.10
  -7  -5   4  273.27   20.50
   6   5  -4 1077.29   63.69
   6   5  -4  979.90   67.39
  -6  -5   4 1090.39   65.59
   5   5  -4  120.49   12.50
   5   5  -4  127.89    9.80
  -5  -5   4  134.49   11.60
   4   5  -4  721.63   42.60
   4   5  -4  671.43   45.60
   3   5  -4 1150.28   72.99
   3   5  -4 1212.88   70.29
   2   5  -4   55.69    5.50
   2   5  -4   55.79    5.00
   2   5  -4   50.89    6.30
   1   5  -4 1337.27   77.19
   1   5  -4 1290.87   77.69
   1   5  -4 1285.17   78.19
   0   5  -4  939.61   59.09
   0   5  -4 1015.20   58.39
  -1   5  -4  195.88   12.60
  -1   5  -4  172.38   13.00
   1  -5   4  178.68   12.60
  -2   5  -4  933.21   55.69
   2  -5   4  897.11   55.89
  -3   5  -4  186.98   14.40
  -3   5  -4  222.18   15.70
   3  -5   4  205.78   15.50
  -4   5  -4  999.10   60.39
   4  -5   4  942.01   60.69
   5  -5   4 1070.79   67.39
  -6   5  -4   15.90    4.90
   6  -5   4   16.50    5.30
  -7   5  -4  538.65   35.50
   7  -5   4  462.35   39.20
  -8   5  -4  621.24   41.20
   8  -5   4  554.54   41.60
  -9   5  -4   -7.60    3.50
   9  -5   4    2.00    3.70
   9   4  -4  635.44   48.10
  -9  -4   4  731.53   46.60
   8   4  -4   -1.40    3.10
  -8  -4   4    6.60    4.20
   7   4  -4  882.01   57.79
   6   4  -4 1327.27   83.59
  -6  -4   4 1362.66   82.09
   5   4  -4   12.40    2.50
   5   4  -4   16.50    4.50
  -5  -4   4   14.10    3.70
   4   4  -4 1644.84  102.99
   4   4  -4 1712.03  100.39
  -4  -4   4 1775.82  101.89
   3   4  -4  709.23   44.70
   2   4  -4  849.52   52.19
   2   4  -4  874.11   53.89
   2   4  -4  918.31   53.39
   1   4  -4 2680.83  159.28
   1   4  -4 2757.42  159.48
   1   4  -4 2721.13  158.38
   0   4  -4    5.90    2.40
   0  -4   4    5.60    1.80
  -1   4  -4 1796.52  108.69
   1  -4   4 1862.81  108.39
  -2   4  -4 1442.86   85.09
   2  -4   4 1393.96   85.29
  -3   4  -4  137.39   10.70
  -3   4  -4  138.09   10.50
   3  -4   4  108.79   10.70
  -4   4  -4 2164.18  128.89
   4  -4   4 2177.38  130.19
  -5   4  -4  549.95   37.60
   5  -4   4  615.94   39.20
  -6   4  -4  282.17   20.40
   6  -4   4  251.97   21.00
  -7   4  -4 1334.57   82.69
  -8   4  -4  265.77   21.10
   8  -4   4  244.78   22.10
  -9   4  -4  220.78   20.30
   9  -4   4  239.68   22.20
   9   3  -4  337.97   26.30
  -9  -3   4  305.87   24.90
   8   3  -4   53.79    9.20
  -8  -3   4   56.69    8.50
   7   3  -4 1299.27   82.49
  -7  -3   4 1342.17   81.29
   6   3  -4  535.45   35.70
  -6  -3   4  531.35   34.90
   5   3  -4  474.45   30.90
   5   3  -4  459.35   27.90
  -5  -3   4  463.05   30.20
   4   3  -4 2119.99  122.29
   4   3  -4 2059.59  119.89
  -4  -3   4 1999.70  121.49
   3   3  -4   68.49    4.90
   3   3  -4   64.89    6.30
  -3  -3   4   65.79    5.80
   2   3  -4 2225.98  125.49
   2   3  -4 2012.50  126.49
   2   3  -4 2225.08  126.99
   1   3  -4 1353.26   76.39
   1   3  -4 1230.08   77.39
   0   3  -4  312.07   22.80
   0  -3   4  379.16   22.60
  -1   3  -4 2698.83  169.88
   1  -3   4 3062.39  169.58
  -2   3  -4  923.51   59.09
  -2   3  -4  975.50   57.89
   2  -3   4  993.10   59.39
  -3   3  -4 1109.49   68.89
  -3   3  -4 1136.79   67.79
   3  -3   4 1139.39   69.39
  -4   3  -4 3107.39  187.88
  -4   3  -4 3156.38  186.98
   4  -3   4 3287.57  188.78
  -5   3  -4  261.47   19.00
   5  -3   4  268.57   20.50
  -6   3  -4 1205.88   72.89
   6  -3   4 1155.68   74.39
  -7   3  -4 1465.25   89.99
  -8   3  -4    1.20    3.50
   8  -3   4   -2.30    3.10
  -9   3  -4  640.94   42.90
   9  -3   4  589.64   44.70
 -10  -2   4  486.05   34.90
   9   2  -4   22.00    6.30
  -9  -2   4   30.60    6.60
   8   2  -4  345.77   25.90
   7   2  -4  758.22   50.89
  -7  -2   4  834.62   50.89
   6   2  -4   10.70    3.40
  -6  -2   4   17.20    4.00
   5   2  -4 1164.38   72.09
  -5  -2   4 1220.68   72.09
   4   2  -4  532.05   29.50
   4   2  -4  485.75   31.50
  -4  -2   4  478.75   31.30
   3   2  -4  710.43   40.80
   3   2  -4  698.63   42.10
  -3  -2   4  679.23   41.90
   2   2  -4 2342.37  139.89
   2   2  -4 2460.25  141.19
   1   2  -4    5.40    2.50
   1   2  -4    8.90    1.50
  -1  -2   4    8.90    2.40
   0   2  -4 1284.97   95.19
   0  -2   4 1716.23   90.89
  -1   2  -4 2880.11  177.58
  -1   2  -4 2826.12  177.08
   1  -2   4 3338.27  177.68
  -2   2  -4   13.90    3.40
  -2   2  -4   15.70    2.50
   2  -2   4   13.00    3.30
  -3   2  -4 2751.32  152.08
  -3   2  -4 2460.55  153.48
   3  -2   4 2624.34  153.98
   3  -2   4 2524.55  152.18
  -4   2  -4 1792.52  106.79
  -4   2  -4 1808.92  105.29
   4  -2   4 1759.12  106.99
   4  -2   4 1715.83  105.59
  -5   2  -4  152.68   12.30
   5  -2   4  147.59   13.50
   5  -2   4  152.58   12.90
  -6   2  -4 1885.71  107.69
   6  -2   4 1729.73  108.39
   6  -2   4 1734.33  109.19
  -7   2  -4  336.67   23.50
   7  -2   4  269.07   25.80
   7  -2   4  331.77   24.70
  -8   2  -4  168.88   15.60
   8  -2   4  189.68   17.80
   8  -2   4  171.08   16.70
  -9   2  -4  355.16   27.40
  -9   2  -4  430.76   29.80
   9  -2   4  392.16   31.60
   9  -2   4  376.96   39.10
  10   1  -4  147.49   15.40
 -10  -1   4  154.18   15.10
   9   1  -4  174.08   16.00
  -9  -1   4  170.18   15.50
   8   1  -4  840.82   53.99
  -8  -1   4  834.62   53.59
   7   1  -4    7.90    3.40
  -7  -1   4   13.10    4.30
   6   1  -4 1249.68   77.89
  -6  -1   4 1323.87   78.09
   5   1  -4 1213.48   73.89
  -5  -1   4 1245.58   73.99
   4   1  -4  532.25   34.30
  -4  -1   4  583.74   34.50
   3   1  -4 2543.25  153.48
   3   1  -4 2976.80  156.08
   3   1  -4 2793.82  154.28
  -3  -1   4 2292.27  154.58
   2   1  -4  187.08   11.70
   2   1  -4  195.28   13.60
  -2  -1   4  190.48   11.70
   1   1  -4 2368.96  145.59
  -1  -1   4 2581.64  145.59
   0   1  -4 3413.86  205.28
   0  -1   4 3579.94  204.98
  -1   1  -4  540.75   37.80
  -1   1  -4  652.33   35.60
   1  -1   4  613.04   35.60
   1  -1   4  548.55   37.50
  -2   1  -4 1719.43   92.09
  -2   1  -4 1420.86   93.99
   2  -1   4 1548.65   92.19
   2  -1   4 1547.05   94.09
  -3   1  -4 2410.56  158.08
  -3   1  -4 2854.51  156.58
   3  -1   4 2659.43  158.48
   3  -1   4 2742.03  156.98
  -4   1  -4   22.30    4.10
  -4   1  -4   27.80    5.60
   4  -1   4   18.80    4.90
   4  -1   4   30.90    5.20
  -5   1  -4  868.51   52.69
   5  -1   4  822.22   53.39
  -6   1  -4  506.05   32.70
  -6   1  -4  471.85   32.00
   6  -1   4  482.45   33.70
  -7   1  -4   68.69    7.90
  -7   1  -4   42.90    6.70
   7  -1   4   35.70    7.80
  -8   1  -4  273.07   21.10
  -8   1  -4  325.37   23.00
   8  -1   4  302.87   26.60
   8  -1   4  251.87   22.90
  -9   1  -4  106.49   11.20
  -9   1  -4  112.19   12.70
   9  -1   4  115.09   13.90
  10   0  -4    0.60    3.50
   9   0  -4  654.53   44.20
  -9   0   4  663.83   44.00
   8   0  -4  407.56   29.30
  -8   0   4  420.26   29.00
   7   0  -4  795.82   50.29
  -7   0   4  799.92   50.39
   6   0  -4 1840.92  116.99
  -6   0   4 2101.69  117.49
   5   0  -4   14.40    3.00
  -5   0   4   21.60    3.60
   4   0  -4 3153.88  190.38
  -4   0   4 3379.46  190.68
   3   0  -4 2737.83  159.38
   3   0  -4 2507.45  159.68
   3   0  -4 2949.41  161.78
  -3   0   4 2805.42  159.98
   2   0  -4   51.59    5.40
   2   0  -4   43.80    4.60
  -2   0   4   51.99    3.60
   1   0  -4 2774.12  171.38
   1   0  -4 2903.51  172.78
  -1   0   4 3154.48  172.88
   0   0  -4 3059.09  178.28
   0   0  -4 3038.90  179.88
   0   0   4 3219.38  176.98
   0   0   4 2884.41  179.38
  -1   0  -4  587.74   36.70
  -1   0  -4  578.24   38.30
   1   0   4  645.94   36.10
   1   0   4  560.94   37.90
  -2   0  -4 3295.87  202.98
  -2   0  -4 3407.16  201.38
  -2   0  -4 3654.73  200.78
   2   0   4 3467.95  204.38
   2   0   4 3380.06  202.78
  -3   0  -4 1111.19   61.19
  -3   0  -4  941.31   62.69
  -3   0  -4  956.20   61.19
   3   0   4 1021.30   61.59
   3   0   4 1017.60   62.89
  -4   0  -4  548.85   37.20
  -4   0  -4  524.55   35.40
  -4   0  -4  572.24   35.50
   4   0   4  569.44   36.30
   4   0   4  575.64   37.40
  -5   0  -4  914.41   53.99
  -5   0  -4  816.82   53.49
   5   0   4  894.41   55.89
   5   0   4  835.22   54.79
  -6   0  -4   39.00    6.30
  -6   0  -4   47.10    7.00
   6   0   4   52.49   10.00
  -7   0  -4  283.27   22.00
  -7   0  -4  346.27   23.40
   7   0   4  275.27   23.80
   7   0   4  328.87   29.60
  -8   0  -4  282.67   21.30
  -8   0  -4  274.47   23.60
   8   0   4  261.87   23.50
   8   0   4  322.67   25.20
 -10   1   4  298.27   24.30
   9  -1  -4  622.04   41.50
  -9   1   4  607.24   41.50
   8  -1  -4    1.00    2.90
  -8   1   4    2.00    3.00
   7  -1  -4  949.21   60.89
  -7   1   4 1024.50   61.29
   6  -1  -4  820.22   51.19
  -6   1   4  838.82   51.39
  -5   1   4  260.57   17.80
   4  -1  -4 3013.70  173.48
  -4   1   4 2974.00  174.88
   3  -1  -4 2868.11  150.88
  -3   1   4 2495.75  149.19
  -3   1   4 2320.07  148.79
   2  -1  -4  625.54   36.50
   2  -1  -4  604.34   35.00
  -2   1   4  507.25   34.80
   1  -1  -4 5367.06  696.93
  -1   1   4 5332.77  741.33
   0  -1  -4 1926.81  111.59
   0  -1  -4 1856.41  112.99
   0   1   4 1822.92  110.39
   0   1   4 1963.00  112.89
  -1  -1  -4 1516.25   92.19
  -1  -1  -4 1671.83   91.39
  -1  -1  -4 1470.55   93.59
   1   1   4 1476.75   93.29
   1   1   4 1603.54   91.59
  -2  -1  -4 2230.48  137.59
  -2  -1  -4 2476.85  137.09
  -2  -1  -4 2228.28  139.09
   2   1   4 2375.26  139.09
   2   1   4 2348.07  137.39
  -3  -1  -4   59.29    6.70
  -3  -1  -4   74.59    6.70
  -3  -1  -4   67.39    8.00
   3   1   4   66.99    7.80
   3   1   4   72.99    7.30
  -4  -1  -4 1209.48   77.39
  -4  -1  -4 1262.37   75.59
  -4  -1  -4 1198.08   75.59
   4   1   4 1215.18   76.39
   4   1   4 1356.46   77.89
  -5  -1  -4  769.52   51.39
  -5  -1  -4  788.62   56.39
   5   1   4  864.31   53.19
   5   1   4  813.62   52.19
  -6  -1  -4   74.39    8.40
  -6  -1  -4   71.79    8.10
   6   1   4   61.99    9.60
   6   1   4   67.39   10.40
  -7  -1  -4  791.32   49.80
   7   1   4  717.03   50.99
   7   1   4  771.22   51.99
  -8  -1  -4  159.38   14.10
  -8  -1  -4  163.28   15.30
   8   1   4  171.98   16.70
   8   1   4  149.09   17.00
 -10   2   4  381.76   28.90
  -9   2   4  135.99   13.20
  -8   2   4  352.26   25.40
  -7   2   4  996.00   60.49
  -7   2   4 1091.29   64.49
  -6   2   4  397.06   25.90
  -6   2   4  375.46   23.30
   5  -2  -4 1211.98   67.89
  -5   2   4 1118.49   68.29
  -5   2   4 1144.19   69.89
   4  -2  -4 2748.93  151.28
   4  -2  -4 2567.54  148.79
  -4   2   4 2483.65  149.99
  -4   2   4 2436.36  149.19
   3  -2  -4  287.97   18.60
   3  -2  -4  259.87   16.80
  -3   2   4  256.97   17.20
  -3   2   4  257.57   17.10
   2  -2  -4 2620.24  150.58
   2  -2  -4 2702.03  151.98
  -2   2   4 2765.12  151.88
  -2   2   4 2219.98  150.48
   1  -2  -4 2772.42  157.88
   1  -2  -4 2748.93  159.18
  -1   2   4 2747.12  156.88
  -1   2   4 2499.75  157.88
  -1   2   4 2700.93  158.88
   0  -2  -4   25.20    3.80
   0  -2  -4   21.20    4.40
   0   2   4   34.20    5.30
   0   2   4   22.50    3.20
   0   2   4   28.70    4.20
  -1  -2  -4 1552.74  102.09
  -1  -2  -4 1722.43  100.99
  -1  -2  -4 1826.42  100.29
   1   2   4 1733.83  100.49
   1   2   4 1637.84  101.99
  -2  -2  -4 1006.10   64.29
  -2  -2  -4 1096.29   62.39
  -2  -2  -4 1013.90   62.89
   2   2   4  998.00   62.79
   2   2   4 1046.60   64.19
  -3  -2  -4  308.07   20.10
  -3  -2  -4  269.77   20.90
  -3  -2  -4  272.87   19.10
   3   2   4  283.37   20.10
   3   2   4  263.97   20.70
  -4  -2  -4 1169.48   67.49
  -4  -2  -4 1100.09   67.79
   4   2   4 1083.19   69.49
   4   2   4 1047.30   68.39
  -5  -2  -4  107.19   10.40
  -5  -2  -4  109.39   10.30
   5   2   4  100.19   11.40
   5   2   4  122.89   12.20
  -6  -2  -4  732.93   47.00
   6   2   4  669.13   48.30
   6   2   4  774.82   49.60
  -7  -2  -4  532.55   35.70
  -7  -2  -4  486.55   34.50
   7   2   4  570.94   38.60
   7   2   4  479.15   37.00
  -8  -2  -4    6.10    4.30
  -8  -2  -4   23.60    5.40
   8   2   4    7.40    5.40
   8   2   4   12.60    5.90
 -10   3   4  346.27   33.20
  -9   3   4   16.30    5.40
  -8   3   4 1432.36   84.69
  -8   3   4 1315.97   80.19
  -7   3   4  884.91   53.99
  -7   3   4  823.92   50.59
  -6   3   4  314.57   20.40
  -6   3   4  244.48   19.00
   5  -3  -4 2761.92  160.58
   5  -3  -4 2698.23  158.08
  -5   3   4 2771.82  160.38
  -5   3   4 2636.64  158.68
   4  -3  -4  666.63   40.20
   4  -3  -4  691.23   42.10
  -4   3   4  658.13   41.60
  -4   3   4  656.83   40.70
   3  -3  -4  975.40   56.29
   3  -3  -4  933.81   54.79
  -3   3   4  838.72   55.09
   2  -3  -4 1761.42  103.89
   2  -3  -4 1735.03  102.69
  -2   3   4 1696.03  103.09
  -2   3   4 1765.12  103.69
   1  -3  -4  205.98   13.70
   1  -3  -4  189.18   14.60
  -1   3   4  184.48   12.80
  -1   3   4  183.58   13.80
  -1   3   4  190.28   14.40
   0  -3  -4 1157.08   67.19
   0  -3  -4 1054.29   68.19
   0   3   4 1126.79   66.59
   0   3   4 1048.70   67.29
   0   3   4 1164.08   68.29
  -1  -3  -4  763.02   51.09
  -1  -3  -4  866.21   50.19
   1   3   4  762.52   50.29
   1   3   4  794.12   49.90
   1   3   4  864.51   51.39
  -2  -3  -4   61.79    6.20
  -2  -3  -4   58.99    6.80
  -2  -3  -4   62.09    7.60
   2   3   4   58.09    6.90
   2   3   4   59.59    8.10
   2   3   4   64.69    7.50
  -3  -3  -4 1347.37   79.99
  -3  -3  -4 1371.36   79.49
  -3  -3  -4 1314.27   81.39
   3   3   4 1291.27   80.49
   3   3   4 1247.18   80.89
  -4  -3  -4  181.88   14.60
  -4  -3  -4  205.98   15.40
   4   3   4  177.58   15.90
   4   3   4  192.38   16.40
  -5  -3  -4  262.67   19.70
  -5  -3  -4  272.77   19.80
   5   3   4  272.27   21.70
   5   3   4  238.68   20.90
  -6  -3  -4  817.32   53.29
  -6  -3  -4  869.21   53.19
   6   3   4  864.21   56.09
   6   3   4  778.12   55.19
  -7  -3  -4   42.60    8.00
  -7  -3  -4   53.49    8.00
   7   3   4   34.30    8.10
   7   3   4   57.19   11.20
 -10   4   4  156.88   10.40
 -10   4   4  172.48   16.80
  -9   4   4  590.54   40.50
  -9   4   4  580.94   36.60
  -8   4   4 1822.62  105.89
  -8   4   4 1634.74  101.19
  -7   4   4   98.69    8.10
  -7   4   4  115.69   11.20
  -6   4   4 1639.74   95.79
  -6   4   4 1516.75   93.09
   5  -4  -4 1482.65   85.49
   5  -4  -4 1394.36   83.29
  -5   4   4 1322.07   83.79
  -5   4   4 1456.95   85.89
   4  -4  -4   22.60    3.30
   4  -4  -4   19.80    4.20
  -4   4   4   20.80    3.70
   3  -4  -4 2322.07  136.19
   3  -4  -4 2378.36  137.49
  -3   4   4 2255.07  136.69
   2  -4  -4  662.53   41.10
   2  -4  -4  669.03   42.30
  -2   4   4  667.63   41.70
   1  -4  -4  374.46   26.60
   1  -4  -4  396.16   25.80
  -1   4   4  368.96   26.10
  -1   4   4  444.66   26.90
  -1   4   4  393.46   25.20
   0  -4  -4 1890.11  122.09
   0  -4  -4 2133.89  121.39
   0   4   4 2018.00  121.89
   0   4   4 1955.80  120.89
   0   4   4 2223.98  122.49
  -1  -4  -4   16.50    4.00
  -1  -4  -4   24.40    5.10
   1   4   4   25.50    5.20
   1   4   4   17.20    4.30
   1   4   4   25.10    4.70
  -2  -4  -4  990.90   67.99
  -2  -4  -4 1090.39   67.29
   2   4   4 1138.09   66.89
   2   4   4 1115.29   67.29
   2   4   4 1037.90   66.69
  -3  -4  -4  965.60   57.89
  -3  -4  -4  955.30   59.29
   3   4   4  865.91   58.49
   3   4   4  917.81   58.99
  -4  -4  -4   51.09    7.70
  -4  -4  -4   57.79    7.10
   4   4   4   62.39    9.60
   4   4   4   53.49    9.00
  -5  -4  -4 1225.88   75.19
  -5  -4  -4 1241.88   75.39
   5   4   4 1224.98   77.69
   5   4   4 1176.38   77.29
  -6  -4  -4  463.65   31.20
  -6  -4  -4  430.06   30.70
   6   4   4  473.25   34.00
   6   4   4  404.06   33.10
  -7  -4  -4   60.89    9.20
  -7  -4  -4   54.89    8.00
   7   4   4   65.89   11.50
   7   4   4   41.70    9.30
 -10   5   4    1.20    2.10
 -10   5   4    1.60    5.10
  -9   5   4 1166.38   67.29
  -9   5   4  918.21   60.99
  -8   5   4  628.34   38.90
  -7   5   4   49.70    5.60
  -7   5   4   70.99    9.90
   6  -5  -4 1516.05   87.59
   6  -5  -4 1507.25   85.39
  -6   5   4 1300.97   85.69
   5  -5  -4  523.45   31.70
   5  -5  -4  522.35   33.20
  -5   5   4  474.65   32.10
   4  -5  -4  346.77   23.40
   4  -5  -4  339.07   22.30
  -4   5   4  336.97   22.80
   3  -5  -4 1452.45   82.39
   3  -5  -4 1367.76   83.09
  -3   5   4 1300.87   82.59
   2  -5  -4   26.80    4.50
   2  -5  -4   26.70    4.90
  -2   5   4   24.60    4.90
   1  -5  -4 1237.98   84.49
   1  -5  -4 1453.55   84.09
  -1   5   4 1349.96   84.59
  -1   5   4 1526.55   84.79
  -1   5   4 1413.66   83.69
   0  -5  -4 1196.58   77.79
   0  -5  -4 1114.59   74.39
   0   5   4 1341.77   74.89
   0   5   4 1230.08   74.79
   0   5   4 1195.18   73.79
  -1  -5  -4  123.79   11.70
  -1  -5  -4  136.19   11.30
   1   5   4  128.19   11.60
   1   5   4  134.59   11.90
   1   5   4  118.19   11.60
  -2  -5  -4 1879.71  106.49
  -2  -5  -4 1767.42  107.29
   2   5   4 1739.93  107.09
   2   5   4 1676.83  106.89
   3   5   4  408.96   29.20
   3   5   4  381.56   28.30
  -4  -5  -4  439.36   29.40
   4   5   4  406.56   31.00
   4   5   4  416.96   30.60
  -5  -5  -4 1339.37   80.99
  -5  -5  -4 1342.17   80.89
   5   5   4 1209.18   82.69
   5   5   4 1342.87   83.79
  -6  -5  -4   48.60    8.00
  -6  -5  -4   88.39   10.60
   6   5   4   48.30    9.80
   6   5   4   60.39   11.80
  -9   6   4  660.83   47.00
  -9   6   4  533.25   35.80
   8  -6  -4   34.90    6.60
  -8   6   4   40.10    8.40
  -8   6   4   27.40    4.60
  -7   6   4  354.06   23.70
   6  -6  -4  707.33   40.30
   6  -6  -4  613.14   41.40
  -6   6   4  694.33   44.00
  -6   6   4  583.34   40.40
   5  -6  -4    1.00    1.80
   5  -6  -4    2.00    2.40
  -5   6   4    1.70    2.20
   4  -6  -4  764.62   45.70
   4  -6  -4  705.23   46.20
  -4   6   4  734.13   46.20
   3  -6  -4  291.97   23.50
   3  -6  -4  319.97   21.90
  -3   6   4  313.47   21.90
   2  -6  -4  139.49   10.90
   2  -6  -4  130.49   11.10
  -2   6   4  104.79   10.90
   1  -6  -4 1397.76   81.19
   1  -6  -4 1200.08   81.09
  -1   6   4 1448.96   81.29
  -1   6   4 1294.47   81.79
  -1   6   4 1343.97   80.89
   0  -6  -4   63.39    7.50
   0   6   4   55.39    8.90
   0   6   4   67.49    7.60
   0   6   4   66.09    7.60
  -1  -6  -4  789.72   50.09
   1   6   4  784.82   49.99
   1   6   4  792.82   50.39
   1   6   4  767.72   50.79
  -2  -6  -4 1391.06   81.09
   2   6   4 1262.87   81.19
   2   6   4 1221.58   80.99
   2   6   4 1337.27   80.79
  -3  -6  -4    1.90    2.70
   3   6   4    2.60    4.10
   3   6   4    7.70    4.10
   3   6   4    9.40    3.80
  -4  -6  -4  685.23   43.60
   4   6   4  643.04   45.70
   4   6   4  656.33   44.90
  -5  -6  -4  555.84   36.20
   5   6   4  519.45   38.80
   5   6   4  502.15   37.80
   8  -7  -4  121.49   11.90
  -8   7   4  163.28   15.70
  -8   7   4   96.09   15.40
  -7   7   4  503.75   36.60
   6  -7  -4    2.80    2.70
   6  -7  -4    6.50    2.60
   5  -7  -4  540.15   33.00
   5  -7  -4  474.85   33.20
   4  -7  -4  467.45   31.50
   4  -7  -4  522.85   31.40
  -4   7   4  435.26   32.10
   3  -7  -4   38.10    5.90
   3  -7  -4   41.80    6.50
  -3   7   4   38.60    6.70
   2  -7  -4  842.42   54.79
   2  -7  -4  977.30   55.29
  -2   7   4  823.72   55.49
   1  -7  -4  465.55   29.30
   1  -7  -4  387.66   28.50
  -1   7   4  412.76   29.20
  -1   7   4  421.06   30.00
  -1   7   4  455.05   28.50
   0  -7  -4  269.47   21.10
   0   7   4  311.57   23.00
   0   7   4  325.97   21.60
   0   7   4  288.47   22.00
  -1  -7  -4  983.60   58.69
   1   7   4  896.41   59.09
   1   7   4  867.91   59.49
   1   7   4  955.30   58.39
  -2  -7  -4  197.28   16.10
   2   7   4  227.28   16.80
   2   7   4  166.08   16.80
   2   7   4  190.88   17.40
   3   7   4  214.18   18.60
   3   7   4  181.48   17.50
   3   7   4  202.28   17.30
  -4  -7  -4  559.94   37.30
   4   7   4  554.54   40.00
   4   7   4  528.45   38.20
   4   7   4  554.64   41.20
   8  -8  -4  357.06   26.50
  -8   8   4  350.86   25.80
  -8   8   4  465.25   32.30
  -7   8   4  296.07   22.90
  -7   8   4  203.98   17.30
   6  -8  -4  195.78   14.10
   6  -8  -4  152.48   13.70
  -6   8   4  168.08   14.20
   5  -8  -4  696.03   47.80
   5  -8  -4  850.21   48.40
  -5   8   4  739.03   48.60
   4  -8  -4   72.49    7.70
   4  -8  -4   55.09    7.00
  -4   8   4   65.89    8.90
   3  -8  -4  507.55   36.20
   3  -8  -4  614.14   37.30
  -3   8   4  583.64   38.10
   2  -8  -4 1178.68   67.29
   2  -8  -4  990.80   65.89
  -2   8   4 1092.79   67.09
  -2   8   4 1065.19   67.99
   1  -8  -4    3.10    3.00
   1  -8  -4    0.30    1.80
  -1   8   4    0.60    2.90
  -1   8   4    5.10    3.40
   0  -8  -4  823.72   52.29
   0  -8  -4  832.02   51.49
   0   8   4  769.62   53.49
   0   8   4  816.02   53.09
   0   8   4  841.02   51.19
   1   8   4  679.83   46.70
   1   8   4  724.63   44.50
   1   8   4  653.43   46.10
  -2  -8  -4    6.60    3.70
   2   8   4   12.10    5.80
   2   8   4   -5.10    3.30
   2   8   4    6.90    4.40
   3   8   4  523.85   38.30
   3   8   4  461.15   45.20
   3   8   4  575.34   37.00
   6  -9  -4  455.65   28.50
   6  -9  -4  375.86   27.40
  -6   9   4  385.16   28.30
   5  -9  -4  438.66   32.30
   5  -9  -4  579.44   33.90
  -5   9   4  480.65   33.80
   4  -9  -4   -1.00    2.20
   4  -9  -4    2.90    3.30
  -4   9   4    3.40    3.50
   3  -9  -4  734.43   47.20
  -3   9   4  790.52   50.19
   2  -9  -4  615.64   39.10
   2  -9  -4  560.34   36.90
  -2   9   4  590.14   39.20
  -2   9   4  571.74   40.00
   1  -9  -4  119.49   10.30
   1  -9  -4  122.29   12.10
  -1   9   4  115.69   12.40
  -1   9   4  130.79   13.50
   0  -9  -4  839.52   50.59
   0   9   4  665.23   58.09
   1   9   4  216.58   19.60
   1   9   4  230.48   21.80
   1   9   4  209.38   16.30
   3 -10  -4  695.33   41.10
  -3  10   4  619.74   44.80
  -2  10   4   32.80    9.60
  -2  10   4   28.60    6.60
   1  11  -5  691.83   45.30
   1  11  -5  691.63   49.99
   0  11  -5  228.38   18.40
   0  11  -5  234.38   19.50
  -1  11  -5   69.99    9.30
  -3  11  -5  125.49   12.00
  -4  11  -5  236.78   18.70
   3  10  -5   49.99    5.00
   3  10  -5   69.09   10.70
   3  10  -5   73.49    9.20
   2  10  -5  307.87   24.70
   2  10  -5  303.07   22.30
   1  10  -5  427.96   30.60
   1  10  -5  409.66   28.70
   0  10  -5   13.70    3.70
   0  10  -5    5.90    3.90
  -1  10  -5  414.16   28.30
  -2  10  -5  499.85   33.40
  -3  10  -5    3.00    3.00
  -4  10  -5  455.55   31.00
  -5  10  -5  191.28   18.30
   5 -10   5  156.38   11.90
  -6  10  -5   87.89    9.30
  -6  10  -5   66.49   12.60
   6 -10   5   61.39    7.80
   5   9  -5  441.76   36.70
   5   9  -5  490.15   32.90
   5   9  -5  463.75   32.10
   5   9  -5  535.35   33.10
   4   9  -5  240.18   17.50
   4   9  -5  250.37   18.50
   4   9  -5  237.38   21.70
   3   9  -5  150.68   15.70
   3   9  -5  158.58   13.00
   3   9  -5  149.09   11.70
   2   9  -5  691.93   44.10
   2   9  -5  691.93   46.60
   2   9  -5  694.23   42.20
   1   9  -5   80.99    9.70
   1   9  -5   88.09    8.70
   0   9  -5   88.59    8.70
  -1   9  -5  579.14   37.20
  -2   9  -5    2.90    2.60
  -3   9  -5  267.77   19.10
   3  -9   5  257.87   16.60
  -4   9  -5  295.67   21.10
   4  -9   5  291.77   19.50
  -5   9  -5   14.50    5.80
  -5   9  -5    9.20    3.60
   5  -9   5   16.30    4.20
  -6   9  -5  439.06   31.80
  -6   9  -5  347.07   25.40
   6  -9   5  338.97   26.20
  -7   9  -5   75.79    8.80
  -7   9  -5   71.89   12.60
   7  -9   5   70.59   11.00
   6   8  -5  288.47   24.70
   6   8  -5  246.78   19.30
   5   8  -5  761.92   55.39
   5   8  -5  845.12   51.39
   5   8  -5  831.02   51.69
   4   8  -5   25.20    7.10
   4   8  -5   19.00    4.20
   4   8  -5   22.90    4.50
   3   8  -5  764.42   46.90
   3   8  -5  745.73   49.99
   3   8  -5  736.93   46.40
   2   8  -5  746.13   44.60
   2   8  -5  578.64   48.20
   2   8  -5  770.52   44.20
   1   8  -5    5.10    3.20
   1   8  -5    8.40    2.40
   1   8  -5   11.90    3.30
   0   8  -5  849.72   50.39
   0   8  -5  835.62   51.89
  -1   8  -5  580.64   33.30
  -1   8  -5  506.25   36.20
  -2   8  -5  250.07   18.60
   2  -8   5  278.57   17.10
  -3   8  -5  704.83   42.60
   3  -8   5  646.24   41.40
  -4   8  -5   26.20    5.00
   4  -8   5   23.40    4.80
  -5   8  -5  573.14   37.30
  -5   8  -5  632.54   40.80
   5  -8   5  539.35   38.40
  -6   8  -5  473.85   35.00
  -6   8  -5  477.95   32.00
   6  -8   5  488.35   34.70
  -7   8  -5   17.70    4.60
  -7   8  -5   29.20    7.40
   7  -8   5    7.10    4.90
   7   7  -5   10.70    5.30
   7   7  -5    4.30    2.70
   6   7  -5  574.64   36.50
   6   7  -5  550.34   41.00
   5   7  -5  839.72   52.29
   5   7  -5  891.81   57.39
   5   7  -5  825.22   53.39
   4   7  -5   73.89    7.90
   4   7  -5   79.19    7.40
   3   7  -5 1017.00   64.09
   3   7  -5 1100.69   67.29
   3   7  -5 1057.49   63.89
   2   7  -5  416.26   27.60
   2   7  -5  443.36   27.50
   2   7  -5  419.26   29.60
   1   7  -5  285.97   19.40
   1   7  -5  290.77   20.70
   0   7  -5 1594.34   95.79
   0   7  -5 1630.44   95.89
  -1   7  -5    8.50    2.70
  -1   7  -5    8.80    2.50
  -2   7  -5  990.50   59.19
  -2   7  -5  993.40   58.79
   2  -7   5  938.31   58.59
   3  -7   5  898.71   55.49
  -4   7  -5  111.29   11.10
  -4   7  -5   94.79    8.80
   4  -7   5   90.59    9.70
  -5   7  -5 1221.08   74.39
  -5   7  -5 1183.78   71.69
   5  -7   5 1123.69   73.69
  -6   7  -5  369.46   25.80
  -6   7  -5  303.77   22.40
   6  -7   5  301.37   25.00
  -7   7  -5  247.08   20.60
  -7   7  -5  219.08   17.40
  -8   7  -5  730.23   49.10
  -8   7  -5  811.82   53.29
   8  -7   5  792.82   53.99
   7   6  -5  174.88   17.70
   6   6  -5  706.43   50.29
   6   6  -5  770.22   46.20
   5   6  -5   87.49   10.80
   5   6  -5   87.29    7.70
   4   6  -5  484.95   31.00
   4   6  -5  507.55   32.50
   4   6  -5  495.35   34.50
   3   6  -5  630.44   42.40
   3   6  -5  647.64   40.60
   3   6  -5  654.63   39.60
   2   6  -5    1.60    1.90
   2   6  -5    2.30    2.60
   2   6  -5    3.30    1.90
   1   6  -5  840.52   51.09
   1   6  -5  873.91   52.39
   1   6  -5  823.22   51.99
   0   6  -5  672.83   42.70
   0   6  -5  681.83   41.50
  -1   6  -5  361.16   23.00
  -1   6  -5  333.17   23.50
   1  -6   5  368.86   23.00
  -2   6  -5 1013.10   60.59
  -2   6  -5 1054.59   61.29
   2  -6   5  944.71   60.99
  -3   6  -5  307.27   20.00
   3  -6   5  257.47   20.20
  -4   6  -5 1112.99   66.59
   4  -6   5 1014.10   66.49
  -5   6  -5 1287.07   77.49
   5  -6   5 1201.28   77.99
  -6   6  -5   17.10    5.00
   6  -6   5    5.90    3.80
  -7   6  -5  734.63   49.20
  -8   6  -5  647.34   44.00
   8  -6   5  609.14   45.10
   8   5  -5   48.90    9.70
  -8  -5   5   59.39    8.80
   7   5  -5  525.05   37.60
  -7  -5   5  526.45   35.30
   6   5  -5  435.26   32.70
  -6  -5   5  391.36   27.70
   5   5  -5  312.77   19.60
   5   5  -5  281.07   22.50
   4   5  -5  486.15   33.40
   4   5  -5  491.05   30.50
   4   5  -5  507.55   32.50
   3   5  -5   21.30    4.80
   3   5  -5   23.80    4.20
   3   5  -5   24.90    3.30
   2   5  -5  784.12   49.20
   2   5  -5  803.62   48.70
   2   5  -5  779.52   47.40
   1   5  -5  956.20   57.99
   1   5  -5  984.70   59.49
   1   5  -5  976.90   58.99
   0   5  -5   64.29    6.80
   0   5  -5   66.39    5.60
   0  -5   5   56.49    5.80
  -1   5  -5 1660.53  105.09
   1  -5   5 1852.71  104.59
  -2   5  -5  860.51   52.49
   2  -5   5  823.02   52.39
  -3   5  -5  347.47   25.00
  -3   5  -5  395.16   25.30
   3  -5   5  368.66   26.00
  -4   5  -5 1527.25   92.19
   4  -5   5 1521.25   93.59
  -5   5  -5  170.58   13.90
   5  -5   5  148.79   14.60
  -6   5  -5  353.86   26.10
   6  -5   5  371.86   27.90
  -7   5  -5  720.43   46.90
   7  -5   5  682.03   48.80
   8  -5   5  102.99   13.20
   9   4  -5   73.99   11.50
  -9  -4   5   97.29   10.90
   8   4  -5  343.87   27.10
  -8  -4   5  350.46   25.60
   7   4  -5  764.22   50.19
  -7  -4   5  754.82   48.60
   6   4  -5    1.90    3.10
   5   4  -5 1354.46   78.69
   5   4  -5 1356.66   81.79
  -5  -4   5 1300.17   80.39
   4   4  -5  513.55   34.00
   4   4  -5  531.45   31.60
   3   4  -5  237.88   17.30
   3   4  -5  246.98   15.60
   3   4  -5  250.37   17.50
   2   4  -5 2525.35  150.28
   2   4  -5 2514.15  148.89
   2   4  -5 2625.84  150.68
   1   4  -5  225.58   16.60
   1   4  -5  238.58   15.90
   0   4  -5 2654.23  168.28
   0  -4   5 3046.50  167.68
  -1   4  -5 2568.74  159.18
   1  -4   5 2800.72  158.68
  -2   4  -5    5.70    2.90
  -2   4  -5   11.40    2.70
   2  -4   5   11.10    3.30
  -3   4  -5 2232.98  138.99
  -3   4  -5 2450.75  137.89
   3  -4   5 2310.87  139.59
  -4   4  -5  812.02   51.69
  -4   4  -5  843.02   50.69
   4  -4   5  779.22   52.39
  -5   4  -5    0.30    2.50
  -6   4  -5  778.22   49.80
   6  -4   5  771.72   51.79
  -7   4  -5  317.27   24.50
   7  -4   5  341.77   26.60
  -8   4  -5   84.89   10.30
   8  -4   5   59.29   12.30
   9   3  -5   10.60    4.50
  -9  -3   5    9.70    4.40
   8   3  -5  509.35   35.80
   7   3  -5  396.26   27.60
  -7  -3   5  371.86   26.60
   6   3  -5  542.45   35.00
  -6  -3   5  514.75   34.20
   5   3  -5 1659.33   90.39
   5   3  -5 1468.35   93.19
  -5  -3   5 1516.45   92.69
   4   3  -5  151.88    9.60
   4   3  -5  154.88   11.60
  -4  -3   5  142.79   10.90
   3   3  -5 2378.86  141.19
   3   3  -5 2483.25  143.69
   2   3  -5 2797.82  154.88
   2   3  -5 2455.55  153.18
   1   3  -5  171.28   14.10
   1   3  -5  199.18   12.60
  -1  -3   5  200.98   14.00
   0   3  -5 3496.95  218.28
   0  -3   5 3928.81  217.78
  -1   3  -5 1151.48   79.99
  -1   3  -5 1389.46   77.79
   1  -3   5 1401.56   80.09
  -2   3  -5  364.46   22.80
  -2   3  -5  340.97   25.00
   2  -3   5  365.26   25.10
  -3   3  -5 2694.83  164.38
  -3   3  -5 2811.42  162.38
   3  -3   5 2785.62  164.78
  -4   3  -5  692.53   41.40
  -4   3  -5  659.53   43.10
   4  -3   5  613.14   43.20
  -5   3  -5  286.37   20.10
   5  -3   5  272.57   22.00
  -6   3  -5 1433.66   84.69
   6  -3   5 1324.67   86.79
  -7   3  -5   45.00    7.60
   7  -3   5   36.90    8.00
  -8   3  -5  533.25   36.60
   8  -3   5  513.85   44.60
   9   2  -5  243.68   20.20
  -9  -2   5  237.58   19.60
   8   2  -5  493.65   34.60
  -8  -2   5  515.95   34.30
   7   2  -5   20.20    4.90
  -7  -2   5   27.30    7.80
   6   2  -5 1221.48   75.19
  -6  -2   5 1251.67   75.09
   5   2  -5  310.97   21.50
  -5  -2   5  334.07   21.60
   4   2  -5  520.65   30.30
   4   2  -5  539.45   33.80
   4   2  -5  546.05   32.20
  -4  -2   5  466.15   31.80
   3   2  -5 3275.37  180.68
   3   2  -5 2894.01  178.48
  -3  -2   5 3039.70  178.28
   2   2  -5  400.16   26.00
   2   2  -5  388.86   23.70
   1   2  -5  792.42   49.00
   1   2  -5  845.12   51.89
  -1  -2   5  883.21   51.59
   0   2  -5 2739.43  161.98
   0   2  -5 2683.63  165.38
   0  -2   5 2960.40  165.08
  -1   2  -5  647.24   45.20
  -1   2  -5  735.63   42.40
   1  -2   5  731.53   45.10
  -2   2  -5 1185.88   79.39
  -2   2  -5 1354.16   76.79
   2  -2   5 1337.87   79.59
  -3   2  -5 1946.81  110.79
  -3   2  -5 1769.12  112.99
   3  -2   5 1944.21  113.49
   3  -2   5 1826.42  110.89
  -4   2  -5   25.20    4.40
  -4   2  -5   25.20    5.50
   4  -2   5   40.00    7.00
   4  -2   5   23.30    4.50
  -5   2  -5 1283.77   73.99
   5  -2   5 1157.78   74.49
   5  -2   5 1188.38   76.19
  -6   2  -5  480.15   31.80
   6  -2   5  461.45   33.40
  -7   2  -5  178.28   15.10
   7  -2   5  192.38   17.50
   7  -2   5  155.58   15.80
  -8   2  -5  480.15   34.00
  -8   2  -5  528.35   35.50
   8  -2   5  524.35   37.80
   8  -2   5  470.95   36.10
  10   1  -5  104.39   12.80
 -10  -1   5  139.89   15.50
   9   1  -5  580.14   40.40
  -9  -1   5  611.94   40.40
   8   1  -5   15.40    4.80
  -8  -1   5   17.80    4.80
   7   1  -5 1173.38   72.49
  -7  -1   5 1193.48   72.69
   6   1  -5  850.11   51.79
  -6  -1   5  826.82   51.89
   5   1  -5  101.79    8.50
  -5  -1   5  107.59    8.70
   4   1  -5 2145.29  117.99
   4   1  -5 1996.20  119.19
   4   1  -5 2110.09  121.39
  -4  -1   5 1885.61  119.29
   3   1  -5 1227.68   74.29
   3   1  -5 1240.78   74.49
   3   1  -5 1365.76   76.99
  -3  -1   5 1253.97   74.39
   2   1  -5   24.10    4.10
   1   1  -5 2169.48  133.39
  -1  -1   5 2324.47  133.29
   0   1  -5 1507.55   94.89
   0   1  -5 1570.24   91.19
   0  -1   5 1634.14   94.69
  -1   1  -5  425.36   30.90
  -1   1  -5  447.16   28.40
   1  -1   5  475.15   27.90
   1  -1   5  476.15   30.80
  -2   1  -5 2096.59  112.69
  -2   1  -5 1736.23  115.39
   2  -1   5 1896.31  115.29
   2  -1   5 1913.71  113.89
  -3   1  -5   96.19   10.30
  -3   1  -5  103.29    8.40
   3  -1   5   96.69   10.20
   3  -1   5  104.19    8.80
  -4   1  -5  433.76   28.10
  -4   1  -5  403.16   30.20
   4  -1   5  452.25   30.70
   4  -1   5  436.46   28.90
  -5   1  -5  596.14   37.60
   5  -1   5  566.04   38.40
  -6   1  -5   24.00    5.20
  -6   1  -5   36.80    6.40
   6  -1   5   23.70    6.80
  -7   1  -5  400.96   27.70
  -7   1  -5  364.86   27.00
   7  -1   5  385.16   29.00
   7  -1   5  401.46   30.20
  -8   1  -5  152.18   14.10
  -8   1  -5  158.28   23.30
   8  -1   5  148.69   16.10
   8  -1   5  176.58   17.70
  10   0  -5  572.84   40.20
 -10   0   5  588.84   40.40
   9   0  -5  399.46   29.70
  -9   0   5  439.76   31.10
   8   0  -5  308.87   22.90
  -8   0   5  321.47   23.00
   7   0  -5 1587.44   99.29
  -7   0   5 1721.33   99.79
   6   0  -5  289.97   19.40
  -6   0   5  270.27   19.40
   5   0  -5  783.92   49.10
  -5   0   5  838.72   49.50
   4   0  -5 3602.64  209.38
   4   0  -5 3702.53  212.58
  -4   0   5 3543.85  210.48
   3   0  -5  514.95   31.00
   3   0  -5  443.96   28.50
  -3   0   5  460.15   28.20
   2   0  -5 1573.04  100.79
   2   0  -5 1807.62  102.79
  -2   0   5 1776.12  102.69
   1   0  -5 3600.34  208.38
   1   0  -5 3341.97  206.38
  -1   0   5 3682.03  208.18
   0   0  -5    4.30    2.00
   0   0  -5    6.20    3.00
   0   0   5    0.10    1.80
   0   0   5    3.20    1.00
  -1   0  -5 1980.00  126.89
  -1   0  -5 2192.38  123.59
  -1   0  -5 2059.59  124.89
   1   0   5 2131.89  126.69
   1   0   5 2193.58  123.79
  -2   0  -5  377.46   27.30
  -2   0  -5  376.56   25.30
  -2   0  -5  390.06   24.40
   2   0   5  389.26   24.80
   2   0   5  386.06   27.00
  -3   0  -5  372.06   25.40
  -3   0  -5  403.36   24.90
  -3   0  -5  357.46   27.10
   3   0   5  397.46   27.40
   3   0   5  370.26   25.30
  -4   0  -5 1044.40   66.29
  -4   0  -5 1069.59   68.29
  -4   0  -5 1138.99   65.69
   4   0   5 1062.59   69.79
   4   0   5 1055.19   66.29
  -5   0  -5   84.69    9.20
   5   0   5  104.19   10.20
  -6   0  -5  481.65   31.40
   6   0   5  430.36   32.20
  -7   0  -5  568.84   36.00
  -7   0  -5  501.35   35.00
   7   0   5  546.25   38.60
   7   0   5  469.35   36.70
  -8   0  -5    4.00    3.40
  -8   0  -5   16.80    4.90
   8   0   5    2.30    4.60
   8   0   5    3.50    3.70
 -10   1   5  708.83   47.50
  -8   1   5  842.92   53.59
  -7   1   5 1638.04   98.69
  -6   1   5  120.69   10.20
   5  -1  -5 1748.82  102.69
   5  -1  -5 1831.32  106.59
  -5   1   5 1734.93  104.79
   4  -1  -5 2593.54  152.38
   4  -1  -5 2688.43  155.28
  -4   1   5 2583.94  153.18
   3  -1  -5   41.30    4.20
   3  -1  -5   53.79    6.20
  -3   1   5   46.80    4.00
   2  -1  -5 3568.74  222.68
   2  -1  -5 3925.91  224.58
  -2   1   5 3979.60  224.48
   1  -1  -5 1708.23  100.29
   1  -1  -5 1744.93  102.19
  -1   1   5 1648.54   98.69
  -1   1   5 1678.53  101.79
   0  -1  -5  687.23   41.40
   0  -1  -5  688.53   43.40
   0   1   5  617.84   39.90
   0   1   5  685.23   42.90
  -1  -1  -5 1951.30  115.79
  -1  -1  -5 1845.22  117.59
  -1  -1  -5 2073.79  114.49
   1   1   5 1951.20  114.69
   1   1   5 1914.21  117.19
  -2  -1  -5   49.99    8.10
  -2  -1  -5   58.29    6.60
  -2  -1  -5   61.99    5.70
   2   1   5   60.59    7.50
   2   1   5   64.69    6.30
  -3  -1  -5 1215.48   69.59
  -3  -1  -5 1124.99   72.29
  -3  -1  -5 1093.49   70.19
   3   1   5 1141.69   70.29
   3   1   5 1179.18   72.19
  -4  -1  -5 1028.20   66.39
  -4  -1  -5 1112.19   63.89
  -4  -1  -5 1013.20   64.19
   4   1   5 1030.80   64.69
   4   1   5 1006.30   65.99
  -5  -1  -5   82.99    8.90
  -5  -1  -5   78.29    8.50
   5   1   5   89.19   10.60
   5   1   5   72.09    9.30
  -6  -1  -5 1405.86   82.99
   6   1   5 1249.57   84.09
   6   1   5 1382.16   85.89
  -7  -1  -5  471.25   32.70
  -7  -1  -5  503.95   33.40
   7   1   5  447.76   34.40
  -8  -1  -5  147.99   14.20
  -8  -1  -5  142.79   13.20
   8   1   5  126.59   15.20
 -10   2   5  292.37   23.50
  -8   2   5 1279.47   78.99
  -7   2   5  748.43   47.50
  -6   2   5  162.48   12.90
   5  -2  -5 2162.58  123.19
   5  -2  -5 2247.78  126.69
  -5   2   5 1960.50  123.69
  -5   2   5 2099.79  124.99
   4  -2  -5  634.74   38.30
   4  -2  -5  628.14   35.80
  -4   2   5  583.64   36.40
  -4   2   5  513.65   37.00
   3  -2  -5  760.22   45.70
   3  -2  -5  756.22   43.70
  -3   2   5  732.33   43.50
  -3   2   5  633.84   43.70
   2  -2  -5 1915.61  110.29
   2  -2  -5 1933.71  112.09
  -2   2   5 1651.13  110.19
  -2   2   5 1978.00  111.99
   1  -2  -5    2.20    1.80
   1  -2  -5    2.20    2.30
  -1   2   5    2.10    2.20
  -1   2   5    3.20    1.40
  -1   2   5    0.90    1.70
   0  -2  -5 1992.90  125.99
   0  -2  -5 2100.99  124.29
   0   2   5 2038.60  123.19
   0   2   5 2266.77  126.09
  -1  -2  -5  644.84   39.90
  -1  -2  -5  563.14   41.10
   1   2   5  669.03   41.40
   1   2   5  635.04   39.00
  -2  -2  -5  173.28   14.30
  -2  -2  -5  177.38   15.80
  -2  -2  -5  201.48   13.50
   2   2   5  186.58   14.10
   2   2   5  188.98   15.70
  -3  -2  -5 1587.04  100.49
  -3  -2  -5 1648.54   99.09
  -3  -2  -5 1683.83   97.79
   3   2   5 1591.14  100.19
   3   2   5 1667.43   98.89
  -4  -2  -5  221.88   16.60
  -4  -2  -5  209.88   18.30
  -4  -2  -5  210.28   16.10
   4   2   5  189.68   16.70
   4   2   5  213.98   18.20
  -5  -2  -5  676.03   42.00
   5   2   5  628.14   44.20
   5   2   5  626.74   43.20
  -6  -2  -5 1115.99   71.59
  -6  -2  -5 1207.98   71.89
   6   2   5 1156.18   74.79
   6   2   5 1122.69   73.59
  -7  -2  -5   42.80   11.10
  -7  -2  -5   22.30    5.20
   7   2   5   39.50    9.30
   7   2   5   27.10    7.00
 -10   3   5   27.60    7.40
  -9   3   5  625.54   42.40
  -8   3   5  700.03   44.30
  -8   3   5  833.22   49.40
  -7   3   5    0.50    2.70
  -7   3   5    1.30    1.30
   6  -3  -5 1439.06   85.99
   6  -3  -5 1391.46   82.49
  -6   3   5 1330.47   83.19
  -6   3   5 1474.15   85.39
   5  -3  -5  680.63   42.10
   5  -3  -5  708.43   44.90
  -5   3   5  754.02   44.20
  -5   3   5  672.93   42.90
   4  -3  -5  249.28   16.10
   4  -3  -5  263.97   18.40
  -4   3   5  210.48   16.40
  -4   3   5  257.07   17.20
   3  -3  -5 1561.54   92.19
   3  -3  -5 1593.34   90.39
  -3   3   5 1412.46   90.69
   2  -3  -5   17.90    3.60
   2  -3  -5   21.30    4.70
  -2   3   5   19.60    4.50
  -2   3   5   11.70    3.20
   1  -3  -5 1256.87   71.19
   1  -3  -5 1185.48   72.69
  -1   3   5 1104.69   71.19
  -1   3   5 1146.69   69.89
  -1   3   5 1181.18   72.29
   0  -3  -5  708.93   49.20
   0  -3  -5  818.42   48.00
   0   3   5  703.63   48.00
   0   3   5  785.42   47.10
   0   3   5  824.42   49.50
  -1  -3  -5   81.29    9.50
  -1  -3  -5   93.19    8.70
   1   3   5   93.09    9.50
   1   3   5   82.39    8.10
   1   3   5   85.59    8.80
  -2  -3  -5 1147.59   66.19
  -2  -3  -5 1077.29   67.59
   2   3   5 1041.30   65.69
   2   3   5 1007.50   66.89
  -3  -3  -5  779.42   48.80
  -3  -3  -5  806.42   47.90
  -3  -3  -5  725.53   50.19
   3   3   5  754.02   49.00
   3   3   5  755.12   50.09
  -4  -3  -5   77.89   10.10
  -4  -3  -5   69.19    8.00
   4   3   5   77.99    9.40
   4   3   5   77.29   10.00
  -5  -3  -5 1027.50   65.29
  -5  -3  -5 1061.29   65.89
   5   3   5 1057.69   67.59
   5   3   5 1062.89   68.39
  -6  -3  -5  284.77   21.90
  -6  -3  -5  300.27   22.10
   6   3   5  263.87   23.80
   6   3   5  296.37   23.90
  -7  -3  -5  116.29   11.70
  -7  -3  -5   99.19   11.70
   7   3   5  124.69   14.30
   7   3   5   84.69   18.50
 -10   4   5  102.79   16.50
  -9   4   5 1194.38   69.49
  -9   4   5  992.80   63.49
  -8   4   5  228.48   17.80
  -8   4   5  184.68   13.60
   7  -4  -5  508.75   35.20
  -7   4   5  581.34   35.80
  -7   4   5  490.75   32.50
   6  -4  -5 1229.88   71.39
   6  -4  -5 1171.88   74.19
  -6   4   5 1169.98   72.19
  -6   4   5 1245.18   74.29
   5  -4  -5   42.80    6.60
   5  -4  -5   50.79    4.90
  -5   4   5   47.10    5.40
  -5   4   5   37.00    6.30
   4  -4  -5 1458.65   85.49
   4  -4  -5 1429.16   83.49
  -4   4   5 1318.17   83.99
   3  -4  -5  510.45   33.30
   3  -4  -5  519.05   31.80
  -3   4   5  470.85   32.20
   2  -4  -5  571.84   38.50
   2  -4  -5  598.64   37.10
  -2   4   5  642.24   38.50
  -2   4   5  536.95   37.40
   1  -4  -5 1649.04   94.99
   1  -4  -5 1530.95   96.29
  -1   4   5 1725.03   96.29
  -1   4   5 1462.35   95.19
  -1   4   5 1544.45   93.89
   0  -4  -5  148.79   13.90
   0  -4  -5  166.08   13.10
   0   4   5  162.28   12.60
   0   4   5  148.49   13.40
   0   4   5  194.18   14.60
  -1  -4  -5  605.64   43.60
  -1  -4  -5  721.03   42.90
   1   4   5  631.64   43.10
   1   4   5  683.63   42.60
   1   4   5  687.73   43.90
  -2  -4  -5 1669.43  108.49
   2   4   5 1834.52  107.59
   2   4   5 1834.42  108.69
  -3  -4  -5   55.39    8.70
   3   4   5   70.19    8.50
   3   4   5   57.39    9.20
  -4  -4  -5  703.73   45.40
  -4  -4  -5  717.93   46.10
   4   4   5  745.63   48.30
   4   4   5  674.23   47.20
  -5  -4  -5  801.62   49.99
  -5  -4  -5  785.02   49.40
   5   4   5  704.63   51.29
   5   4   5  774.52   52.29
  -6  -4  -5    2.80    3.20
  -6  -4  -5    1.60    3.40
   6   4   5   -3.20    3.70
   6   4   5   -9.20    3.80
   9  -5  -5  504.05   36.70
  -9   5   5  506.45   33.20
  -9   5   5  608.34   39.00
   8  -5  -5   22.70    5.80
  -8   5   5   22.00    4.10
   7  -5  -5  746.33   49.20
  -7   5   5  847.42   50.59
  -7   5   5  715.73   47.00
   6  -5  -5  249.97   19.50
   6  -5  -5  286.47   17.70
  -6   5   5  236.58   18.00
  -6   5   5  277.17   27.30
   5  -5  -5  255.37   16.70
   5  -5  -5  244.28   18.40
  -5   5   5  219.48   17.10
   4  -5  -5 1173.08   73.59
   4  -5  -5 1242.68   72.19
  -4   5   5 1173.98   72.89
   3  -5  -5   85.29    9.30
   3  -5  -5   94.79    8.40
  -3   5   5   90.59    9.00
   2  -5  -5  928.61   57.39
   2  -5  -5  835.52   57.09
  -2   5   5 1023.70   57.39
  -2   5   5  854.51   56.69
   1  -5  -5 1777.52  112.89
   1  -5  -5 1964.40  111.89
  -1   5   5 1993.40  112.89
  -1   5   5 1794.42  112.49
  -1   5   5 1810.12  110.99
   0  -5  -5    1.00    2.40
   0  -5  -5    1.90    2.70
   0   5   5    1.10    2.80
   0   5   5   -0.60    2.00
   0   5   5    3.30    3.30
  -1  -5  -5 1703.03  105.99
   1   5   5 1706.43  105.89
   1   5   5 1713.93  104.99
   1   5   5 1824.32  105.99
  -2  -5  -5 1368.26   83.59
   2   5   5 1288.67   83.19
   2   5   5 1291.77   82.59
   2   5   5 1409.76   83.59
  -3  -5  -5   98.09   11.90
  -3  -5  -5   86.69    9.80
   3   5   5   84.69   10.60
   3   5   5  102.79   11.10
  -4  -5  -5 1057.09   64.39
   4   5   5 1030.60   65.99
   4   5   5  963.50   65.69
  -5  -5  -5  294.27   22.70
   5   5   5  305.97   25.20
   5   5   5  293.57   24.80
   9  -6  -5   30.50    6.20
  -9   6   5   27.40    4.80
  -9   6   5   40.30   10.00
   8  -6  -5  137.79   12.90
  -8   6   5  164.28   15.10
  -8   6   5  113.59   10.50
   7  -6  -5  338.97   24.40
  -7   6   5  327.17   22.80
   6  -6  -5    0.60    2.30
   6  -6  -5    2.50    2.50
  -6   6   5    2.40    2.20
  -6   6   5   -2.30    3.20
   5  -6  -5  552.54   37.30
   5  -6  -5  596.24   36.00
  -5   6   5  541.65   36.50
   4  -6  -5  910.71   59.59
   4  -6  -5 1056.89   58.89
  -4   6   5  886.11   58.99
   3  -6  -5   88.89    8.30
   3  -6  -5   76.99    8.80
  -3   6   5   69.49    8.40
   2  -6  -5 1696.03   92.89
   2  -6  -5 1450.55   93.29
  -2   6   5 1555.74   91.99
  -2   6   5 1409.06   95.59
   1  -6  -5  559.54   40.70
   1  -6  -5  660.63   40.50
  -1   6   5  615.34   41.20
  -1   6   5  612.94   39.90
  -1   6   5  667.23   40.90
   0  -6  -5  404.76   28.70
   0  -6  -5  422.66   28.20
   0   6   5  443.26   28.90
   0   6   5  399.06   28.00
   0   6   5  363.16   28.70
  -1  -6  -5 1288.97   81.09
   1   6   5 1255.47   81.39
   1   6   5 1453.55   81.49
   1   6   5 1189.58   87.29
  -2  -6  -5  195.38   16.40
  -2  -6  -5  187.38   15.50
   2   6   5  175.68   16.00
   2   6   5  186.68   16.00
   2   6   5  153.68   15.80
  -3  -6  -5  380.76   26.90
   3   6   5  351.66   27.80
   3   6   5  373.26   27.70
  -4  -6  -5  795.62   49.80
   4   6   5  792.32   51.89
   4   6   5  693.23   50.69
   8  -7  -5  294.57   22.80
  -8   7   5  365.56   26.50
  -8   7   5  276.97   21.20
   7  -7  -5  103.39   10.80
  -7   7   5   93.19    9.50
  -7   7   5  125.89   13.20
   6  -7  -5  380.56   24.70
   6  -7  -5  366.26   26.00
  -6   7   5  342.77   25.10
   5  -7  -5  800.52   52.19
   5  -7  -5  891.01   51.49
  -5   7   5  767.72   51.69
   4  -7  -5    3.30    2.90
   4  -7  -5    7.00    3.10
  -4   7   5    5.50    3.10
   3  -7  -5 1124.49   63.69
   3  -7  -5  949.21   63.59
  -3   7   5  990.40   64.09
   2  -7  -5  864.01   52.79
   2  -7  -5  817.82   53.09
  -2   7   5  816.42   53.69
   1  -7  -5   19.50    4.90
   1  -7  -5   18.50    4.50
  -1   7   5   18.60    4.50
  -1   7   5   22.30    5.20
  -1   7   5   27.30    6.20
   0  -7  -5  630.34   39.60
   0  -7  -5  598.34   39.70
   0   7   5  591.74   39.70
   0   7   5  655.23   39.80
   0   7   5  498.15   39.90
  -1  -7  -5  377.36   28.00
  -1  -7  -5  409.36   28.60
   1   7   5  401.06   29.70
   1   7   5  386.76   28.80
   1   7   5  420.56   29.00
  -2  -7  -5   69.99    9.40
   2   7   5   51.09    8.80
   2   7   5   49.70    8.10
   2   7   5   65.89   10.00
  -3  -7  -5  414.26   28.60
   3   7   5  384.96   29.70
   3   7   5  349.57   29.70
   3   7   5  405.86   29.30
   7  -8  -5   39.10    6.80
  -7   8   5   45.80   10.90
  -7   8   5   43.20    7.10
   6  -8  -5 1033.80   55.59
   6  -8  -5  758.32   56.79
  -6   8   5  830.82   55.39
   5  -8  -5  368.26   22.90
   5  -8  -5  278.87   22.20
  -5   8   5  281.67   22.50
   4  -8  -5  335.47   24.10
   4  -8  -5  387.16   24.40
  -4   8   5  279.47   24.00
   3  -8  -5  806.32   54.89
   3  -8  -5  946.61   55.59
  -3   8   5  869.41   56.29
   2  -8  -5   94.49    9.90
   2  -8  -5  114.09   10.90
  -2   8   5   94.09   11.30
  -2   8   5  107.19   10.70
   1  -8  -5  399.96   28.60
  -1   8   5  426.16   30.80
  -1   8   5  430.46   29.70
   0  -8  -5  502.75   34.70
   0  -8  -5  577.04   35.90
   0   8   5  450.75   36.20
   0   8   5  491.25   35.70
   0   8   5  555.64   34.80
  -1  -8  -5    4.10    3.90
   1   8   5    8.40    4.70
   1   8   5    1.80    4.80
   1   8   5   11.60    4.80
   2   8   5  384.96   26.40
   2   8   5  357.56   27.80
   2   8   5  306.07   27.40
   5  -9  -5   38.80    6.90
   5  -9  -5   28.90    5.90
  -5   9   5   31.70    6.90
   4  -9  -5  472.75   33.40
   4  -9  -5  556.04   34.80
  -4   9   5  489.25   35.10
   3  -9  -5  510.45   34.70
  -3   9   5  568.44   36.30
  -3   9   5  505.55   38.00
   2  -9  -5    0.90    3.70
   2  -9  -5    7.40    2.90
  -2   9   5    7.60    4.10
  -2   9   5    2.80    3.80
   1  -9  -5  529.15   34.00
  -1   9   5  504.35   36.70
  -1   9   5  495.15   35.80
   1  11  -6  351.66   28.30
   1  11  -6  379.76   26.60
   0  11  -6   26.80    6.40
   0  11  -6   30.70    6.70
  -1  11  -6  497.55   37.50
  -2  11  -6  167.98   14.60
  -3  11  -6  181.08   15.50
   3  10  -6  121.59   14.30
   3  10  -6  117.09   11.50
   3  10  -6  127.69   11.10
   2  10  -6  414.06   28.90
   2  10  -6  421.76   25.70
   2  10  -6  437.16   31.80
   1  10  -6   35.40    5.90
   1  10  -6   38.80    7.40
   0  10  -6  132.29   11.50
   0  10  -6  115.19   12.20
  -1  10  -6  365.56   25.50
  -2  10  -6    1.20    2.70
  -3  10  -6  316.17   22.90
   4 -10   6  177.78   12.30
  -5  10  -6   35.20    6.50
  -5  10  -6   36.00    8.60
   5 -10   6   23.70    4.50
   4   9  -6    9.80    3.30
   4   9  -6    9.90    3.40
   4   9  -6   11.90    5.60
   3   9  -6  306.67   25.30
   3   9  -6  325.17   22.40
   3   9  -6  319.57   22.10
   2   9  -6   96.29   11.40
   2   9  -6  103.09    9.80
   2   9  -6  107.49    9.00
   1   9  -6   27.70    3.80
   1   9  -6   20.20    4.50
   1   9  -6   28.80    6.00
   0   9  -6  374.86   22.90
   0   9  -6  353.86   24.80
  -1   9  -6   83.29    8.50
  -2   9  -6  237.48   17.70
  -3   9  -6  279.97   19.80
   3  -9   6  263.07   17.90
  -4   9  -6    2.10    2.80
  -4   9  -6   -4.00    4.10
   4  -9   6    2.90    2.20
  -5   9  -6  455.15   31.80
  -5   9  -6  412.46   28.40
   5  -9   6  371.86   28.00
  -6   9  -6  250.17   19.90
  -6   9  -6  288.27   23.60
   6  -9   6  251.57   21.10
   6   8  -6  340.87   29.00
   6   8  -6  361.26   24.70
   6   8  -6  362.46   26.10
   5   8  -6  150.58   12.90
   5   8  -6  136.79   15.40
   5   8  -6  145.29   12.00
   4   8  -6  178.28   16.80
   4   8  -6  157.88   13.80
   4   8  -6  180.48   13.50
   3   8  -6  497.65   35.90
   3   8  -6  514.95   33.00
   3   8  -6  518.45   33.50
   2   8  -6    6.10    2.70
   2   8  -6    1.20    3.50
   2   8  -6    3.90    2.60
   1   8  -6  671.33   42.80
   1   8  -6  685.63   43.00
   1   8  -6  691.03   44.20
   0   8  -6  746.53   46.00
   0   8  -6  740.43   46.40
  -1   8  -6  234.38   17.40
  -1   8  -6  254.97   17.00
  -2   8  -6 1016.90   58.59
  -2   8  -6  927.91   58.99
   2  -8   6  939.61   57.99
  -3   8  -6  156.28   12.60
   3  -8   6  152.28   12.20
  -4   8  -6  344.27   25.70
  -4   8  -6  339.17   23.50
   4  -8   6  324.57   23.90
  -5   8  -6  734.53   48.40
  -5   8  -6  721.23   45.70
   5  -8   6  686.43   47.10
  -6   8  -6   14.80    4.30
  -6   8  -6   25.50    6.80
   6  -8   6   29.60    7.20
  -7   8  -6  281.77   22.20
  -7   8  -6  354.46   26.30
   7  -8   6  294.57   25.70
   7   7  -6  248.68   17.20
   7   7  -6  237.38   19.60
   7   7  -6  208.48   20.40
   6   7  -6  555.24   40.50
   6   7  -6  575.54   36.10
   6   7  -6  557.14   38.10
   5   7  -6   21.60    5.20
   5   7  -6   20.20    4.00
   5   7  -6   20.10    6.30
   4   7  -6  940.71   55.59
   4   7  -6  896.71   56.89
   4   7  -6  893.91   59.19
   3   7  -6  598.44   38.60
   3   7  -6  588.24   40.40
   3   7  -6  614.94   37.60
   2   7  -6  270.47   21.20
   2   7  -6  286.07   20.50
   2   7  -6  305.97   19.60
   1   7  -6 1527.25   96.79
   1   7  -6 1631.94   96.99
   1   7  -6 1666.63   95.69
   0   7  -6   65.19    7.30
   0   7  -6   66.49    6.60
  -1   7  -6 1532.35   90.99
  -1   7  -6 1483.85   90.09
   1  -7   6 1514.85   89.89
  -2   7  -6 1131.29   68.29
  -2   7  -6 1079.79   71.89
   2  -7   6 1137.69   68.09
  -3   7  -6    1.00    2.30
  -3   7  -6    2.50    5.00
  -3   7  -6    2.10    2.10
   3  -7   6    3.70    2.70
  -4   7  -6 1356.16   80.39
   4  -7   6 1223.88   79.79
  -5   7  -6  803.92   49.90
   5  -7   6  699.93   49.90
  -6   7  -6   80.39   11.30
   6  -7   6   56.39    9.90
   7  -7   6  696.13   49.10
   7   6  -6  343.37   27.30
   6   6  -6  200.58   17.20
   6   6  -6  214.78   14.70
   6   6  -6  200.08   18.30
   5   6  -6  438.96   33.40
   5   6  -6  501.65   30.30
   5   6  -6  492.15   32.70
   4   6  -6  670.63   43.90
   4   6  -6  666.53   42.70
   4   6  -6  657.73   40.70
   3   6  -6    0.80    2.50
   3   6  -6    5.40    2.90
   3   6  -6    2.70    1.70
   2   6  -6 1205.58   68.09
   2   6  -6 1122.09   69.89
   2   6  -6 1082.59   69.49
   1   6  -6  769.82   46.70
   1   6  -6  733.83   48.40
   1   6  -6  797.72   47.80
   0   6  -6  292.17   21.40
   0   6  -6  300.47   19.60
  -1   6  -6 1401.06   82.59
  -1   6  -6 1348.37   84.29
   1  -6   6 1401.46   83.29
  -2   6  -6  499.05   32.50
   2  -6   6  470.95   32.00
  -3   6  -6  350.06   24.50
  -3   6  -6  355.96   24.40
   3  -6   6  334.07   24.90
  -4   6  -6 1459.65   86.59
   4  -6   6 1360.06   87.49
  -5   6  -6  189.78   16.00
   5  -6   6  176.48   16.80
  -6   6  -6  378.86   27.80
  -7   6  -6  666.73   43.00
   7  -6   6  572.14   44.10
  -8   6  -6    2.00    4.20
   8  -6   6    5.80    4.90
   8   5  -6  373.36   27.50
  -8  -5   6  326.37   25.10
   7   5  -6  170.38   16.00
   6   5  -6  191.88   12.60
   6   5  -6  169.18   15.70
   5   5  -6  934.91   56.89
   5   5  -6  873.41   53.59
   5   5  -6  889.31   56.79
   4   5  -6   20.20    4.40
   4   5  -6   16.80    4.30
   4   5  -6   20.10    3.00
   3   5  -6  633.24   40.70
   3   5  -6  654.63   38.50
   3   5  -6  612.84   40.50
   2   5  -6 1176.58   70.49
   2   5  -6 1204.08   72.59
   2   5  -6 1184.28   71.99
   1   5  -6    1.10    1.60
   1   5  -6    2.20    1.50
   1   5  -6    2.40    2.30
   0   5  -6 1333.97   85.79
   0  -5   6 1477.35   84.69
  -1   5  -6  756.02   49.10
   1  -5   6  774.82   48.10
  -2   5  -6   17.50    4.50
  -2   5  -6   23.20    4.20
   2  -5   6   20.70    4.90
  -3   5  -6 1151.98   65.19
  -3   5  -6 1015.70   66.09
   3  -5   6 1007.30   66.49
  -4   5  -6  412.86   30.00
  -4   5  -6  457.95   29.20
   4  -5   6  419.66   31.00
  -5   5  -6   30.20    5.80
   5  -5   6   21.90    6.30
  -6   5  -6  518.35   35.40
  -7   5  -6   95.09   11.10
   7  -5   6   92.89   13.90
  -8   5  -6  188.48   17.80
   8  -5   6  197.58   19.50
   8   4  -6  439.36   30.60
  -8  -4   6  392.46   28.70
  -7  -4   6    8.10    3.30
   6   4  -6 1240.08   74.89
  -6  -4   6 1183.68   73.49
   5   4  -6  681.93   42.60
   5   4  -6  641.84   39.70
   5   4  -6  684.13   43.40
   4   4  -6  104.59   10.50
   4   4  -6  124.69   10.00
   4   4  -6  115.09    8.20
   3   4  -6 2485.15  148.39
   3   4  -6 2516.35  149.69
   3   4  -6 2565.04  147.09
   2   4  -6  910.71   53.19
   2   4  -6  873.11   55.49
   1   4  -6  721.93   42.40
   1   4  -6  679.83   44.60
  -1  -4   6  692.03   43.70
   0   4  -6 1853.41  119.79
   0  -4   6 2131.89  119.09
  -1   4  -6  245.18   16.00
  -1   4  -6  199.78   18.10
   1  -4   6  264.07   18.20
  -2   4  -6  635.24   44.40
  -2   4  -6  714.83   42.00
   2  -4   6  683.63   44.30
  -3   4  -6 1547.75   88.29
  -3   4  -6 1391.46   90.39
   3  -4   6 1472.75   90.89
  -4   4  -6   11.40    4.40
  -4   4  -6   15.50    3.80
   4  -4   6   14.10    5.10
  -5   4  -6  501.25   33.60
   5  -4   6  502.15   36.00
  -6   4  -6  357.26   25.60
  -7   4  -6   68.79   10.00
   7  -4   6   64.19   11.40
  -8   4  -6  416.36   30.70
   8  -4   6  423.76   33.60
   9   3  -6  502.15   35.60
  -9  -3   6  493.85   34.60
   8   3  -6  359.76   26.30
   7   3  -6  154.68   13.70
  -7  -3   6  163.78   13.40
   6   3  -6 1819.72  107.39
  -6  -3   6 1759.82  106.69
   5   3  -6  164.28   12.60
   5   3  -6  167.38   10.10
   5   3  -6  166.58   14.10
  -5  -3   6  157.98   12.10
   4   3  -6 1138.09   64.39
   4   3  -6 1143.19   67.99
   4   3  -6 1014.10   65.69
   3   3  -6 4002.00  233.88
   3   3  -6 3997.30  231.58
   3   3  -6 3939.91  231.08
   2   3  -6   84.49    6.40
   2   3  -6   89.49    8.80
   1   3  -6 2055.29  119.49
   1   3  -6 1923.41  122.39
  -1  -3   6 2163.28  122.09
   0   3  -6 1902.61  124.99
   0   3  -6 2086.19  121.59
   0  -3   6 2260.17  124.69
  -1   3  -6   23.10    5.40
  -1   3  -6   12.80    2.30
   1  -3   6   15.00    4.00
  -2   3  -6 2143.59  118.89
  -2   3  -6 1743.03  121.79
   2  -3   6 2165.18  122.39
  -3   3  -6  446.36   32.60
  -3   3  -6  487.15   29.90
   3  -3   6  464.15   32.70
  -4   3  -6  250.37   17.50
  -4   3  -6  224.48   19.60
   4  -3   6  253.77   20.30
  -5   3  -6 1278.57   81.69
  -5   3  -6 1322.37   82.59
   5  -3   6 1308.27   82.59
  -6   3  -6   66.49    8.10
   6  -3   6   54.39    9.90
  -7   3  -6  497.35   34.20
   7  -3   6  493.75   37.10
  -8   3  -6  436.76   31.80
   8  -3   6  440.06   34.80
   9   2  -6  518.75   37.30
  -9  -2   6  571.14   37.40
  -8  -2   6   -3.10    2.60
   7   2  -6  975.90   60.29
  -7  -2   6  963.70   60.09
   6   2  -6  887.71   54.99
  -6  -2   6  900.21   54.99
   5   2  -6   13.60    3.00
   5   2  -6   11.00    3.90
  -5  -2   6    8.30    2.30
   4   2  -6 2037.70  112.99
   4   2  -6 1753.92  109.89
   4   2  -6 1898.11  108.79
  -4  -2   6 1818.12  109.79
   3   2  -6 1209.98   72.79
   3   2  -6 1279.37   75.99
   2   2  -6  286.87   19.80
   2   2  -6  260.67   16.00
   1   2  -6 2364.76  147.39
  -1  -2   6 2586.54  147.09
   0   2  -6  740.33   50.09
   0   2  -6  782.02   45.90
   0  -2   6  822.22   49.70
  -1   2  -6  368.36   22.20
  -1   2  -6  339.87   26.00
   1  -2   6  366.76   25.60
  -2   2  -6 1312.17   93.99
  -2   2  -6 1714.93   90.99
   2  -2   6 1561.44   94.29
  -3   2  -6    6.40    2.30
  -3   2  -6    9.00    3.90
   3  -2   6    7.70    3.70
  -4   2  -6  713.53   50.09
  -4   2  -6  796.22   47.30
   4  -2   6  790.32   50.49
   4  -2   6  731.53   47.70
  -5   2  -6  764.12   51.49
  -5   2  -6  777.12   50.59
   5  -2   6  749.62   51.89
   5  -2   6  784.92   49.50
  -6   2  -6  240.98   18.30
   6  -2   6  223.48   19.00
   6  -2   6  242.08   20.90
  -7   2  -6  928.21   56.69
  -7   2  -6  800.42   55.89
   7  -2   6  880.41   57.99
   7  -2   6  934.31   63.99
  -8   2  -6  126.09   13.10
  -8   2  -6  122.99   12.70
   8  -2   6  143.59   22.60
   8  -2   6  128.09   14.50
   9   1  -6   85.39   10.30
  -9  -1   6  109.59   11.30
   8   1  -6  469.55   32.30
  -8  -1   6  486.15   32.50
   7   1  -6 1226.48   74.09
  -7  -1   6 1203.48   74.19
   6   1  -6  121.19    9.50
  -6  -1   6   97.79    9.20
   5   1  -6  435.56   28.60
   5   1  -6  481.25   31.30
  -5  -1   6  461.75   28.90
   4   1  -6 2065.79  117.09
   4   1  -6 1867.91  117.19
   4   1  -6 2218.68  120.79
  -4  -1   6 1898.81  117.29
   3   1  -6    0.70    1.20
   3   1  -6    1.40    2.20
   2   1  -6  852.61   56.69
   2   1  -6  951.40   59.09
  -2  -1   6 1057.59   59.29
   1   1  -6  923.71   58.49
  -1  -1   6  938.61   58.09
   0   1  -6   93.89    5.90
   0   1  -6   84.59    9.70
   0  -1   6   88.99    9.40
  -1   1  -6 1266.47   73.79
  -1   1  -6 1217.38   78.19
   1  -1   6 1274.47   77.59
  -2   1  -6  148.29   14.40
  -2   1  -6  172.68   11.40
   2  -1   6  150.58   14.10
   2  -1   6  158.18   11.50
  -3   1  -6  453.15   33.50
  -3   1  -6  501.35   30.30
   3  -1   6  480.65   33.50
   3  -1   6  463.75   30.70
  -4   1  -6 1039.70   61.49
  -4   1  -6  972.00   64.79
   4  -1   6  968.10   62.09
   4  -1   6 1042.20   66.69
  -5   1  -6    0.10    2.80
  -5   1  -6   -2.40    2.70
  -5   1  -6    0.10    2.40
   5  -1   6   -2.70    2.20
  -6   1  -6  732.73   46.00
  -6   1  -6  711.33   46.20
   6  -1   6  691.43   47.20
  -7   1  -6  410.26   27.80
  -7   1  -6  369.36   27.20
   7  -1   6  402.56   31.10
   7  -1   6  336.87   28.40
  -8   1  -6    5.50    3.80
  -8   1  -6   10.20    4.50
   8  -1   6    8.50    5.40
 -10   0   6  636.24   43.10
   8   0  -6  965.50   63.59
  -8   0   6 1091.29   64.29
  -7   0   6  995.40   61.39
   6   0  -6  106.69   10.70
  -6   0   6   93.29    8.60
   5   0  -6 2092.79  122.79
   5   0  -6 2038.00  118.29
  -5   0   6 1999.50  120.19
   4   0  -6  766.52   43.70
   4   0  -6  749.62   46.80
  -4   0   6  680.23   43.60
   3   0  -6  948.61   58.09
   3   0  -6 1081.29   60.99
  -3   0   6  912.11   56.79
   2   0  -6 1415.16   90.29
   2   0  -6 1475.45   92.49
  -2   0   6 1696.23   92.89
   1   0  -6   12.80    3.80
   1   0  -6    8.60    2.50
  -1   0   6   25.80    5.10
   0   0  -6 1665.53  101.59
   0   0  -6 1704.33  104.19
   0   0   6 1677.23   99.59
   0   0   6 1795.42  103.89
  -1   0  -6  951.60   54.79
  -1   0  -6  917.61   59.19
  -1   0  -6  895.01   56.49
   1   0   6  919.41   54.99
   1   0   6  910.51   58.39
  -2   0  -6  434.66   29.00
  -2   0  -6  464.25   27.60
  -2   0  -6  425.76   31.30
   2   0   6  447.76   28.00
   2   0   6  399.16   30.40
  -3   0  -6 1431.86   83.69
  -3   0  -6 1359.26   87.29
  -3   0  -6 1401.46   84.89
   3   0   6 1410.26   87.19
   3   0   6 1382.96   84.29
  -4   0  -6  319.77   22.80
  -4   0  -6  329.57   22.00
  -4   0  -6  306.57   32.10
   4   0   6  311.37   22.70
  -5   0  -6  600.44   41.60
  -5   0  -6  591.84   38.10
   5   0   6  562.84   39.00
  -6   0  -6  644.74   44.40
  -6   0  -6  723.43   44.70
   6   0   6  677.33   47.50
   6   0   6  683.63   45.90
  -7   0  -6  114.59   12.20
  -7   0  -6  124.09   13.20
   7   0   6  143.09   15.70
   7   0   6  121.89   13.40
 -10   1   6  359.86   27.00
  -8   1   6 1370.46   83.99
  -7   1   6  299.87   21.20
   6  -1  -6  753.32   50.49
  -6   1   6  802.92   48.30
   5  -1  -6 2233.48  128.99
   5  -1  -6 2061.49  125.99
  -5   1   6 2150.48  126.29
   4  -1  -6   19.90    2.90
   4  -1  -6   12.20    4.00
  -4   1   6   15.30    2.60
   3  -1  -6 1695.43   99.19
   3  -1  -6 1620.14   96.69
  -3   1   6 1599.34   95.49
   2  -1  -6  990.90   60.69
   2  -1  -6  924.21   58.39
  -2   1   6 1049.30   60.69
  -2   1   6  957.40   56.49
  -2   1   6  930.01   56.39
   1  -1  -6  949.01   54.19
   1  -1  -6  822.12   55.89
  -1   1   6  840.32   51.89
  -1   1   6  929.21   55.99
   0  -1  -6 2758.62  162.78
   0  -1  -6 2697.33  165.08
   0   1   6 2749.32  160.98
   0   1   6 2838.62  164.68
  -1  -1  -6  126.69   10.90
  -1  -1  -6  137.99    9.50
  -1  -1  -6  115.59   12.40
   1   1   6  123.99    9.80
   1   1   6  135.99   12.50
  -2  -1  -6 1275.77   72.79
  -2  -1  -6 1178.78   76.59
  -2  -1  -6 1167.98   74.09
   2   1   6 1234.48   73.39
   2   1   6 1211.88   76.09
  -3  -1  -6 1610.34   97.89
  -3  -1  -6 1627.24  100.49
  -3  -1  -6 1676.63   96.69
   3   1   6 1640.54   99.99
   3   1   6 1542.15   97.39
  -4  -1  -6   11.90    5.00
  -4  -1  -6    6.90    3.50
  -4  -1  -6   14.00    3.60
   4   1   6   12.10    4.80
   4   1   6   21.90    4.90
  -5  -1  -6 1120.59   68.09
  -5  -1  -6 1055.39   68.59
   5   1   6 1133.49   71.69
  -6  -1  -6  806.52   48.20
  -6  -1  -6  734.43   48.30
   6   1   6  711.53   49.50
   6   1   6  700.23   50.99
  -7  -1  -6    3.60    3.20
   7   1   6    2.20    4.40
   7   1   6    3.80    4.00
 -10   2   6    7.40    4.30
  -8   2   6  520.25   35.00
   7  -2  -6   39.80    7.40
  -7   2   6   47.00    6.70
   6  -2  -6 1202.38   69.39
   6  -2  -6 1126.59   77.59
  -6   2   6 1209.78   71.99
   5  -2  -6  406.56   28.50
   5  -2  -6  401.66   25.10
  -5   2   6  419.76   26.40
   4  -2  -6  762.02   45.20
   4  -2  -6  754.32   47.90
  -4   2   6  719.53   45.10
   3  -2  -6 1170.98   68.99
   3  -2  -6 1155.08   71.19
  -3   2   6 1122.09   68.09
   2  -2  -6    5.10    3.10
   2  -2  -6    3.80    2.20
  -2   2   6    5.10    3.00
  -2   2   6    1.90    1.10
   1  -2  -6 1721.33  100.09
   1  -2  -6 1684.53  102.29
  -1   2   6 1634.24   98.39
  -1   2   6 1661.83  101.79
   0  -2  -6  883.41   53.89
   0  -2  -6  769.82   55.39
   0   2   6  868.81   52.99
   0   2   6  949.60   55.89
  -1  -2  -6   68.19    7.50
  -1  -2  -6   66.49    8.80
   1   2   6   66.99    8.80
   1   2   6   71.59    6.80
  -2  -2  -6 1969.70  108.89
  -2  -2  -6 1887.61  110.49
  -2  -2  -6 1766.62  112.49
   2   2   6 1778.72  115.09
   2   2   6 1753.92  109.49
  -3  -2  -6 1287.27   72.69
  -3  -2  -6 1107.29   76.29
   3   2   6 1152.38   75.59
   3   2   6 1227.68   73.89
  -4  -2  -6  194.48   14.80
  -4  -2  -6  190.78   17.80
   4   2   6  181.38   15.80
   4   2   6  188.88   17.40
  -5  -2  -6 1199.98   74.69
  -5  -2  -6 1174.98   73.69
   5   2   6 1182.78   75.59
   5   2   6 1238.98   77.49
  -6  -2  -6  292.17   22.40
  -6  -2  -6  236.18   18.80
   6   2   6  202.48   20.00
   6   2   6  245.68   22.40
   9  -3  -6  393.86   30.00
  -9   3   6  431.46   33.00
   8  -3  -6   14.20    4.70
  -8   3   6   13.80    4.60
   7  -3  -6  564.14   39.40
  -7   3   6  611.24   38.70
   6  -3  -6  365.66   21.50
  -6   3   6  323.77   22.20
  -6   3   6  337.07   23.70
   5  -3  -6  435.66   26.30
   5  -3  -6  416.36   29.30
  -5   3   6  401.36   27.00
  -5   3   6  422.36   27.60
   4  -3  -6 1260.07   74.99
   4  -3  -6 1250.97   72.39
  -4   3   6 1266.97   72.79
  -4   3   6 1057.99   72.59
   3  -3  -6  147.29   11.10
   3  -3  -6  139.79   12.80
  -3   3   6  131.69   11.30
   2  -3  -6  598.54   36.40
   2  -3  -6  572.44   38.20
  -2   3   6  546.55   34.70
  -2   3   6  633.94   38.40
  -2   3   6  510.15   36.40
   1  -3  -6 1152.58   72.29
   1  -3  -6 1224.68   70.39
  -1   3   6 1165.98   71.89
  -1   3   6 1041.10   70.39
  -1   3   6 1172.78   68.89
   0  -3  -6  124.89   11.00
   0  -3  -6  127.89   12.70
   0   3   6  134.49   12.40
   0   3   6  116.09    9.90
  -1  -3  -6  753.32   44.90
  -1  -3  -6  630.44   46.10
   1   3   6  677.73   43.80
   1   3   6  730.73   46.30
  -2  -3  -6 1522.95   99.59
   2   3   6 1693.93   99.69
   2   3   6 1617.74   97.39
  -3  -3  -6   11.90    5.10
   3   3   6   19.40    5.00
   3   3   6    9.90    4.70
  -4  -3  -6  838.52   56.39
  -4  -3  -6  832.82   52.59
  -4  -3  -6  862.11   53.99
   4   3   6  834.12   54.59
   4   3   6  830.62   55.89
  -5  -3  -6  431.06   29.00
  -5  -3  -6  434.06   29.90
   5   3   6  396.56   30.70
   5   3   6  404.56   32.00
  -6  -3  -6   15.50    4.70
   6   3   6   10.60    5.30
   6   3   6    3.50    5.00
   9  -4  -6  169.38   15.90
  -9   4   6  170.68   16.10
   8  -4  -6  238.78   20.20
  -8   4   6  245.68   16.80
  -8   4   6  271.67   20.60
   7  -4  -6  837.22   52.89
  -7   4   6  938.51   55.79
  -7   4   6  713.03   49.50
   6  -4  -6    5.70    2.00
   6  -4  -6    7.70    3.80
  -6   4   6   10.30    3.00
  -6   4   6    7.20    3.40
   5  -4  -6 1141.79   69.59
   5  -4  -6 1158.98   66.79
  -5   4   6  999.50   67.39
  -5   4   6 1146.49   68.49
   4  -4  -6  785.72   44.90
   4  -4  -6  734.03   47.00
  -4   4   6  641.84   45.00
   3  -4  -6   63.09    6.70
   3  -4  -6   63.99    8.20
  -3   4   6   56.99    7.60
   2  -4  -6 1825.42  113.79
   2  -4  -6 1893.41  111.89
  -2   4   6 1727.93  112.29
  -2   4   6 2100.89  113.99
  -2   4   6 1830.42  110.59
   1  -4  -6 1165.48   67.29
   1  -4  -6 1051.59   68.89
  -1   4   6 1042.70   67.69
  -1   4   6 1135.59   68.69
  -1   4   6 1064.79   65.99
   0  -4  -6  136.19   13.80
   0  -4  -6  140.59   12.50
   0   4   6  148.99   13.40
   0   4   6  173.48   14.30
   0   4   6  143.09   11.90
  -1  -4  -6 1559.24   99.09
  -1  -4  -6 1502.35   99.49
   1   4   6 1653.23   98.89
   1   4   6 1688.73   97.09
  -2  -4  -6  348.27   28.40
   2   4   6  359.36   26.30
   2   4   6  331.37   24.70
  -3  -4  -6  430.96   30.40
  -3  -4  -6  460.95   32.60
   3   4   6  441.06   38.20
   3   4   6  408.66   31.60
  -4  -4  -6  549.05   36.70
   4   4   6  558.34   37.80
   4   4   6  502.05   38.20
  -5  -4  -6   16.40    5.00
  -5  -4  -6   21.00    5.10
   5   4   6    5.70    5.30
   5   4   6    5.70    7.20
   9  -5  -6    5.90    3.70
  -9   5   6    1.70    2.30
  -9   5   6    5.30    4.20
   8  -5  -6  606.84   40.60
  -8   5   6  581.74   37.50
   7  -5  -6  476.35   28.90
   7  -5  -6  425.26   31.90
  -7   5   6  423.66   29.80
  -7   5   6  512.25   32.80
   6  -5  -6  207.48   16.40
   6  -5  -6  195.28   13.60
  -6   5   6  183.28   19.80
  -6   5   6  160.18   14.10
   5  -5  -6 1393.86   81.49
   5  -5  -6 1266.17   83.39
  -5   5   6 1472.95   83.69
  -5   5   6 1292.77   82.19
   4  -5  -6  547.85   37.10
   4  -5  -6  554.64   39.20
  -4   5   6  544.55   36.00
   3  -5  -6  610.44   41.80
   3  -5  -6  695.43   40.40
  -3   5   6  575.24   40.60
   2  -5  -6 2362.66  132.89
   2  -5  -6 2143.49  134.39
  -2   5   6 2220.78  131.69
  -2   5   6 1984.70  133.19
  -2   5   6 2423.56  134.39
   1  -5  -6  214.58   16.30
   1  -5  -6  187.58   17.10
  -1   5   6  217.78   17.40
  -1   5   6  201.98   17.00
  -1   5   6  206.68   15.50
   0  -5  -6  976.70   64.29
   0  -5  -6 1062.49   63.09
   0   5   6 1020.00   71.79
   0   5   6 1011.40   62.39
   0   5   6  962.40   63.69
  -1  -5  -6 1325.17   84.79
   1   5   6 1377.66   83.29
   1   5   6 1245.98   84.09
   1   5   6 1465.95   84.79
  -2  -5  -6   10.20    4.70
   2   5   6    4.90    4.20
   2   5   6    5.30    3.40
  -3  -5  -6  735.73   46.90
  -3  -5  -6  716.93   48.60
   3   5   6  710.23   48.10
   3   5   6  677.13   47.20
  -4  -5  -6  298.17   22.00
   4   5   6  240.88   22.70
   4   5   6  294.07   23.30
   8  -6  -6  492.95   35.90
  -8   6   6  490.15   33.80
  -8   6   6  596.44   38.10
   7  -6  -6   44.50    7.90
   7  -6  -6   44.80    5.20
  -7   6   6   27.70    5.30
   6  -6  -6  663.23   39.30
   6  -6  -6  588.64   41.20
  -6   6   6  653.73   42.30
  -6   6   6  569.74   39.80
   5  -6  -6 1098.79   63.49
   5  -6  -6 1000.70   65.49
  -5   6   6  984.50   64.99
   4  -6  -6   10.60    3.40
   4  -6  -6    5.90    4.00
  -4   6   6   11.80    4.00
   3  -6  -6 1352.06   74.19
   3  -6  -6 1122.99   74.99
  -3   6   6 1131.69   74.49
   2  -6  -6  841.02   59.39
   2  -6  -6 1044.80   58.99
  -2   6   6  971.40   57.89
  -2   6   6  878.71   59.39
   1  -6  -6   42.60    7.80
   1  -6  -6   35.70    6.50
  -1   6   6   40.40    8.50
  -1   6   6   44.60    6.90
  -1   6   6   35.40    7.10
   0  -6  -6 1115.89   65.49
   0  -6  -6  979.10   66.09
   0   6   6 1061.59   65.99
   0   6   6 1046.80   65.09
   0   6   6  992.20   66.29
  -1  -6  -6  318.97   30.70
  -1  -6  -6  315.87   23.10
   1   6   6  342.07   24.10
   1   6   6  258.17   23.60
   1   6   6  301.77   23.10
  -2  -6  -6  249.78   21.80
  -2  -6  -6  295.47   21.70
   2   6   6  256.97   21.40
   2   6   6  277.77   21.70
  -3  -6  -6  474.15   32.50
   3   6   6  452.45   33.50
   3   6   6  440.66   33.10
   7  -7  -6  147.59   14.30
   7  -7  -6  173.38   12.90
  -7   7   6  129.69   12.90
  -7   7   6  184.88   16.40
   6  -7  -6  642.54   46.60
   6  -7  -6  805.42   45.70
  -6   7   6  730.43   53.09
  -6   7   6  681.73   46.00
   5  -7  -6  168.08   13.50
   5  -7  -6  143.79   15.60
  -5   7   6  159.58   14.10
   4  -7  -6  445.06   27.60
   4  -7  -6  372.06   28.00
  -4   7   6  353.76   27.60
   3  -7  -6  568.24   40.10
   3  -7  -6  653.43   39.70
  -3   7   6  570.44   40.20
   2  -7  -6   16.50    5.20
   2  -7  -6   21.60    5.50
  -2   7   6   22.80    4.80
  -2   7   6   24.70    6.20
   1  -7  -6  401.96   30.20
   1  -7  -6  469.95   30.40
  -1   7   6  397.06   30.90
  -1   7   6  455.45   30.30
  -1   7   6  413.06   29.70
   0  -7  -6  306.57   23.30
   0  -7  -6  324.67   27.70
   0   7   6  263.67   23.10
   0   7   6  296.17   22.60
   0   7   6  278.37   22.20
  -1  -7  -6   21.60    5.40
  -1  -7  -6   32.20    6.50
   1   7   6   18.00    5.90
   1   7   6   13.90    5.30
   1   7   6   12.70    4.60
  -2  -7  -6  257.97   21.10
   2   7   6  256.47   21.30
   2   7   6  244.48   21.90
   2   7   6  258.17   21.00
   6  -8  -6  474.35   28.60
   6  -8  -6  386.96   28.90
  -6   8   6  347.07   28.00
   5  -8  -6   32.80    7.00
   5  -8  -6   33.60    6.20
  -5   8   6   31.10    6.20
   4  -8  -6  531.25   38.80
   4  -8  -6  656.53   39.40
  -4   8   6  557.34   39.30
   3  -8  -6   90.69   14.50
   3  -8  -6   78.29    9.50
  -3   8   6   81.99   11.20
  -3   8   6   78.39    9.00
   2  -8  -6  131.59   13.40
   2  -8  -6  167.38   14.30
  -2   8   6  164.58   15.20
  -2   8   6  151.48   13.90
   1  -8  -6  353.76   24.60
   1  -8  -6  283.57   23.40
  -1   8   6  330.27   24.40
   0  -8  -6   -0.40    2.90
   0   8   6   -1.60    3.80
   0   8   6    7.00    3.30
   0   8   6    4.50    3.80
   2  10  -7   72.59    6.80
   2  10  -7   58.39    9.60
   2  10  -7   50.69    7.30
   1  10  -7   84.69    6.70
   1  10  -7   75.39    8.60
   1  10  -7   79.09    9.70
   0  10  -7  424.26   25.40
   0  10  -7  416.66   28.40
   0  10  -7  398.26   29.50
  -1  10  -7   24.90    5.30
  -2  10  -7  400.76   27.80
  -3  10  -7  299.87   26.90
  -4  10  -7    6.60    3.60
  -4  10  -7    8.40    8.90
   4 -10   7   11.60    3.20
   4   9  -7  199.78   15.70
   4   9  -7  196.98   15.10
   4   9  -7  173.98   17.90
   3   9  -7  159.88   13.90
   3   9  -7  176.88   13.80
   3   9  -7  175.18   16.30
   2   9  -7   45.40    5.90
   2   9  -7   50.59    8.80
   2   9  -7   34.20    5.60
   1   9  -7  404.76   26.90
   1   9  -7  401.56   27.10
   1   9  -7  400.06   28.50
   0   9  -7  126.69   11.00
   0   9  -7  121.69   11.80
   0   9  -7  131.69   10.50
  -1   9  -7  184.68   13.40
  -1   9  -7  175.28   14.30
  -2   9  -7  521.75   34.30
  -3   9  -7   23.10    4.90
   3  -9   7   24.80    4.40
  -4   9  -7  210.08   16.60
  -4   9  -7  252.87   19.80
   4  -9   7  185.18   15.90
  -5   9  -7  445.16   32.40
  -5   9  -7  430.46   29.70
   5  -9   7  401.46   29.80
   5   8  -7  126.89   10.40
   5   8  -7  132.19   14.10
   5   8  -7   87.99   17.00
   4   8  -7  669.53   43.20
   4   8  -7  623.04   44.90
   4   8  -7  688.13   41.80
   3   8  -7   10.70    3.30
   3   8  -7   15.00    4.20
   3   8  -7    4.30    4.60
   2   8  -7  543.25   36.50
   2   8  -7  506.25   35.40
   2   8  -7  561.34   36.10
   1   8  -7  714.33   43.20
   1   8  -7  691.73   44.30
   1   8  -7  653.73   44.10
   0   8  -7   69.39    7.30
   0   8  -7   79.09    8.20
  -1   8  -7 1115.09   65.79
  -1   8  -7 1016.90   64.99
  -2   8  -7  481.95   30.90
  -2   8  -7  467.65   30.90
   2  -8   7  450.25   30.20
  -3   8  -7  102.69    9.70
  -3   8  -7  102.59   11.30
  -3   8  -7  101.29    9.60
   3  -8   7   87.09    9.40
  -4   8  -7  800.72   49.00
  -4   8  -7  735.83   46.60
   4  -8   7  660.33   47.10
  -5   8  -7  133.59   12.50
  -5   8  -7  152.18   14.70
   5  -8   7  132.09   13.90
  -6   8  -7  160.38   15.90
  -6   8  -7  140.09   13.10
   6  -8   7  132.19   19.40
   6   7  -7    8.00    4.30
   6   7  -7    2.70    3.20
   6   7  -7    1.10    2.20
   5   7  -7  709.63   50.39
   5   7  -7  809.32   47.30
   4   7  -7  557.34   40.00
   4   7  -7  616.94   39.60
   4   7  -7  609.84   37.30
   3   7  -7  192.48   16.40
   3   7  -7  230.68   15.10
   3   7  -7  201.18   17.10
   2   7  -7 1427.16   89.09
   2   7  -7 1508.55   87.39
   2   7  -7 1449.35   89.29
   1   7  -7  419.76   29.80
   1   7  -7  437.76   27.90
   1   7  -7  437.96   28.90
   0   7  -7  712.73   43.30
   0   7  -7  676.73   45.20
  -1   7  -7 1365.56   80.49
  -1   7  -7 1294.17   82.09
   1  -7   7 1345.87   80.69
  -2   7  -7   68.59    7.40
  -2   7  -7   69.49    8.30
   2  -7   7   69.69    7.90
  -3   7  -7  860.71   54.29
  -3   7  -7  912.11   54.69
   3  -7   7  788.92   54.19
  -4   7  -7 1052.19   63.09
   4  -7   7  928.21   63.29
  -5   7  -7    8.00    4.20
   5  -7   7    3.70    3.80
  -6   7  -7  400.66   30.10
   6  -7   7  421.66   32.40
  -7   7  -7  264.37   21.70
   7  -7   7  219.28   22.30
   7   6  -7  134.59   13.40
   7   6  -7  133.09   14.00
   6   6  -7  238.98   15.60
   6   6  -7  211.68   18.80
   6   6  -7  224.68   18.80
   5   6  -7  920.71   53.49
   5   6  -7  874.01   56.69
   5   6  -7  849.81   59.29
   4   6  -7   -0.40    2.50
   4   6  -7    2.10    1.70
   4   6  -7    8.10    3.30
   3   6  -7  856.91   58.49
   3   6  -7  965.60   56.79
   3   6  -7 1003.00   59.49
   2   6  -7 1204.08   71.39
   2   6  -7 1153.58   73.69
   2   6  -7 1224.28   72.99
   1   6  -7    3.40    2.00
   1   6  -7    6.50    2.60
   1   6  -7    0.60    2.40
   0   6  -7  981.70   58.79
   0   6  -7  912.51   61.29
   0  -6   7 1012.20   59.89
  -1   6  -7  688.33   44.90
   1  -6   7  669.53   43.30
  -2   6  -7   14.60    3.70
  -2   6  -7   12.90    4.30
   2  -6   7   10.90    3.80
  -3   6  -7  908.41   60.09
  -3   6  -7  957.20   58.89
   3  -6   7  965.70   60.59
  -4   6  -7  272.37   20.10
  -4   6  -7  276.17   21.30
   4  -6   7  246.68   21.60
  -5   6  -7  225.88   18.20
   5  -6   7  223.68   20.20
  -6   6  -7  554.64   37.50
   6  -6   7  527.05   39.80
  -7   6  -7   28.30    7.90
   7  -6   7   15.10    9.60
   8   5  -7  269.17   21.70
   8   5  -7  247.68   21.40
   7   5  -7   32.00    6.80
   7   5  -7   56.39    8.30
   6   5  -7  980.60   63.59
   6   5  -7  953.30   64.19
   6   5  -7 1084.79   59.99
   5   5  -7  176.78   12.10
   5   5  -7  191.18   15.90
   5   5  -7  178.88   14.70
   4   5  -7  369.96   24.60
   4   5  -7  364.76   25.80
   4   5  -7  349.37   22.50
   3   5  -7  874.11   54.59
   3   5  -7  862.01   53.19
   3   5  -7  938.91   56.39
   2   5  -7  145.09   11.10
   2   5  -7  140.89   10.20
   2   5  -7  134.89   12.50
   1   5  -7  318.07   20.10
   1   5  -7  281.37   22.20
   0   5  -7  637.14   44.90
   0  -5   7  728.73   43.90
  -1   5  -7  240.18   16.30
  -1   5  -7  219.68   18.90
   1  -5   7  237.98   18.10
  -2   5  -7  361.26   26.50
  -2   5  -7  337.17   23.30
   2  -5   7  363.16   25.80
  -3   5  -7  652.03   45.30
  -3   5  -7  683.43   42.80
   3  -5   7  703.03   46.00
  -4   5  -7   21.10    4.40
  -4   5  -7   17.30    5.20
   4  -5   7   16.60    5.70
  -5   5  -7  489.85   33.10
  -6   5  -7  161.18   14.40
   6  -5   7  152.98   16.80
  -7   5  -7  145.29   14.50
   7  -5   7  160.48   19.40
   8   4  -7   43.00    7.50
   8   4  -7   31.60    7.10
  -8  -4   7   34.20    7.20
   7   4  -7  717.23   47.10
   7   4  -7  692.63   48.20
  -7  -4   7  767.72   46.30
   6   4  -7 1074.49   67.79
   6   4  -7 1130.39   69.69
   5   4  -7   14.20    4.70
   5   4  -7   19.00    4.10
   5   4  -7   17.00    2.30
   4   4  -7  887.51   53.19
   4   4  -7  881.91   51.79
   4   4  -7  844.72   55.29
   3   4  -7 1102.59   64.69
   3   4  -7 1111.09   68.09
   3   4  -7 1065.89   65.39
   2   4  -7   16.30    4.30
   2   4  -7   15.40    2.80
   1   4  -7 1050.09   71.59
   1   4  -7 1183.78   68.49
  -1  -4   7 1223.98   71.19
   0   4  -7  630.24   46.90
   0   4  -7  739.63   43.50
   0  -4   7  791.72   46.60
  -1   4  -7  200.48   17.10
  -1   4  -7  184.78   13.10
   1  -4   7  201.28   16.10
  -2   4  -7 1323.57   92.29
  -2   4  -7 1527.85   88.79
   2  -4   7 1625.24   92.59
  -3   4  -7   12.10    4.60
  -3   4  -7    3.20    2.30
   3  -4   7    5.80    3.90
  -4   4  -7  747.63   47.30
  -4   4  -7  717.93   52.79
   4  -4   7  798.32   51.29
  -5   4  -7  461.75   34.60
  -5   4  -7  483.45   31.90
  -6   4  -7   49.30    7.50
   6  -4   7   35.00    8.10
  -7   4  -7  598.34   38.60
   7  -4   7  515.45   41.10
   9   3  -7  427.56   31.80
  -9  -3   7  470.65   31.60
   8   3  -7   39.80    6.90
  -8  -3   7   41.70    6.40
   7   3  -7 1304.77   79.69
   7   3  -7 1267.67   81.49
  -7  -3   7 1334.37   79.19
   6   3  -7  692.13   45.20
   6   3  -7  651.53   42.80
  -6  -3   7  701.93   42.50
   5   3  -7  131.19   10.20
   5   3  -7  147.69   13.00
   5   3  -7  135.29    8.30
   5   3  -7  117.59    8.50
   4   3  -7 1986.70  115.99
   4   3  -7 1993.80  120.09
   3   3  -7  632.44   40.90
   3   3  -7  614.14   37.30
   2   3  -7 1114.19   64.29
   2   3  -7 1080.39   68.49
   1   3  -7 2227.38  138.19
   1   3  -7 2145.39  133.49
   1   3  -7 2327.17  133.59
  -1  -3   7 2525.65  137.89
   0   3  -7   10.80    4.40
   0   3  -7    8.80    1.60
   0  -3   7   10.60    3.90
  -1   3  -7 1696.43  113.69
  -1   3  -7 1911.51  109.19
   1  -3   7 1973.90  113.39
  -2   3  -7  579.54   45.60
  -2   3  -7  722.23   42.10
   2  -3   7  756.12   46.30
  -3   3  -7  603.14   35.50
  -3   3  -7  518.15   39.00
   3  -3   7  548.95   38.90
  -4   3  -7 1077.89   73.99
  -4   3  -7 1227.78   70.59
   4  -3   7 1154.88   74.29
  -5   3  -7  139.09   15.10
  -5   3  -7  153.88   12.60
   5  -3   7  133.39   16.50
  -6   3  -7  614.04   40.30
   6  -3   7  605.44   43.80
  -7   3  -7  772.52   52.09
   7  -3   7  848.22   56.69
   9   2  -7   98.99   10.90
  -9  -2   7   94.29   10.30
   8   2  -7  362.66   26.30
  -8  -2   7  390.16   26.40
   7   2  -7 1233.78   76.79
   7   2  -7 1170.58   74.09
  -7  -2   7 1250.57   74.19
   6   2  -7  104.49   10.60
   6   2  -7   69.59    7.10
  -6  -2   7   70.29    7.10
   5   2  -7  758.82   44.10
   5   2  -7  815.02   44.40
   5   2  -7  730.23   45.90
   5   2  -7  730.83   49.00
  -5  -2   7  736.43   45.70
   4   2  -7 1486.35   87.79
   4   2  -7 1427.06   87.39
   4   2  -7 1569.94   91.49
   3   2  -7  130.29   12.20
   2   2  -7 1156.08   77.49
  -2  -2   7 1365.86   77.79
   1   2  -7  292.57   23.40
  -1  -2   7  345.17   23.40
   0   2  -7  692.83   41.70
   0   2  -7  662.33   46.90
   0  -2   7  799.12   47.00
  -1   2  -7 1601.34  103.19
  -1   2  -7 1708.03   98.09
   1  -2   7 1706.43  102.49
  -2   2  -7   11.10    4.40
  -2   2  -7   12.50    2.60
   2  -2   7   11.40    4.70
  -3   2  -7  720.33   50.69
  -3   2  -7  794.82   46.50
   3  -2   7  736.03   50.19
  -4   2  -7  866.31   60.39
  -4   2  -7  946.51   56.59
   4  -2   7  935.01   61.49
  -5   2  -7   23.10    6.70
  -5   2  -7   20.50    4.50
   5  -2   7   26.40    6.90
   5  -2   7   17.90    4.90
  -6   2  -7  864.01   57.29
  -6   2  -7  941.41   57.09
   6  -2   7  937.21   61.09
   6  -2   7  856.01   57.89
  -7   2  -7  401.66   27.80
  -7   2  -7  357.86   27.50
   7  -2   7  356.26   28.60
   7  -2   7  411.06   31.80
   9   1  -7   30.80    6.10
   8   1  -7  703.73   45.00
   8   1  -7  691.33   47.10
  -8  -1   7  708.23   45.10
   7   1  -7  214.98   17.50
   7   1  -7  194.58   14.80
  -7  -1   7  185.48   14.80
   6   1  -7  389.26   27.30
   6   1  -7  355.76   23.90
  -6  -1   7  367.66   24.10
   5   1  -7 1000.00   61.89
   5   1  -7 1028.40   57.09
  -5  -1   7  897.71   58.09
   4   1  -7   16.90    4.80
   4   1  -7   29.30    3.60
  -4  -1   7   23.70    2.40
   3   1  -7  584.14   37.80
   3   1  -7  655.83   41.00
   2   1  -7  243.38   17.30
   2   1  -7  237.68   19.60
  -2  -1   7  296.47   20.10
   1   1  -7   55.19    6.00
   1   1  -7   65.39    8.10
  -1  -1   7   61.59    7.90
   0   1  -7 1161.28   75.69
   0  -1   7 1248.08   75.29
  -1   1  -7  430.36   31.80
  -1   1  -7  444.36   26.70
   1  -1   7  433.76   30.90
  -2   1  -7  484.55   29.90
  -2   1  -7  434.06   34.10
   2  -1   7  484.55   30.30
   2  -1   7  512.25   34.20
  -3   1  -7 1093.49   63.69
  -3   1  -7 1025.80   69.49
   3  -1   7 1030.20   64.19
  -4   1  -7  335.37   26.80
  -4   1  -7  344.27   22.90
   4  -1   7  321.57   23.50
  -5   1  -7  376.06   29.70
  -5   1  -7  396.56   26.00
  -5   1  -7  356.66   26.50
   5  -1   7  364.06   26.80
  -6   1  -7  519.75   34.50
  -6   1  -7  517.65   35.10
   6  -1   7  490.45   35.70
  -7   1  -7   51.39    8.40
  -7   1  -7   40.60    7.40
   7  -1   7   40.60    8.40
   7  -1   7   55.89   10.80
  -9   0   7  276.67   23.10
   8   0  -7  532.35   37.30
   7   0  -7   35.60    7.40
  -7   0   7   29.60    5.10
   6   0  -7  819.02   51.59
  -6   0   7  766.72   48.30
   5   0  -7  374.56   25.90
  -5   0   7  334.07   22.10
   4   0  -7  742.23   42.50
   4   0  -7  706.63   45.70
  -4   0   7  652.03   41.20
   3   0  -7 1070.79   67.19
   3   0  -7 1180.18   70.39
   2   0  -7  143.29   13.80
   2   0  -7  157.58   11.90
  -2   0   7  172.38   14.20
   1   0  -7 1388.06   87.19
   1   0  -7 1364.06   84.29
  -1   0   7 1469.05   86.79
   0   0  -7 1514.75   92.79
   0   0  -7 1444.66   89.59
   0   0   7 1448.36   86.99
   0   0   7 1569.14   92.09
  -1   0  -7   44.30    4.20
  -1   0  -7   39.20    7.90
  -1   0  -7   41.10    6.20
   1   0   7   48.40    4.50
   1   0   7   32.60    7.80
  -2   0  -7 1423.26   89.69
  -2   0  -7 1582.54   87.99
  -2   0  -7 1409.36   92.69
   2   0   7 1517.15   92.19
   2   0   7 1459.75   88.29
  -3   0  -7  854.81   50.49
  -3   0  -7  790.82   54.89
   3   0   7  809.02   51.09
  -4   0  -7   29.50    5.20
  -4   0  -7   42.80    8.80
   4   0   7   43.30    6.70
  -5   0  -7  728.83   50.69
  -5   0  -7  840.62   50.19
  -5   0  -7  770.62   54.29
   5   0   7  814.62   54.09
  -6   0  -7  272.87   20.00
   6   0   7  225.68   20.60
   6   0   7  274.07   23.90
  -7   0  -7   38.10    7.90
  -7   0  -7   42.40    7.60
   7   0   7   46.50    9.20
  -9   1   7  718.53   47.40
   8  -1  -7  190.48   16.90
  -8   1   7  159.98   19.30
   7  -1  -7  376.86   26.90
  -7   1   7  337.57   24.00
   6  -1  -7 1038.50   65.09
   6  -1  -7 1019.60   59.69
  -6   1   7 1014.90   61.99
   5  -1  -7    8.00    3.90
   5  -1  -7    4.60    1.60
  -5   1   7    3.80    1.70
   4  -1  -7 2120.29  125.09
   4  -1  -7 2105.69  121.79
  -4   1   7 1986.00  120.89
   3  -1  -7 1061.19   61.99
   3  -1  -7 1014.20   64.59
  -3   1   7 1008.10   59.49
  -3   1   7 1006.60   59.39
   2  -1  -7  170.58   13.30
   2  -1  -7  165.28   15.20
  -2   1   7  199.68   15.80
   1  -1  -7 3263.17  193.98
   1  -1  -7 3261.77  191.18
  -1   1   7 3199.48  188.38
  -1   1   7 3277.77  193.38
   0  -1  -7  682.03   46.60
   0  -1  -7  687.53   43.90
   0   1   7  751.42   46.30
   0   1   7  663.23   41.60
  -1  -1  -7  601.44   39.80
  -1  -1  -7  568.94   42.20
   1   1   7  667.83   42.20
   1   1   7  629.44   38.20
  -2  -1  -7 1927.81  118.39
  -2  -1  -7 2099.49  116.49
  -2  -1  -7 1904.31  121.29
   2   1   7 1975.30  120.59
   2   1   7 1936.61  117.09
  -3  -1  -7  362.06   28.50
  -3  -1  -7  386.86   24.40
   3   1   7  369.86   25.40
   3   1   7  337.97   27.70
  -4  -1  -7  700.93   45.90
  -4  -1  -7  710.53   44.70
  -4  -1  -7  678.13   48.60
   4   1   7  700.13   48.20
   4   1   7  715.23   45.80
  -5  -1  -7  695.93   44.60
  -5  -1  -7  691.63   45.70
  -5  -1  -7  712.33   49.20
   5   1   7  720.53   49.00
   5   1   7  658.03   45.90
  -6  -1  -7   19.00    4.90
  -6  -1  -7    6.60    3.90
   6   1   7   23.60    8.00
   6   1   7   19.40    5.70
   8  -2  -7   14.40    4.90
  -8   2   7   15.10    4.50
   7  -2  -7  782.42   53.39
  -7   2   7  852.41   51.39
   6  -2  -7  253.77   15.90
   6  -2  -7  240.98   20.00
  -6   2   7  259.07   17.80
   5  -2  -7  630.24   38.10
  -5   2   7  615.64   38.50
   4  -2  -7 1541.25   89.39
   4  -2  -7 1486.15   92.39
  -4   2   7 1472.95   88.59
   3  -2  -7  288.37   18.90
   3  -2  -7  254.07   20.90
  -3   2   7  270.57   18.00
  -3   2   7  263.57   16.70
   2  -2  -7 1038.50   67.59
   2  -2  -7 1066.69   65.09
  -2   2   7 1101.79   68.79
  -2   2   7 1060.59   62.89
   1  -2  -7 2008.10  127.29
   1  -2  -7 2182.88  124.99
  -1   2   7 2119.69  129.79
  -1   2   7 2070.19  122.69
   0  -2  -7   72.49   10.90
   0  -2  -7   67.59    8.00
   0   2   7   69.39    9.20
   0   2   7   69.79    6.30
  -1  -2  -7 1262.17   76.89
  -1  -2  -7 1224.78   79.59
   1   2   7 1277.07   75.49
   1   2   7 1238.18   78.59
  -2  -2  -7 1246.78   80.49
   2   2   7 1227.18   76.69
   2   2   7 1315.87   79.99
  -3  -2  -7    6.90    4.20
  -3  -2  -7   14.10    3.70
   3   2   7   16.60    4.50
   3   2   7   10.20    4.80
  -4  -2  -7 1006.70   64.29
  -4  -2  -7 1010.60   67.39
  -4  -2  -7 1084.99   62.99
   4   2   7 1009.90   66.79
   4   2   7  963.90   65.29
  -5  -2  -7  222.98   17.20
  -5  -2  -7  205.88   19.10
   5   2   7  226.08   19.00
  -6  -2  -7   58.49    9.10
  -6  -2  -7   85.59    9.70
   6   2   7   74.49   11.40
   6   2   7   81.89   15.60
   9  -3  -7   -0.10    3.40
   8  -3  -7  431.06   31.30
  -8   3   7  423.66   29.70
   7  -3  -7  401.76   30.80
  -7   3   7  459.65   29.60
   6  -3  -7   65.39    9.50
   6  -3  -7   59.39    5.30
  -6   3   7   53.69    6.80
   5  -3  -7 1072.49   70.59
   5  -3  -7 1177.38   67.49
  -5   3   7 1109.59   67.89
   4  -3  -7  458.05   33.90
   4  -3  -7  505.85   31.50
  -4   3   7  497.25   31.10
   3  -3  -7   59.29    9.10
   3  -3  -7   42.90    6.30
  -3   3   7   58.29    5.10
   2  -3  -7 1941.11  125.79
   2  -3  -7 2116.89  123.49
  -2   3   7 2170.28  125.89
  -2   3   7 2057.39  121.69
   1  -3  -7  512.75   36.70
   1  -3  -7  561.34   34.70
  -1   3   7  484.35   32.70
  -1   3   7  551.44   36.60
   0  -3  -7  169.18   15.90
   0  -3  -7  170.08   14.00
   0   3   7  155.28   15.20
   0   3   7  167.58   12.60
  -1  -3  -7 1099.29   66.59
   1   3   7 1053.29   65.29
   1   3   7 1046.00   68.09
  -2  -3  -7   86.39   11.20
   2   3   7   99.79   11.60
   2   3   7   92.79    9.60
  -3  -3  -7  352.76   28.70
  -3  -3  -7  371.76   27.70
   3   3   7  366.66   28.30
   3   3   7  369.26   26.50
  -4  -3  -7  311.17   25.90
  -4  -3  -7  301.67   27.80
  -4  -3  -7  315.47   22.00
   4   3   7  282.47   24.90
   4   3   7  318.87   23.90
  -5  -3  -7   -0.90    2.70
  -5  -3  -7   -3.80    3.10
   5   3   7    5.00    5.50
   5   3   7    1.80    3.90
   9  -4  -7  144.99   15.60
  -9   4   7  186.58   16.20
   8  -4  -7  885.61   61.89
  -8   4   7 1040.80   61.79
   7  -4  -7  150.38   10.20
   7  -4  -7  113.79   13.30
  -7   4   7  148.59   14.70
   6  -4  -7  550.64   38.60
   6  -4  -7  570.34   35.00
  -6   4   7  596.94   37.20
  -6   4   7  531.65   36.00
   5  -4  -7 1344.87   76.69
   5  -4  -7 1284.67   79.69
  -5   4   7 1151.58   77.19
  -5   4   7 1304.47   77.59
   4  -4  -7   77.89    7.50
   4  -4  -7   67.59   11.00
  -4   4   7   60.69    7.70
   3  -4  -7 1077.29   71.09
   3  -4  -7 1232.68   69.39
  -3   4   7 1055.69   69.29
  -3   4   7 1121.39   67.19
   2  -4  -7 1294.27   73.59
   2  -4  -7 1196.08   75.79
  -2   4   7 1264.97   75.59
  -2   4   7 1115.19   73.89
  -2   4   7 1120.69   71.69
   1  -4  -7   23.50    6.10
   1  -4  -7   36.10    6.10
  -1   4   7   43.40    5.70
  -1   4   7   37.00    7.30
   0  -4  -7  882.21   54.89
   0  -4  -7  768.42   59.49
   0   4   7  859.21   53.69
   0   4   7  932.11   56.79
  -1  -4  -7  368.96   29.60
  -1  -4  -7  399.66   27.90
   1   4   7  401.76   27.20
   1   4   7  401.96   29.50
  -2  -4  -7  162.88   14.10
  -2  -4  -7  135.59   15.00
   2   4   7  162.48   14.00
   2   4   7  155.98   15.20
  -3  -4  -7  426.46   33.30
   3   4   7  433.56   32.90
   3   4   7  458.95   31.60
  -4  -4  -7    7.90    5.20
  -4  -4  -7    8.20    4.30
   4   4   7   10.40    4.60
   8  -5  -7  688.63   48.80
  -8   5   7  761.72   45.80
   7  -5  -7   24.50    4.10
   7  -5  -7   37.50    7.60
  -7   5   7   29.90    6.60
  -7   5   7   26.60    5.10
   6  -5  -7 1351.66   79.19
   6  -5  -7 1248.78   80.59
  -6   5   7 1215.28   78.39
  -6   5   7 1324.47   80.69
   5  -5  -7  995.60   55.29
   5  -5  -7  828.52   57.29
  -5   5   7  818.02   55.69
  -5   5   7  901.71   56.29
   4  -5  -7   94.19    8.80
   4  -5  -7   78.99   10.30
  -4   5   7   78.89    9.20
   3  -5  -7 1677.03   92.19
   3  -5  -7 1335.07   96.69
  -3   5   7 1559.24   90.49
  -3   5   7 1452.05   92.59
   2  -5  -7  223.08   19.40
   2  -5  -7  230.28   17.20
  -2   5   7  204.28   17.70
  -2   5   7  216.18   16.00
  -2   5   7  215.68   18.30
   1  -5  -7  444.26   29.60
  -1   5   7  430.36   30.80
  -1   5   7  447.16   28.70
  -1   5   7  372.96   30.00
   0  -5  -7  916.81   64.29
   0  -5  -7 1065.09   63.09
   0   5   7  947.11   61.89
   0   5   7 1060.39   64.39
  -1  -5  -7    0.80    3.10
  -1  -5  -7    4.10    3.50
   1   5   7    4.00    3.60
   1   5   7    0.40    2.90
  -2  -5  -7  634.94   42.50
  -2  -5  -7  595.34   43.50
   2   5   7  651.03   42.10
   2   5   7  609.44   43.00
  -3  -5  -7  230.58   19.50
  -3  -5  -7  253.27   21.70
   3   5   7  212.98   19.50
   3   5   7  247.48   21.20
   7  -6  -7  244.78   21.20
   7  -6  -7  281.67   18.80
   6  -6  -7  738.23   51.09
   6  -6  -7  835.62   48.80
  -6   6   7  700.73   49.30
  -6   6   7  819.82   51.29
   5  -6  -7  115.09   10.40
   5  -6  -7  107.29   12.00
  -5   6   7  108.59   11.20
   4  -6  -7  595.74   34.40
   4  -6  -7  442.96   35.10
  -4   6   7  478.45   34.50
   3  -6  -7  667.73   49.10
   3  -6  -7  838.12   48.20
  -3   6   7  697.63   48.50
  -3   6   7  762.42   46.70
   2  -6  -7   17.30    5.40
   2  -6  -7   16.90    5.00
  -2   6   7   11.70    4.40
  -2   6   7    9.40    3.60
   1  -6  -7  576.64   38.00
   1  -6  -7  551.74   39.50
  -1   6   7  581.04   39.00
  -1   6   7  588.54   37.50
  -1   6   7  520.25   38.90
   0  -6  -7  217.18   18.80
   0  -6  -7  204.78   20.20
   0   6   7  197.38   16.90
   0   6   7  191.48   18.20
   0   6   7  230.98   18.60
  -1  -6  -7  222.28   19.70
  -1  -6  -7  218.08   18.70
   1   6   7  235.38   18.80
   1   6   7  226.98   19.40
  -2  -6  -7  424.76   33.00
  -2  -6  -7  494.85   33.70
   2   6   7  441.96   32.20
   2   6   7  434.36   32.90
   6  -7  -7  210.08   18.40
   6  -7  -7  222.88   17.00
  -6   7   7  223.58   19.10
  -6   7   7  196.88   17.20
   5  -7  -7   65.19   10.00
   5  -7  -7   72.59    8.30
  -5   7   7   49.99    8.40
   4  -7  -7  387.26   31.20
   4  -7  -7  492.15   30.80
  -4   7   7  416.16   31.10
  -4   7   7  454.65   29.60
   3  -7  -7    7.10    3.70
   3  -7  -7    3.30    3.40
  -3   7   7    8.90    3.90
  -3   7   7   10.80    3.80
   2  -7  -7  191.28   17.90
   2  -7  -7  251.07   20.40
  -2   7   7  206.48   16.90
  -2   7   7  209.98   18.50
   1  -7  -7  210.38   19.30
   1  -7  -7  259.37   19.50
  -1   7   7  243.18   20.50
  -1   7   7  222.58   18.50
  -1   7   7  236.58   19.40
   0  -7  -7   13.60    5.40
   0  -7  -7   16.90    5.00
   0   7   7   10.20    5.80
   0   7   7   17.30    5.30
   0   7   7    1.50    3.30
  -1  -7  -7  305.07   25.00
   1   7   7  334.47   24.80
   1   7   7  309.27   24.70
   3  -8  -7   88.59   10.40
   3  -8  -7  107.59   11.50
  -3   8   7  105.29   10.70
  -3   8   7   87.99   12.80
   1  10  -8  472.55   33.00
   1  10  -8  526.35   35.30
   1  10  -8  499.45   32.30
   0  10  -8   69.09    8.50
   0  10  -8   75.79    9.30
   0  10  -8   85.79    7.60
  -1  10  -8  236.78   19.00
  -1  10  -8  265.27   17.60
  -2  10  -8  540.45   36.10
  -3  10  -8   -2.80    2.50
  -3  10  -8    7.30    5.10
   3 -10   8    2.70    2.20
   3   9  -8   18.80    4.50
   3   9  -8   23.00    6.30
   3   9  -8   18.40    4.80
   2   9  -8  376.56   25.50
   2   9  -8  340.17   26.00
   2   9  -8  331.87   23.90
   1   9  -8  327.77   24.30
   1   9  -8  341.27   23.10
   1   9  -8  323.07   23.80
   0   9  -8   51.09    6.70
   0   9  -8   58.39    7.50
   0   9  -8   42.10    7.30
  -1   9  -8  506.55   33.00
  -1   9  -8  486.05   32.80
  -2   9  -8  130.09   11.90
  -2   9  -8  132.09   11.60
   2  -9   8  138.39   11.20
  -3   9  -8  105.49   10.30
  -3   9  -8   99.29   11.50
   3  -9   8   88.89    9.20
  -4   9  -8  300.37   23.20
  -4   9  -8  282.87   21.10
   4  -9   8  251.97   20.60
   5   8  -8  540.45   36.30
   5   8  -8  473.15   36.40
   5   8  -8  541.45   33.60
   4   8  -8   68.99   10.40
   4   8  -8   58.59    9.10
   4   8  -8   82.59    7.60
   3   8  -8  357.76   26.10
   3   8  -8  360.56   26.50
   2   8  -8  673.43   42.10
   2   8  -8  654.23   43.80
   2   8  -8  680.73   44.40
   1   8  -8   21.10    4.80
   1   8  -8   29.00    4.90
   1   8  -8   19.80    5.70
   0   8  -8  617.14   39.30
   0   8  -8  619.04   41.30
  -1   8  -8  482.35   31.60
  -1   8  -8  481.65   33.20
  -2   8  -8   20.80    4.70
  -2   8  -8   23.70    5.20
   2  -8   8   18.70    4.50
  -3   8  -8  376.36   26.50
  -3   8  -8  365.86   25.50
  -3   8  -8  392.36   27.10
   3  -8   8  334.07   25.90
  -4   8  -8  216.78   16.90
  -4   8  -8  216.48   18.00
   4  -8   8  188.58   17.60
  -5   8  -8   70.49   10.80
   5  -8   8   58.39   15.50
   6   7  -8  441.06   33.40
   6   7  -8  507.65   30.20
   6   7  -8  452.55   33.60
   5   7  -8  652.53   40.00
   5   7  -8  635.64   43.40
   4   7  -8   15.80    4.80
   4   7  -8   14.40    3.30
   4   7  -8   15.00    4.30
   3   7  -8  965.80   61.49
   3   7  -8  984.50   58.59
   3   7  -8  940.31   60.49
   2   7  -8  687.33   48.60
   2   7  -8  747.13   47.60
   2   7  -8  802.72   46.30
   1   7  -8  178.18   15.60
   1   7  -8  168.68   13.40
   1   7  -8  165.58   13.00
   0   7  -8  963.20   59.69
   0   7  -8  995.20   62.79
  -1   7  -8  212.38   15.50
  -1   7  -8  205.68   17.60
   1  -7   8  201.28   16.10
  -2   7  -8  361.96   24.70
  -2   7  -8  364.66   26.30
   2  -7   8  316.77   25.00
  -3   7  -8  626.04   42.30
  -3   7  -8  638.84   40.90
   3  -7   8  601.54   41.80
  -4   7  -8   14.00    4.80
  -4   7  -8   13.00    4.30
   4  -7   8    7.40    4.70
  -5   7  -8  589.84   39.70
   5  -7   8  576.14   41.80
  -6   7  -8  336.57   25.30
   6  -7   8  301.97   26.90
   7   6  -8   60.59    8.90
   7   6  -8   54.69    9.20
   6   6  -8  735.03   50.19
   6   6  -8  724.13   48.80
   5   6  -8  272.87   21.90
   5   6  -8  270.77   20.60
   5   6  -8  282.87   18.20
   4   6  -8  290.77   21.30
   4   6  -8  288.57   19.50
   4   6  -8  326.87   23.70
   3   6  -8  801.62   50.49
   3   6  -8  831.82   49.20
   3   6  -8  790.02   52.29
   2   6  -8  118.89   10.20
   2   6  -8  107.49   11.80
   2   6  -8  131.49    9.70
   1   6  -8  607.14   43.00
   1   6  -8  650.43   40.20
   1   6  -8  667.23   40.00
   0   6  -8  677.03   47.40
   0  -6   8  745.13   45.90
  -1   6  -8   11.60    4.30
  -1   6  -8   10.80    3.00
   1  -6   8   10.40    3.70
  -2   6  -8  786.92   50.39
  -2   6  -8  737.53   46.80
   2  -6   8  722.33   49.10
  -3   6  -8  313.07   21.80
  -3   6  -8  297.57   24.20
   3  -6   8  305.37   24.10
  -4   6  -8  244.48   21.00
  -4   6  -8  264.27   19.00
   4  -6   8  213.08   27.20
  -5   6  -8  644.44   42.20
   5  -6   8  631.94   45.50
  -6   6  -8   42.80    8.00
   6  -6   8   51.99   10.30
   7   5  -8  590.74   41.20
   7   5  -8  587.34   41.60
   6   5  -8  518.05   35.10
   6   5  -8  553.24   31.90
   6   5  -8  513.95   37.10
   5   5  -8    3.60    3.70
   5   5  -8   15.90    3.90
   5   5  -8   14.60    2.60
   4   5  -8  491.25   34.10
   4   5  -8  491.45   31.10
   4   5  -8  472.95   29.80
   3   5  -8  361.46   22.70
   3   5  -8  336.77   22.00
   3   5  -8  334.07   25.40
   2   5  -8   55.99    8.70
   2   5  -8   73.99    6.10
   2   5  -8   56.49    5.80
   1   5  -8  688.83   41.90
   1   5  -8  572.54   42.10
   0   5  -8   85.29   10.60
   0   5  -8   93.49    7.60
   0  -5   8   96.29   10.00
  -1   5  -8  461.05   28.90
  -1   5  -8  451.55   33.20
   1  -5   8  454.95   33.30
  -2   5  -8  630.74   39.00
  -2   5  -8  597.54   43.10
   2  -5   8  641.94   42.50
  -3   5  -8    4.30    2.70
   3  -5   8   10.50    4.70
  -4   5  -8  551.34   36.20
  -4   5  -8  544.65   39.40
  -5   5  -8  236.18   21.60
  -5   5  -8  252.87   18.60
   5  -5   8  229.58   21.80
  -6   5  -8   33.70    6.50
   8   4  -8  205.38   17.20
   8   4  -8  220.68   25.30
   7   4  -8  801.82   50.19
   7   4  -8  777.12   52.59
   6   4  -8   54.49    9.10
   6   4  -8   53.19    6.50
   5   4  -8  413.96   25.40
   5   4  -8  417.66   30.20
   5   4  -8  426.96   27.20
   4   4  -8  773.42   46.60
   4   4  -8  787.02   47.30
   4   4  -8  781.82   51.09
   3   4  -8   26.70    6.30
   3   4  -8   24.50    3.10
   2   4  -8 1005.80   63.89
   2   4  -8  999.10   59.09
   1   4  -8  347.07   21.30
   1   4  -8  347.17   21.40
   1   4  -8  322.97   25.80
  -1  -4   8  377.96   25.40
   0   4  -8  284.57   18.00
   0   4  -8  276.87   22.80
   0  -4   8  298.77   22.00
  -1   4  -8 1249.18   83.09
  -1   4  -8 1335.17   77.79
   1  -4   8 1352.46   82.69
  -2   4  -8   39.40    8.30
  -2   4  -8   37.10    4.60
   2  -4   8   50.59    8.60
  -3   4  -8  643.54   40.60
  -3   4  -8  627.84   45.20
   3  -4   8  675.73   45.00
  -4   4  -8  773.62   47.10
  -4   4  -8  713.23   51.09
  -5   4  -8    9.30    4.90
  -5   4  -8    9.30    3.60
   5  -4   8   15.60    5.60
  -6   4  -8  485.35   32.40
   6  -4   8  444.06   36.30
   8   3  -8  532.45   36.90
   8   3  -8  571.64   39.90
  -8  -3   8  574.94   36.50
   7   3  -8  521.95   34.80
   7   3  -8  520.25   37.70
  -7  -3   8  564.44   34.50
   6   3  -8   24.00    4.30
   6   3  -8   32.00    7.10
   5   3  -8 1058.09   66.39
   5   3  -8 1047.20   60.99
   5   3  -8  993.90   62.19
   5   3  -8 1064.79   62.39
   4   3  -8  509.15   35.20
   4   3  -8  491.65   30.10
   3   3  -8  609.24   36.20
   3   3  -8  637.04   41.80
   2   3  -8 1612.84   99.29
   1   3  -8    5.90    3.50
  -1  -3   8    1.20    3.50
   0   3  -8 1622.34  102.69
   0   3  -8 1686.93   96.39
  -1   3  -8 1160.88   67.69
  -1   3  -8 1015.80   72.99
   1  -3   8 1257.87   73.09
  -2   3  -8  225.78   15.00
  -2   3  -8  206.68   19.50
   2  -3   8  227.38   19.30
  -3   3  -8 1425.06   81.29
  -3   3  -8 1328.67   86.59
   3  -3   8 1292.87   87.49
  -4   3  -8  442.36   34.40
  -4   3  -8  455.75   29.90
   4  -3   8  466.65   34.30
  -5   3  -8  148.79   12.90
  -5   3  -8  150.68   16.30
   5  -3   8  164.88   16.60
  -6   3  -8  850.41   54.49
   6  -3   8  860.51   59.19
   8   2  -8  541.25   39.10
   8   2  -8  555.34   36.30
  -8  -2   8  562.34   36.20
   7   2  -8   60.59   10.00
   7   2  -8   71.79    7.40
  -7  -2   8   73.69    7.20
   6   2  -8  352.66   22.70
   6   2  -8  353.46   26.50
  -6  -2   8  341.87   22.40
   5   2  -8  847.62   54.49
   5   2  -8  822.32   48.90
   4   2  -8    5.90    4.50
   4   2  -8    9.00    2.40
   3   2  -8 1428.16   88.09
   3   2  -8 1413.56   84.69
   2   2  -8  471.45   33.10
  -2  -2   8  464.65   32.40
   1   2  -8  437.16   32.60
  -1  -2   8  475.75   32.60
   0   2  -8 1816.32  116.89
   0  -2   8 1989.80  116.29
  -1   2  -8  132.99   14.60
   1  -2   8  152.58   14.40
  -2   2  -8  657.63   39.10
  -2   2  -8  525.85   48.30
   2  -2   8  701.03   44.40
  -3   2  -8 1096.09   74.29
  -3   2  -8 1177.78   68.89
  -4   2  -8  161.98   12.20
  -4   2  -8  130.79   15.40
   4  -2   8  142.29   15.20
  -5   2  -8  435.46   31.50
  -5   2  -8  444.36   35.10
  -5   2  -8  459.05   30.40
   5  -2   8  467.15   34.90
  -6   2  -8  570.14   37.80
  -6   2  -8  533.75   38.50
   6  -2   8  601.24   42.60
   9   1  -8  294.37   24.80
  -9  -1   8  311.97   22.50
   8   1  -8  147.29   14.80
  -8  -1   8  145.59   12.30
   7   1  -8  105.49   11.90
  -7  -1   8   99.09    8.80
   6   1  -8  462.05   33.50
  -6  -1   8  473.65   29.30
   5   1  -8   39.70    3.90
   5   1  -8   35.40    7.30
   4   1  -8  923.71   55.79
   3   1  -8  883.21   55.19
   3   1  -8  936.91   58.79
   2   1  -8    5.40    3.60
   2   1  -8    0.50    1.80
  -2  -1   8    1.60    2.90
   1   1  -8  853.71   57.09
   1   1  -8  817.52   53.69
  -1  -1   8  955.70   56.79
   0   1  -8  684.03   45.80
   0   1  -8  726.93   49.40
   0  -1   8  785.62   48.70
  -1   1  -8   18.20    4.50
  -1   1  -8   21.10    2.70
  -1   1  -8   19.50    6.20
  -2   1  -8  706.63   49.50
  -2   1  -8  748.93   43.60
  -2   1  -8  683.53   45.80
  -3   1  -8  758.72   46.10
  -3   1  -8  742.03   51.69
   3  -1   8  741.23   46.80
  -4   1  -8   27.50    7.40
  -4   1  -8   36.50    5.50
   4  -1   8   34.60    5.90
  -5   1  -8  703.13   50.69
  -5   1  -8  701.23   47.90
  -5   1  -8  731.93   45.70
   5  -1   8  690.23   48.70
   5  -1   8  748.63   58.69
  -6   1  -8  113.89   11.50
  -6   1  -8  105.59   12.00
   6  -1   8  112.49   12.30
   6  -1   8  143.59   15.60
   9   0  -8  429.86   33.30
  -9   0   8  470.75   31.30
   8   0  -8   13.70    5.30
  -8   0   8   12.90    3.90
   7   0  -8  650.43   42.90
  -7   0   8  592.94   38.80
   6   0  -8  430.26   29.80
  -6   0   8  376.46   25.10
   5   0  -8  342.67   20.60
   5   0  -8  322.27   24.80
  -5   0   8  303.07   20.40
   4   0  -8 1848.62  106.09
   4   0  -8 1722.33  109.99
   3   0  -8  207.78   15.60
   3   0  -8  237.48   19.00
   2   0  -8  479.45   32.90
   2   0  -8  515.95   36.20
  -2   0   8  556.74   36.10
   1   0  -8 1842.12  114.09
   1   0  -8 1938.31  117.69
  -1   0   8 1960.70  116.79
   0   0  -8  248.18   21.00
   0   0  -8  220.38   19.50
   0   0   8  267.27   21.90
  -1   0  -8  510.35   38.20
  -1   0  -8  465.55   32.50
   1   0   8  495.65   30.30
  -2   0  -8 1018.70   66.09
  -2   0  -8 1077.59   59.89
  -2   0  -8  945.51   62.09
   2   0   8  935.71   60.29
  -3   0  -8   22.70    4.00
  -3   0  -8   18.50    6.10
   3   0   8   22.60    4.60
  -4   0  -8  736.83   49.70
  -4   0  -8  589.64   48.70
  -4   0  -8  673.73   45.30
   4   0   8  710.73   45.00
   4   0   8  738.43   48.70
  -5   0  -8  212.78   21.20
  -5   0  -8  219.68   17.10
  -5   0  -8  233.28   18.70
   5   0   8  227.68   18.50
   5   0   8  210.38   20.90
  -6   0  -8   68.79   11.30
  -6   0  -8   50.89    8.00
   6   0   8   46.60    8.60
   9  -1  -8  108.39   13.00
  -9   1   8  101.39   11.00
   8  -1  -8  329.97   26.00
  -8   1   8  321.27   22.80
   7  -1  -8 1196.48   75.89
  -7   1   8 1185.68   72.09
   6  -1  -8  113.99    7.80
   6  -1  -8  106.39   12.40
  -6   1   8  119.59    9.10
   5  -1  -8 1259.77   77.99
   5  -1  -8 1307.37   73.49
  -5   1   8 1139.79   72.79
   4  -1  -8 1611.34   95.19
   4  -1  -8 1577.04   98.69
   3  -1  -8    6.40    5.50
   3  -1  -8    7.30    3.00
   2  -1  -8 1945.71  124.79
   2  -1  -8 1997.60  121.69
  -2   1   8 2191.78  124.89
   1  -1  -8 1643.34  105.59
   1  -1  -8 1671.73  102.69
  -1   1   8 1799.32  105.29
   0  -1  -8  137.39   11.90
   0  -1  -8  115.19   19.90
   0   1   8  131.59    9.30
   0   1   8  137.19   13.70
  -1  -1  -8 1723.23  101.79
  -1  -1  -8 1565.44   97.59
   1   1   8 1601.74   99.89
   1   1   8 1564.14   95.39
  -2  -1  -8  378.06   29.40
  -2  -1  -8  348.57   25.90
   2   1   8  375.76   28.30
   2   1   8  361.26   24.50
  -3  -1  -8  429.96   27.80
  -3  -1  -8  438.86   33.30
   3   1   8  406.76   28.80
   3   1   8  438.46   32.50
  -4  -1  -8  599.44   41.20
  -4  -1  -8  658.63   45.30
  -4  -1  -8  647.74   39.40
   4   1   8  580.64   40.60
   4   1   8  584.94   43.70
  -5  -1  -8   16.00    4.30
  -5  -1  -8    7.10    3.80
  -5  -1  -8    9.50    8.40
   5   1   8    7.80    4.30
   5   1   8   21.80    7.10
   9  -2  -8   24.70    6.90
  -9   2   8   29.70    6.20
   8  -2  -8  601.44   42.80
  -8   2   8  629.54   40.20
   7  -2  -8  583.54   42.50
  -7   2   8  651.73   39.70
   6  -2  -8  108.29    7.70
   6  -2  -8   81.69   11.00
  -6   2   8  101.49    8.50
   5  -2  -8 1840.32  112.19
   5  -2  -8 1954.80  108.09
  -5   2   8 1681.13  107.19
   4  -2  -8  700.03   49.50
   4  -2  -8  782.42   46.50
   3  -2  -8  296.77   23.30
   3  -2  -8  304.97   20.50
  -3   2   8  273.97   17.60
  -3   2   8  288.87   17.80
   2  -2  -8 2058.19  137.29
   2  -2  -8 2151.88  126.49
  -2   2   8 2012.80  122.89
  -2   2   8 2223.28  128.89
   1  -2  -8   80.59    8.50
   1  -2  -8   81.79   11.90
  -1   2   8   68.39    6.00
  -1   2   8   90.09   10.70
   0  -2  -8  563.54   38.40
   0  -2  -8  572.44   41.50
   0   2   8  633.14   41.10
   0   2   8  578.34   36.20
  -1  -2  -8  713.63   48.80
  -1  -2  -8  776.32   52.39
   1   2   8  835.72   51.69
   1   2   8  738.13   47.10
  -2  -2  -8    5.40    3.30
  -2  -2  -8    8.00    4.60
   2   2   8    9.00    4.50
   2   2   8    4.40    2.70
  -3  -2  -8  682.63   46.30
  -3  -2  -8  590.24   42.10
   3   2   8  639.84   41.70
   3   2   8  640.34   44.80
  -4  -2  -8  140.99   14.40
  -4  -2  -8  168.18   13.20
  -4  -2  -8  158.78   17.20
   4   2   8  167.18   17.70
   4   2   8  149.19   14.20
  -5  -2  -8  107.99   16.00
  -5  -2  -8  117.09   11.00
   5   2   8  109.19   12.00
   5   2   8  100.49   15.30
   8  -3  -8  673.33   49.60
  -8   3   8  792.12   48.00
   7  -3  -8   28.50    7.10
   7  -3  -8   36.30    3.70
  -7   3   8   38.60    6.20
   6  -3  -8  720.83   42.60
   6  -3  -8  645.64   46.70
  -6   3   8  704.63   43.60
   5  -3  -8  907.41   60.39
   5  -3  -8  982.60   56.79
  -5   3   8  884.21   56.19
   4  -3  -8    4.20    2.70
   4  -3  -8   -1.10    2.90
  -4   3   8    1.10    1.80
   3  -3  -8  731.73   51.49
   3  -3  -8  811.12   49.30
   2  -3  -8  348.67   28.10
   2  -3  -8  380.86   25.70
  -2   3   8  388.86   28.10
  -2   3   8  354.96   23.60
   1  -3  -8   79.69    8.90
   1  -3  -8   86.59   12.70
  -1   3   8   86.19   10.90
  -1   3   8   86.39    7.40
   0  -3  -8  378.26   30.20
   0  -3  -8  392.46   27.70
   0   3   8  387.76   26.00
   0   3   8  427.56   30.00
  -1  -3  -8  149.09   15.50
  -1  -3  -8  136.19   13.10
   1   3   8  138.69   11.80
   1   3   8  141.19   14.70
  -2  -3  -8  170.78   17.90
  -2  -3  -8  213.88   16.80
   2   3   8  189.68   17.80
   2   3   8  179.98   15.20
  -3  -3  -8  403.76   29.30
  -3  -3  -8  403.36   31.80
   3   3   8  397.06   31.10
  -4  -3  -8    6.30    4.00
  -4  -3  -8    7.70    5.20
   4   3   8    0.10    4.20
   4   3   8    2.90    3.60
  -8   4   8  474.65   33.00
   7  -4  -8  234.88   15.40
   7  -4  -8  191.78   19.00
  -7   4   8  237.08   17.80
   6  -4  -8  949.80   64.99
   6  -4  -8 1031.80   61.09
  -6   4   8 1021.00   62.29
   5  -4  -8  173.48   16.60
  -5   4   8  173.68   13.70
   4  -4  -8  268.57   21.90
   4  -4  -8  276.27   19.30
  -4   4   8  244.68   18.20
  -4   4   8  252.77   17.30
   3  -4  -8  584.44   43.80
   3  -4  -8  680.83   41.60
  -3   4   8  646.84   39.60
   2  -4  -8    9.30    5.00
   2  -4  -8   14.30    4.40
  -2   4   8    9.80    3.00
  -2   4   8   13.50    5.30
   1  -4  -8  371.26   29.20
   1  -4  -8  391.66   26.80
  -1   4   8  365.66   25.00
  -1   4   8  375.66   28.50
   0  -4  -8  373.06   25.70
   0  -4  -8  330.27   27.50
   0   4   8  342.57   27.00
   0   4   8  347.87   24.00
  -1  -4  -8  125.19   14.60
  -1  -4  -8  131.79   12.90
   1   4   8  112.59   11.40
   1   4   8  144.09   14.50
  -2  -4  -8  652.13   43.20
  -2  -4  -8  605.64   45.10
   2   4   8  651.33   42.90
   2   4   8  641.54   44.80
  -3  -4  -8   68.09   12.10
  -3  -4  -8   90.09   10.80
   3   4   8  101.39   14.20
   3   4   8   90.99   10.50
   7  -5  -8  599.44   36.40
   7  -5  -8  469.35   38.40
  -7   5   8  584.74   37.80
   6  -5  -8  538.85   41.20
   6  -5  -8  689.53   38.70
  -6   5   8  504.35   38.70
  -6   5   8  651.03   39.90
   5  -5  -8   14.90    6.00
   5  -5  -8   22.70    5.00
  -5   5   8   11.70    4.30
  -5   5   8   23.90    5.40
   4  -5  -8  908.41   51.79
   4  -5  -8  733.13   53.59
  -4   5   8  756.32   51.99
  -4   5   8  824.82   49.70
   3  -5  -8  303.97   21.70
   3  -5  -8  277.97   23.80
  -3   5   8  263.37   22.20
  -3   5   8  308.77   20.30
   2  -5  -8  302.17   26.20
   2  -5  -8  358.66   24.70
  -2   5   8  344.77   23.10
  -2   5   8  332.07   26.30
   1  -5  -8  629.04   45.10
   1  -5  -8  629.64   42.60
  -1   5   8  619.04   41.30
  -1   5   8  715.93   45.10
   0  -5  -8   31.80    7.20
   0  -5  -8   19.00    6.20
   0   5   8   19.40    4.70
   0   5   8   11.10    5.20
  -1  -5  -8  799.52   52.09
  -1  -5  -8  759.82   53.99
   1   5   8  801.42   53.39
   1   5   8  812.52   53.39
  -2  -5  -8  554.54   45.50
  -2  -5  -8  558.44   41.10
   2   5   8  577.94   38.90
   6  -6  -8  112.89   10.30
   6  -6  -8   96.39   12.30
  -6   6   8  102.39   11.00
  -6   6   8   94.69   11.30
   5  -6  -8  354.06   22.40
   5  -6  -8  257.47   23.50
  -5   6   8  262.67   22.10
  -5   6   8  296.07   22.40
   4  -6  -8  558.34   34.10
   4  -6  -8  460.05   35.60
  -4   6   8  429.96   34.00
  -4   6   8  519.75   32.40
   3  -6  -8   18.80    4.90
   3  -6  -8    5.50    5.00
  -3   6   8   12.80    3.90
  -3   6   8    7.70    4.40
   2  -6  -8  442.36   34.70
   2  -6  -8  514.85   34.50
  -2   6   8  449.95   33.90
  -2   6   8  486.85   31.90
   1  -6  -8  360.86   29.00
   1  -6  -8  399.46   27.80
  -1   6   8  353.46   28.90
  -1   6   8  389.86   28.90
   0  -6  -8  107.29   11.20
   0  -6  -8   84.99   12.90
   0   6   8   84.99   12.00
   0   6   8   81.39    9.80
  -1  -6  -8  700.03   48.60
   1   6   8  630.64   46.00
   1   6   8  774.22   48.90
   4  -7  -8   26.50    6.70
   4  -7  -8   21.90    5.50
  -4   7   8   43.10    8.30
  -4   7   8   36.80    6.40
   3  -7  -8  181.78   18.20
   3  -7  -8  227.78   17.90
  -3   7   8  215.08   16.80
  -3   7   8  202.18   20.20
   2  -7  -8  336.17   27.80
   2  -7  -8  391.76   27.40
  -2   7   8  389.46   26.40
  -2   7   8  328.57   27.80
   2   9  -9  318.77   24.30
   2   9  -9  334.37   24.90
   2   9  -9  325.77   22.70
   1   9  -9   -1.90    2.80
   1   9  -9   -1.10    2.70
   1   9  -9   -5.10    1.70
   0   9  -9  268.07   21.40
   0   9  -9  287.77   20.80
   0   9  -9  280.47   20.20
  -1   9  -9  241.28   19.40
  -1   9  -9  253.97   18.80
  -2   9  -9   11.30    4.20
  -2   9  -9    6.20    4.00
   2  -9   9   12.00    3.80
  -3   9  -9  188.18   16.50
  -3   9  -9  213.68   19.70
  -3   9  -9  226.68   18.40
   3  -9   9  198.68   16.70
   4   8  -9   81.69    9.30
   4   8  -9   80.29   12.30
   4   8  -9   96.69   11.10
   3   8  -9  523.35   39.20
   3   8  -9  515.55   33.80
   3   8  -9  540.95   35.70
   2   8  -9   63.79    8.00
   2   8  -9   66.69   10.30
   2   8  -9   76.49    7.40
   1   8  -9  259.07   19.80
   1   8  -9  286.77   22.20
   1   8  -9  271.07   19.30
   0   8  -9  326.97   24.50
   0   8  -9  300.97   21.50
   0   8  -9  301.17   21.60
  -1   8  -9   -2.90    2.50
  -1   8  -9   -0.60    2.20
   1  -8   9    2.20    2.30
  -2   8  -9  325.27   23.90
  -2   8  -9  354.06   25.00
  -2   8  -9  368.96   26.40
   2  -8   9  321.37   24.60
  -3   8  -9  228.98   17.60
  -3   8  -9  219.38   16.90
  -3   8  -9  199.78   17.90
   3  -8   9  180.18   17.30
  -4   8  -9   25.70    6.40
  -4   8  -9   40.70    7.50
   4  -8   9   27.30    7.10
   5   7  -9   37.40    5.10
   5   7  -9   45.80    7.40
   5   7  -9   27.30    7.10
   4   7  -9  562.14   37.70
   4   7  -9  562.64   39.80
   4   7  -9  597.34   36.20
   3   7  -9  460.05   30.60
   3   7  -9  430.16   32.60
   3   7  -9  476.45   29.50
   2   7  -9   19.10    5.90
   2   7  -9   19.60    4.30
   1   7  -9  650.33   42.00
   1   7  -9  654.53   45.40
   1   7  -9  694.13   41.90
   0   7  -9  166.58   16.10
   0   7  -9  160.18   12.70
   0   7  -9  178.08   13.30
  -1   7  -9  216.88   16.50
  -1   7  -9  216.78   19.20
   1  -7   9  224.78   17.90
  -2   7  -9  728.03   48.30
  -2   7  -9  715.43   44.50
   2  -7   9  647.84   45.80
  -3   7  -9   20.40    5.80
  -3   7  -9   33.80    6.20
  -4   7  -9  568.64   40.80
  -4   7  -9  587.14   38.40
   4  -7   9  560.54   40.90
  -5   7  -9  468.95   32.70
   5  -7   9  461.95   35.70
   6   6  -9  259.87   19.70
   6   6  -9  262.57   22.00
   5   6  -9   42.70    4.60
   5   6  -9   41.30    6.10
   5   6  -9   44.60    8.70
   4   6  -9  630.84   37.60
   4   6  -9  620.24   38.60
   4   6  -9  558.54   41.40
   3   6  -9  151.18   11.40
   3   6  -9  157.58   14.70
   3   6  -9  132.59   10.80
   2   6  -9  321.67   19.80
   2   6  -9  285.47   19.60
   2   6  -9  257.27   22.80
   1   6  -9  566.14   39.30
   1   6  -9  550.14   34.80
   0   6  -9   -1.80    2.70
   0   6  -9   -0.20    1.60
   0  -6   9    4.50    3.30
  -1   6  -9  831.12   49.90
  -1   6  -9  835.72   57.39
   1  -6   9  770.62   52.59
  -2   6  -9  435.56   34.40
  -2   6  -9  499.85   30.50
   2  -6   9  447.36   33.20
  -3   6  -9   84.19   12.50
  -3   6  -9   78.59    8.30
  -4   6  -9  887.71   55.69
  -4   6  -9  879.41   59.79
   4  -6   9  885.31   59.79
  -5   6  -9  136.59   12.40
  -5   6  -9  119.09   14.50
   5  -6   9  119.79   15.40
   7   5  -9  347.47   24.40
   7   5  -9  337.77   27.30
   6   5  -9    1.40    3.90
   6   5  -9    8.90    1.90
   6   5  -9    6.50    3.00
   6   5  -9    8.00    1.50
   5   5  -9  412.96   31.10
   5   5  -9  409.06   25.90
   5   5  -9  432.76   27.30
   4   5  -9  284.87   18.40
   4   5  -9  284.97   18.80
   4   5  -9  276.17   22.80
   3   5  -9   38.90    7.60
   3   5  -9   47.50    5.10
   3   5  -9   46.40    4.80
   2   5  -9  640.14   36.00
   2   5  -9  483.65   47.50
   1   5  -9   43.10    4.30
   1   5  -9   43.70    4.20
   1   5  -9   50.29    9.10
  -1  -5   9   56.39    8.50
   0   5  -9  255.47   16.60
   0   5  -9  224.98   21.20
   0  -5   9  290.67   21.00
  -1   5  -9  815.42   48.70
  -1   5  -9  823.42   57.49
   1  -5   9  771.42   52.59
  -2   5  -9   15.80    6.00
  -2   5  -9   26.50    4.10
  -3   5  -9  505.95   32.00
  -3   5  -9  459.85   36.50
   3  -5   9  505.85   36.80
  -4   5  -9  584.64   38.80
  -4   5  -9  549.85   41.50
   4  -5   9  558.14   41.30
  -5   5  -9    3.90    3.00
  -5   5  -9    2.40    3.90
   7   4  -9   77.99    7.90
   7   4  -9   61.59   10.30
   6   4  -9  255.77   21.40
   6   4  -9  238.98   17.10
   5   4  -9  541.65   34.40
   5   4  -9  569.74   33.70
   5   4  -9  576.14   34.60
   5   4  -9  541.95   39.10
   4   4  -9   25.50    6.50
   4   4  -9   28.50    3.60
   4   4  -9   23.30    2.90
   3   4  -9  835.02   55.19
   1   4  -9   78.69   14.70
  -1  -4   9  113.69   11.60
   0   4  -9  905.51   53.79
   0   4  -9  916.01   53.79
   0  -4   9  930.31   59.29
  -1   4  -9  360.96   28.90
  -1   4  -9  370.66   22.90
   1  -4   9  365.36   27.70
  -2   4  -9  264.27   17.10
  -2   4  -9  233.28   22.00
  -3   4  -9  921.31   55.29
  -3   4  -9  881.61   61.09
   3  -4   9  899.81   60.29
  -4   4  -9  108.69   10.20
  -4   4  -9  122.89   14.60
   4  -4   9  127.99   14.60
  -5   4  -9  142.99   16.50
  -5   4  -9  148.19   13.00
   5  -4   9  164.38   17.60
   8   3  -9  405.26   27.20
   8   3  -9  387.96   30.60
   7   3  -9   22.60    4.20
   7   3  -9   22.40    6.00
   6   3  -9  624.34   42.10
   6   3  -9  575.04   36.60
   5   3  -9  241.48   21.20
   5   3  -9  260.67   16.90
   4   3  -9  376.16   25.40
   4   3  -9  421.96   29.90
   3   3  -9 1611.64  100.19
   2   3  -9  106.59   12.30
   1   3  -9  812.92   60.39
  -1  -3   9  934.81   57.39
   0   3  -9 1595.04  104.39
   0  -3   9 1743.03  103.39
  -1   3  -9    4.60    4.10
   1  -3   9   12.80    8.10
  -2   3  -9  857.41   49.40
  -2   3  -9  756.62   55.59
  -3   3  -9  707.83   43.60
  -3   3  -9  649.34   49.50
   3  -3   9  757.72   49.50
  -4   3  -9   29.80    5.10
  -4   3  -9   28.40    7.80
   4  -3   9   37.10    8.30
  -5   3  -9  554.14   35.90
   5  -3   9  529.45   40.80
   8   2  -9   52.49   10.00
  -8  -2   9   62.49    6.80
   7   2  -9  214.38   19.60
  -7  -2   9  222.78   15.20
   6   2  -9  795.42   53.39
   5   2  -9   22.40    3.40
   5   2  -9   13.20    5.40
   4   2  -9 1104.29   67.29
   4   2  -9 1132.49   71.79
   3   2  -9 1064.99   66.39
   3   2  -9 1132.29   70.69
   2   2  -9  101.09    9.20
   2   2  -9  100.39   12.10
  -2  -2   9  101.49   11.50
   1   2  -9 1175.48   81.29
   1   2  -9 1361.56   84.59
  -1  -2   9 1455.55   83.79
   0   2  -9  745.23   53.79
   0  -2   9  848.82   53.39
  -1   2  -9  177.78   11.10
  -1   2  -9  156.18   17.00
  -2   2  -9  886.31   64.29
  -2   2  -9 1004.30   57.79
   2  -2   9  981.20   63.59
  -3   2  -9  277.97   24.30
  -3   2  -9  254.97   20.40
  -3   2  -9  277.77   18.30
   3  -2   9  250.97   22.80
  -4   2  -9  276.27   22.80
  -4   2  -9  279.07   20.10
  -4   2  -9  286.37   25.70
   4  -2   9  309.57   25.70
  -5   2  -9  517.35   33.60
  -5   2  -9  479.15   35.10
   5  -2   9  513.45   38.60
   8   1  -9   45.60    8.70
  -8  -1   9   55.59    6.60
   7   1  -9  630.74   45.50
  -7  -1   9  681.03   40.50
   6   1  -9  342.37   26.90
   5   1  -9  543.85   31.70
   5   1  -9  450.95   35.80
   4   1  -9 1163.98   75.39
   4   1  -9 1192.68   71.19
   3   1  -9   84.59    8.00
   3   1  -9   73.19   11.10
   2   1  -9  364.86   28.00
   2   1  -9  352.76   24.30
   1   1  -9  983.50   65.69
   1   1  -9 1021.10   62.49
   0   1  -9  111.59   13.10
   0   1  -9  107.89   10.40
  -1   1  -9  427.86   31.80
  -1   1  -9  374.26   27.40
  -2   1  -9  600.04   43.60
  -2   1  -9  552.44   39.40
  -2   1  -9  630.64   36.70
  -3   1  -9   11.20    4.00
  -3   1  -9   14.10    3.40
  -3   1  -9   23.50    6.70
   3  -1   9   19.10    6.20
  -4   1  -9  451.45   33.50
  -4   1  -9  503.55   32.00
  -4   1  -9  490.65   37.70
   4  -1   9  471.25   37.80
  -5   1  -9   74.19    8.50
  -5   1  -9   85.29   10.00
  -5   1  -9   90.29   15.20
   5  -1   9   77.89    9.80
   5  -1   9   84.59   13.80
   8   0  -9  718.53   50.99
  -8   0   9  769.12   46.70
   7   0  -9  725.43   51.09
  -7   0   9  771.52   45.90
   6   0  -9   26.30    6.90
   6   0  -9   27.30    3.20
   5   0  -9 1182.58   81.29
   5   0  -9 1372.96   77.09
   4   0  -9  505.55   36.70
   4   0  -9  515.95   32.90
   3   0  -9   68.09   10.80
   3   0  -9   79.09    7.90
   2   0  -9  880.41   53.49
   2   0  -9  825.12   56.89
   1   0  -9  455.05   31.90
   1   0  -9  519.55   36.10
   0   0  -9  315.27   21.90
   0   0  -9  277.97   24.70
  -1   0  -9  723.33   50.19
  -1   0  -9  704.33   46.10
  -2   0  -9   24.00    7.50
  -2   0  -9   25.60    5.70
  -2   0  -9   33.40    4.30
   2   0   9   28.70    7.00
   2   0   9   27.30    4.50
  -3   0  -9  491.95   34.90
  -3   0  -9  496.25   38.60
  -3   0  -9  533.75   32.40
   3   0   9  490.75   33.20
   3   0   9  516.15   37.70
  -4   0  -9  171.38   16.00
  -4   0  -9  165.18   19.10
  -4   0  -9  191.28   14.20
   4   0   9  185.78   15.30
   4   0   9  188.18   18.50
  -5   0  -9   62.49    7.60
  -5   0  -9   63.89   12.10
   5   0   9   49.60    8.60
   8  -1  -9  793.82   56.29
  -8   1   9  871.81   52.19
   7  -1  -9  300.27   24.20
  -7   1   9  273.87   18.90
   6  -1  -9  583.74   40.10
   6  -1  -9  562.34   33.90
  -6   1   9  535.65   34.10
   5  -1  -9 1370.06   94.89
   5  -1  -9 1652.73   90.99
   4  -1  -9  194.68   18.00
   4  -1  -9  180.98   14.20
   3  -1  -9  585.94   43.70
   3  -1  -9  669.53   40.70
   2  -1  -9 1006.00   63.19
   2  -1  -9 1019.50   67.09
  -2   1   9 1039.10   66.39
   1  -1  -9   48.80    9.50
   1  -1  -9   39.80    6.50
  -1   1   9   37.40    7.90
   0  -1  -9 1078.79   71.49
   0  -1  -9 1084.59   67.59
   0   1   9 1144.29   70.49
   0   1   9 1050.09   63.99
  -1  -1  -9  245.68   18.60
  -1  -1  -9  256.17   22.20
   1   1   9  204.38   15.60
   1   1   9  250.97   20.90
  -2  -1  -9  309.87   24.00
  -2  -1  -9  363.96   28.10
   2   1   9  308.47   26.10
   2   1   9  315.27   22.00
  -3  -1  -9  680.53   48.90
  -3  -1  -9  788.72   45.40
  -3  -1  -9  786.22   52.39
   3   1   9  680.53   46.30
   3   1   9  670.23   60.89
  -4  -1  -9    6.40    3.80
  -4  -1  -9   11.50    5.70
  -4  -1  -9    4.50    2.70
   4   1   9   -0.80    4.60
   4   1   9   -2.30    3.30
   8  -2  -9  548.15   41.20
  -8   2   9  598.34   37.30
   7  -2  -9    4.70    5.10
   7  -2  -9    5.40    1.50
  -7   2   9    2.50    2.40
   6  -2  -9  936.31   51.89
   6  -2  -9  829.22   57.19
  -6   2   9  794.32   51.19
   5  -2  -9  665.43   37.90
   5  -2  -9  590.14   41.90
  -5   2   9  554.94   35.20
  -5   2   9  577.94   35.00
   4  -2  -9   44.70    6.20
   4  -2  -9   35.00    8.30
   3  -2  -9  864.21   61.29
   3  -2  -9  986.30   58.19
   2  -2  -9  243.28   17.80
   2  -2  -9  208.78   20.20
  -2   2   9  220.28   20.00
   1  -2  -9  382.36   31.10
   1  -2  -9  413.66   28.20
  -1   2   9  438.76   31.10
  -1   2   9  390.06   24.60
   0  -2  -9  488.05   39.80
   0  -2  -9  556.74   37.00
   0   2   9  581.34   39.70
   0   2   9  570.94   35.40
  -1  -2  -9    3.70    4.60
  -1  -2  -9    1.10    2.90
   1   2   9    3.00    4.00
   1   2   9    3.40    2.30
  -2  -2  -9  826.82   55.89
  -2  -2  -9  807.52   55.49
   2   2   9  730.53   49.80
   2   2   9  842.22   54.69
  -3  -2  -9  353.96   29.90
  -3  -2  -9  359.56   26.70
   3   2   9  377.76   29.60
   3   2   9  338.07   25.30
  -4  -2  -9   47.60   10.20
   4   2   9   43.00    7.30
   7  -3  -9  166.98   17.90
   7  -3  -9  166.88   11.70
  -7   3   9  170.68   13.30
   6  -3  -9  422.76   32.20
   6  -3  -9  458.75   27.60
  -6   3   9  388.76   27.00
   5  -3  -9   18.70    4.20
   5  -3  -9   13.80    5.40
  -5   3   9   13.00    2.70
   4  -3  -9  259.27   23.30
   4  -3  -9  295.87   20.60
  -4   3   9  280.87   17.70
  -4   3   9  278.37   18.00
   3  -3  -9  392.56   30.20
   3  -3  -9  420.46   27.00
  -3   3   9  373.86   24.00
  -3   3   9  361.26   23.50
   2  -3  -9   50.79    7.80
   2  -3  -9   48.10    9.30
  -2   3   9   48.50    9.00
  -2   3   9   40.30    4.40
   1  -3  -9  502.85   33.60
   1  -3  -9  449.16   36.20
  -1   3   9  526.95   36.30
  -1   3   9  483.45   30.80
   0  -3  -9  151.38   16.80
   0  -3  -9  158.88   14.20
   0   3   9  153.58   12.10
   0   3   9  153.88   15.90
  -1  -3  -9  191.68   19.70
  -1  -3  -9  192.28   19.50
   1   3   9  197.78   15.30
   1   3   9  215.18   19.10
  -2  -3  -9  672.93   44.10
  -2  -3  -9  635.64   46.90
   2   3   9  626.24   42.20
   2   3   9  669.63   46.10
  -3  -3  -9   36.10    9.10
   3   3   9   61.09    8.70
   3   3   9   78.09   12.10
   7  -4  -9  502.05   30.20
   7  -4  -9  411.46   36.40
  -7   4   9  476.35   31.60
   6  -4  -9  130.69   10.60
   6  -4  -9  111.69   13.60
  -6   4   9  116.89   10.60
   5  -4  -9  194.38   14.00
   5  -4  -9  149.19   16.20
  -5   4   9  147.49   12.20
  -5   4   9  155.48   11.50
   4  -4  -9  553.74   34.00
   4  -4  -9  438.16   36.30
  -4   4   9  526.55   32.20
  -4   4   9  480.65   31.20
   3  -4  -9    3.10    4.40
   3  -4  -9   14.60    4.70
  -3   4   9    7.10    2.40
   2  -4  -9  597.04   38.20
   2  -4  -9  521.65   40.80
  -2   4   9  564.44   40.60
  -2   4   9  574.84   35.70
   1  -4  -9  362.16   30.60
   1  -4  -9  409.46   28.10
  -1   4   9  390.26   25.80
  -1   4   9  388.46   30.00
   0  -4  -9    9.90    5.30
   0  -4  -9    6.10    5.40
   0   4   9    9.50    3.50
   0   4   9    4.90    4.80
  -1  -4  -9  746.63   51.09
  -1  -4  -9  710.23   47.60
   1   4   9  671.53   54.29
   1   4   9  727.93   46.30
   2   4   9  368.56   29.30
   2   4   9  361.66   26.60
   6  -5  -9   13.00    3.70
   6  -5  -9   18.30    6.20
  -6   5   9   16.60    4.70
   5  -5  -9  600.24   45.70
   5  -5  -9  737.53   43.30
  -5   5   9  655.43   40.80
  -5   5   9  628.94   42.10
   4  -5  -9  289.37   25.60
   4  -5  -9  373.36   23.90
  -4   5   9  315.77   22.30
  -4   5   9  286.97   21.10
   3  -5  -9  281.67   20.40
   3  -5  -9  222.68   21.90
  -3   5   9  253.57   18.10
   2  -5  -9 1023.00   62.79
   2  -5  -9  895.11   63.09
  -2   5   9  943.31   62.59
  -2   5   9  923.41   58.19
   1  -5  -9  208.68   20.80
   1  -5  -9  237.88   18.80
  -1   5   9  218.88   17.00
  -1   5   9  229.08   20.40
   0  -5  -9  419.46   30.00
   0  -5  -9  389.46   32.20
   0   5   9  420.16   28.70
   0   5   9  411.36   39.50
   3   8 -10  105.09    9.10
   3   8 -10   94.69   11.80
   3   8 -10   88.09    9.30
   2   8 -10  127.49   10.60
   2   8 -10  118.89   13.40
   2   8 -10  107.39   10.40
   1   8 -10  274.57   20.50
   1   8 -10  291.37   23.90
   1   8 -10  309.07   20.80
   0   8 -10   10.80    3.80
   0   8 -10    6.60    3.00
   0   8 -10   10.30    3.40
   0   8 -10   10.80    4.80
  -1   8 -10  458.85   34.00
  -1   8 -10  462.65   31.70
  -1   8 -10  448.86   30.70
  -2   8 -10  323.87   26.00
  -2   8 -10  350.36   23.80
  -2   8 -10  298.57   26.30
   2  -8  10  322.97   24.70
   4   7 -10  331.27   27.50
   4   7 -10  377.06   24.30
   4   7 -10  345.27   23.30
   3   7 -10   21.90    4.20
   3   7 -10   17.90    3.80
   3   7 -10   14.50    5.40
   2   7 -10  590.34   36.80
   2   7 -10  551.14   41.00
   2   7 -10  595.54   37.00
   1   7 -10  252.27   21.80
   1   7 -10  236.58   17.40
   1   7 -10  270.17   18.20
   0   7 -10  162.18   12.40
   0   7 -10  176.98   12.90
   0   7 -10  154.88   16.50
  -1   7 -10  723.33   51.19
  -1   7 -10  758.62   46.50
  -2   7 -10   54.29   10.60
  -2   7 -10   57.19    7.50
   2  -7  10   49.10    8.90
  -3   7 -10  336.97   27.20
  -3   7 -10  318.57   22.80
   3  -7  10  304.67   25.70
   5   6 -10  372.96   24.00
   5   6 -10  341.27   27.90
   5   6 -10  354.26   22.90
   4   6 -10  104.69   12.30
   4   6 -10   85.69    7.80
   4   6 -10  100.09    8.20
   3   6 -10  233.48   15.40
   3   6 -10  213.08   15.40
   3   6 -10  204.88   19.60
   2   6 -10  656.23   38.80
   2   6 -10  629.04   38.60
   2   6 -10  530.75   42.40
   1   6 -10   33.40    8.20
   1   6 -10   46.20    7.00
   1   6 -10   45.70    4.40
   0   6 -10  502.55   37.70
   0   6 -10  501.95   31.40
   0   6 -10  519.45   31.50
  -1   6 -10  680.33   50.19
  -1   6 -10  751.72   44.40
   1  -6  10  721.63   48.60
  -2   6 -10   -0.40    3.60
  -2   6 -10    2.50    2.10
   2  -6  10   -1.50    3.50
  -3   6 -10  625.44   44.70
  -3   6 -10  604.84   39.00
   3  -6  10  604.04   43.60
  -4   6 -10  367.26   25.10
  -4   6 -10  360.96   30.00
   4  -6  10  339.87   29.70
   6   5 -10  236.18   20.90
   6   5 -10  222.18   16.00
   6   5 -10  228.48   14.20
   5   5 -10  243.68   22.50
   5   5 -10  280.97   17.60
   5   5 -10  273.87   17.80
   4   5 -10   27.40    3.90
   4   5 -10   21.80    2.70
   4   5 -10   12.40    5.70
   3   5 -10  483.55   30.60
   3   5 -10  487.75   35.70
   2   5 -10  381.96   29.90
   1   5 -10   57.99   10.80
   0   5 -10  821.52   59.09
   0   5 -10  959.60   52.69
   0   5 -10  867.61   51.99
   0  -5  10  832.32   66.99
  -1   5 -10  246.88   16.00
  -1   5 -10  242.18   22.30
   1  -5  10  239.18   20.90
  -2   5 -10  207.88   21.00
  -2   5 -10  203.78   14.80
   2  -5  10  242.98   20.30
  -3   5 -10  594.34   45.20
  -3   5 -10  634.24   39.20
   3  -5  10  624.94   44.70
  -4   5 -10   47.70    6.80
  -4   5 -10   33.10    8.50
   4  -5  10   48.70   10.10
   6   4 -10  522.95   33.80
   6   4 -10  583.64   40.30
   5   4 -10   32.00    3.60
   5   4 -10   30.70    4.40
   5   4 -10   20.60    6.10
   4   4 -10  491.95   31.10
   4   4 -10  522.75   37.20
   3   4 -10  790.72   53.49
   2   4 -10    1.30    3.50
   1   4 -10  812.82   56.69
  -1  -4  10  868.11   57.89
   0   4 -10  600.74   46.90
   0  -4  10  751.32   46.80
  -1   4 -10   25.10    7.90
   1  -4  10   40.60    8.40
  -2   4 -10  422.66   35.40
  -2   4 -10  467.55   28.70
   2  -4  10  483.45   34.90
  -3   4 -10  148.69   16.50
  -3   4 -10  138.89   10.80
   3  -4  10  123.99   15.20
  -4   4 -10   66.89   12.30
  -4   4 -10   76.89    8.40
   4  -4  10  101.79   14.90
   7   3 -10  701.53   49.20
   6   3 -10  574.84   41.50
   5   3 -10   85.19    7.60
   5   3 -10   90.89   11.70
   5   3 -10   85.69    6.50
   4   3 -10 1074.19   65.19
   4   3 -10 1069.69   70.19
   3   3 -10  428.16   31.90
   3   3 -10  404.06   27.50
   2   3 -10  368.36   29.30
   1   3 -10 1021.70   71.69
  -1  -3  10 1176.58   71.29
   0   3 -10   97.69   12.80
   0  -3  10  101.99   12.10
  -1   3 -10  457.75   36.90
   1  -3  10  519.65   36.30
  -2   3 -10  503.65   40.30
  -2   3 -10  517.75   32.90
   2  -3  10  616.14   40.30
  -3   3 -10    0.50    1.70
  -3   3 -10   -0.60    3.60
  -4   3 -10  343.67   27.60
  -4   3 -10  371.66   25.30
   4  -3  10  420.86   32.00
   7   2 -10  770.72   53.29
   6   2 -10  150.18   16.00
   5   2 -10  616.14   37.10
   5   2 -10  558.64   42.10
   4   2 -10 1112.39   67.09
   4   2 -10 1086.79   71.89
   3   2 -10   45.10    6.50
   3   2 -10   73.79   11.30
   2   2 -10  608.24   44.40
   2   2 -10  605.24   40.20
  -2  -2  10  667.53   43.80
   1   2 -10  633.94   46.90
   1   2 -10  646.84   43.00
  -1  -2  10  730.93   46.50
   0   2 -10   47.50    9.70
   0   2 -10   45.60    7.60
   0  -2  10   45.80    8.90
  -1   2 -10  692.03   47.30
  -1   2 -10  744.93   52.09
   1  -2  10  767.32   50.59
  -2   2 -10  199.48   12.80
  -2   2 -10  197.28   20.20
  -2   2 -10  172.78   16.00
   2  -2  10  181.78   18.10
  -3   2 -10  258.47   17.50
  -3   2 -10  266.37   24.40
  -3   2 -10  219.48   20.10
   3  -2  10  289.57   23.90
  -4   2 -10  456.95   28.50
  -4   2 -10  449.86   35.60
  -4   2 -10  349.27   30.20
   4  -2  10  449.46   34.30
   7   1 -10  370.26   29.80
   6   1 -10   29.80    7.10
   6   1 -10   34.60    4.10
   5   1 -10  877.51   51.29
   5   1 -10  775.32   56.09
   4   1 -10  423.46   27.70
   4   1 -10  402.96   31.90
   3   1 -10  115.29   10.10
   3   1 -10   93.89   12.70
   2   1 -10  566.54   36.90
   2   1 -10  561.94   41.10
   1   1 -10   61.99   11.20
   1   1 -10   89.09    8.90
   0   1 -10  361.26   29.10
   0   1 -10  349.96   25.20
   0  -1  10  336.87   34.10
  -1   1 -10  279.57   24.80
  -1   1 -10  274.77   21.10
   1  -1  10  268.57   23.30
  -2   1 -10    3.80    3.60
  -2   1 -10    5.10    4.40
   2  -1  10    9.90    5.50
  -3   1 -10  412.46   33.20
  -3   1 -10  484.25   38.20
  -3   1 -10  511.05   30.70
   3  -1  10  522.55   37.50
  -4   1 -10  165.68   13.40
  -4   1 -10  165.98   19.10
   7   0 -10   41.90    9.20
   6   0 -10  544.95   40.90
   6   0 -10  570.04   34.30
   5   0 -10  407.66   35.20
   5   0 -10  536.95   31.40
   4   0 -10    7.10    5.30
   4   0 -10    6.10    2.80
   3   0 -10  538.55   35.80
   3   0 -10  557.84   40.30
   2   0 -10  159.78   13.60
   2   0 -10  160.28   16.80
   1   0 -10  202.98   19.00
   1   0 -10  167.48   14.70
  -1   0  10  173.18   17.10
   0   0 -10  517.15   38.60
   0   0 -10  510.65   34.30
   0   0  10  485.25   36.60
  -1   0 -10   15.60    6.70
  -1   0 -10   16.80    5.00
   1   0  10   19.30    6.30
  -2   0 -10  412.36   33.30
   2   0  10  388.76   31.40
  -3   0 -10  456.55   39.00
  -3   0 -10  460.55   32.70
   3   0  10  452.95   30.50
   3   0  10  457.65   35.50
   7  -1 -10   54.29   10.50
   7  -1 -10   65.89    4.70
  -7   1  10   57.59    5.10
   6  -1 -10  679.13   50.19
   6  -1 -10  754.62   44.40
   5  -1 -10   79.29   12.50
   5  -1 -10   83.49    8.20
   4  -1 -10  298.37   25.50
   3  -1 -10  599.94   46.00
   3  -1 -10  695.63   42.50
   2  -1 -10    2.20    2.60
   2  -1 -10    3.40    4.10
  -2   1  10   -4.70    3.30
   1  -1 -10  863.11   54.79
   1  -1 -10  820.12   58.79
  -1   1  10  895.01   57.99
   0  -1 -10  314.17   23.50
   0  -1 -10  334.27   27.90
   0   1  10  309.47   26.00
  -1  -1 -10  177.28   19.10
  -1  -1 -10  183.18   15.90
  -2  -1 -10  966.40   64.89
  -2  -1 -10 1072.59   70.19
   2   1  10  980.20   62.19
   2   1  10 1081.59   68.39
  -3  -1 -10  151.78   17.20
   3   1  10  124.19   11.80
   7  -2 -10  200.08   13.10
   7  -2 -10  187.88   19.50
  -7   2  10  200.28   13.90
   6  -2 -10  367.56   24.30
   5  -2 -10    7.10    3.30
   5  -2 -10    7.60    5.20
   4  -2 -10  715.43   53.19
   4  -2 -10  821.42   49.50
   3  -2 -10  291.77   21.30
   3  -2 -10  276.47   24.70
   2  -2 -10  347.77   30.30
   2  -2 -10  390.76   27.30
  -2   2  10  409.06   30.80
   1  -2 -10 1117.09   69.79
   1  -2 -10 1046.40   73.59
  -1   2  10 1174.68   73.19
   0  -2 -10   17.40    4.80
   0  -2 -10   32.70    8.30
   0   2  10   30.90    3.80
  -1  -2 -10  457.75   38.10
  -1  -2 -10  510.35   34.80
   1   2  10  519.95   37.40
   1   2  10  489.55   31.60
  -2  -2 -10  594.94   44.10
  -2  -2 -10  676.73   47.70
   2   2  10  629.84   40.90
   2   2  10  651.53   46.00
   6  -3 -10   46.60   10.20
  -6   3  10   43.40    3.90
   5  -3 -10  227.98   23.10
   5  -3 -10  291.17   20.00
   4  -3 -10  588.84   36.80
   4  -3 -10  496.55   39.90
   3  -3 -10   47.90    7.40
   3  -3 -10   44.00   10.00
   2  -3 -10  761.72   50.09
   2  -3 -10  804.42   54.69
  -2   3  10  766.32   45.50
  -2   3  10  775.62   45.60
   1  -3 -10  376.06   25.50
   1  -3 -10  298.37   27.70
  -1   3  10  329.47   29.30
   0  -3 -10   27.60    6.10
   0  -3 -10   31.10    8.30
   0   3  10   31.10    4.80
   0   3  10   33.30    7.50
  -1  -3 -10  595.94   44.90
  -1  -3 -10  625.04   42.10
   1   3  10  602.04   42.90
   1   3  10  573.54   38.30
   5  -4 -10  556.44   52.49
   5  -4 -10  811.72   45.70
  -5   4  10  677.33   42.20
   4  -4 -10   42.60    9.40
   4  -4 -10   63.89    8.80
  -4   4  10   48.40    5.00
  -4   4  10   45.20    6.80
   3  -4 -10  457.25   30.20
   3  -4 -10  394.76   33.20
  -3   4  10  416.06   26.70
   2  -4 -10  491.85   40.50
   2  -4 -10  557.04   45.10
  -2   4  10  563.74   40.70
  -2   4  10  572.94   34.30
   1  -4 -10   14.80    7.00
   1  -4 -10   42.90    7.60
  -1   4  10   21.20    6.80
  -1   4  10   26.50    4.50
   2   7 -11  345.77   21.20
   2   7 -11  323.47   27.40
   2   7 -11  323.17   22.70
   1   7 -11   18.00    6.30
   1   7 -11   29.00    3.70
   1   7 -11   19.50    4.30
   0   7 -11  641.64   46.80
   0   7 -11  674.83   40.10
   0   7 -11  636.74   39.90
  -1   7 -11  149.09   16.90
  -1   7 -11  151.88   11.40
  -1   7 -11  160.88   11.90
   1  -7  11  168.48   15.80
   4   6 -11   77.59   12.50
   4   6 -11   70.29    6.90
   3   6 -11  644.14   39.10
   3   6 -11  588.74   44.10
   2   6 -11  156.88   12.30
   2   6 -11  157.08   16.60
   1   6 -11  245.88   22.40
   0   6 -11  658.43   40.20
   0   6 -11  700.23   49.10
   0  -6  11  703.93   46.90
  -1   6 -11   42.90    9.00
  -1   6 -11   38.30    4.20
   1  -6  11   36.90    7.80
  -2   6 -11  232.98   22.90
  -2   6 -11  257.67   17.10
   2  -6  11  243.38   23.70
   5   5 -11   40.70    5.50
   5   5 -11   33.10    4.30
   5   5 -11   22.10   11.20
   4   5 -11  459.35   35.30
   4   5 -11  450.15   28.70
   3   5 -11  449.76   34.60
   2   5 -11   12.20    5.20
   1   5 -11  495.15   39.70
  -1  -5  11  583.84   39.10
   0   5 -11  207.38   20.70
   0  -5  11  222.48   19.80
  -1   5 -11   39.50    9.60
  -1   5 -11   33.90    2.60
  -1   5 -11   30.10    2.70
   1  -5  11   18.50    6.20
  -2   5 -11  418.26   34.30
  -2   5 -11  425.36   26.20
   2  -5  11  404.46   32.70
  -3   5 -11   74.19   19.60
  -3   5 -11   97.69    8.40
   3  -5  11   92.89   14.90
   5   4 -11  224.58   16.20
   5   4 -11  246.18   22.70
   5   4 -11  223.88   15.00
   4   4 -11  718.03   44.70
   4   4 -11  690.03   49.70
   3   4 -11   37.90    6.50
   3   4 -11   52.29   10.00
   2   4 -11  307.57   26.30
   1   4 -11  386.66   32.20
  -1  -4  11  432.06   31.50
   0   4 -11   -2.10    3.80
   0  -4  11    8.80    4.70
  -1   4 -11  273.97   25.00
  -2   4 -11  193.18   20.00
  -2   4 -11  183.88   12.30
   2  -4  11  193.68   19.20
  -3   4 -11   85.49   13.90
  -3   4 -11   76.49    7.00
   3  -4  11   71.49   12.70
   6   3 -11   -0.70    3.30
   6   3 -11    5.80    2.30
   6   3 -11    7.40    1.30
   5   3 -11  722.53   43.10
   5   3 -11  631.24   49.60
   4   3 -11  340.67   24.20
   4   3 -11  381.36   29.70
   3   3 -11   45.30    9.80
   3   3 -11   63.39    8.00
   2   3 -11  503.85   38.60
   2   3 -11  520.35   34.30
   1   3 -11   42.10    9.70
   1   3 -11   58.99    8.30
  -1  -3  11   61.29   10.60
   0   3 -11  279.57   21.10
   0   3 -11  280.97   24.90
   0  -3  11  260.87   23.60
  -1   3 -11  383.06   28.60
  -1   3 -11  399.66   32.80
   1  -3  11  422.66   32.10
  -2   3 -11    3.00    3.90
  -2   3 -11   10.40    5.50
   2  -3  11   -3.90    4.00
  -3   3 -11  410.86   35.10
  -3   3 -11  438.46   27.30
   6   2 -11  101.69    7.20
   6   2 -11   90.39   14.00
   6   2 -11  113.69    7.90
   5   2 -11  639.54   39.20
   5   2 -11  573.64   50.99
   4   2 -11   97.39    9.50
   4   2 -11  109.09   13.90
   3   2 -11  281.57   25.60
   3   2 -11  309.47   21.60
   2   2 -11  391.26   29.00
   2   2 -11  423.16   33.70
  -2  -2  11  483.45   33.90
   1   2 -11    6.40    3.50
   1   2 -11    9.40    5.00
  -1  -2  11   -0.50    3.60
   0   2 -11  479.25   36.90
   0   2 -11  471.55   32.50
   0  -2  11  435.86   43.50
  -1   2 -11  199.08   20.50
  -1   2 -11  182.08   17.40
   1  -2  11  187.58   18.60
  -2   2 -11  154.88   14.80
  -2   2 -11  176.98   22.20
   2  -2  11  157.68   17.40
  -3   2 -11  722.43   52.49
  -3   2 -11  697.53   43.00
   6   1 -11  244.48   24.20
   6   1 -11  294.87   18.30
   5   1 -11  253.97   18.20
   4   1 -11   82.09   13.50
   3   1 -11  552.04   35.90
   3   1 -11  525.85   40.40
   2   1 -11   69.19    7.90
   2   1 -11   54.39   11.00
   1   1 -11  176.68   19.40
   1   1 -11  189.08   15.90
  -1  -1  11  205.58   21.00
   0   1 -11  512.85   36.50
   0   1 -11  575.14   41.80
   0  -1  11  536.35   39.60
  -1   1 -11    3.70    4.90
  -1   1 -11   11.60    4.60
   1  -1  11   25.30    7.60
  -2   1 -11  492.25   38.90
  -2   1 -11  438.66   33.90
   2  -1  11  551.74   40.90
   6   0 -11  432.16   25.60
   6   0 -11  331.97   31.10
   5   0 -11   10.30    5.30
   4   0 -11  446.16   35.90
   4   0 -11  471.75   31.10
   3   0 -11  201.68   20.60
   3   0 -11  218.28   16.90
   2   0 -11  143.29   16.20
   2   0 -11  120.29   11.70
  -2   0  11  117.89   14.80
   1   0 -11  655.93   51.49
   1   0 -11  769.72   47.80
  -1   0  11  750.82   50.99
   0   0 -11  189.18   19.90
   0   0 -11  188.88   16.20
   0   0  11  174.68   18.20
  -1   0 -11  237.48   18.70
  -1   0 -11  189.58   21.90
   1   0  11  219.78   21.00
  -2   0 -11  646.04   48.60
   5  -1 -11  347.57   23.00
   5  -1 -11  278.47   26.60
   4  -1 -11  739.43   47.50
   3  -1 -11   -0.60    3.70
   3  -1 -11    3.90    3.10
   2  -1 -11  702.83   50.19
   2  -1 -11  679.83   45.10
  -2   1  11  688.13   49.00
   1  -1 -11  688.03   46.00
   1  -1 -11  666.93   52.49
  -1   1  11  747.13   49.99
   0  -1 -11   21.20    5.60
   0  -1 -11   36.00    9.00
   0   1  11   15.50    6.80
  -1  -1 -11  597.54   41.40
  -1  -1 -11  623.54   46.20
   5  -2 -11  579.84   48.00
   5  -2 -11  756.82   44.20
   4  -2 -11  374.66   33.20
   4  -2 -11  453.05   29.50
   3  -2 -11  145.69   13.90
   3  -2 -11  169.28   19.30
   2  -2 -11  925.41   56.19
   2  -2 -11  791.02   61.39
  -2   2  11  874.71   59.59
   1  -2 -11  250.57   20.10
   1  -2 -11  225.28   23.30
  -1   2  11  268.77   23.50
   0  -2 -11  175.78   16.10
   0  -2 -11  178.18   19.30
   1   5 -12  157.98   24.90
   3   4 -12   66.69   12.30
   3   4 -12   78.29    8.70
   2   4 -12  282.87   21.50
   1   4 -12    2.90    3.20
  -1  -4  12    2.80    4.70
   0   4 -12  225.08   23.80
   0   4 -12  245.78   20.30
   0  -4  12  282.47   23.70
   4   3 -12   18.10    4.60
   4   3 -12   10.20    5.40
   3   3 -12  377.06   31.80
   3   3 -12  382.26   26.60
   2   3 -12  142.79   13.40
   2   3 -12  159.48   17.80
   1   3 -12  225.18   18.30
   1   3 -12  189.78   21.30
  -1  -3  12  261.07   22.30
   0   3 -12  426.56   36.70
   0   3 -12  467.75   32.90
   0  -3  12  504.35   39.00
   4   2 -12  220.78   22.20
   4   2 -12  211.98   16.80
   3   2 -12  522.35   33.70
   3   2 -12  458.35   38.30
   2   2 -12    0.70    2.70
   2   2 -12   -1.10    4.20
   1   2 -12  511.25   42.00
   1   2 -12  532.05   37.20
  -1  -2  12  616.44   44.10
   0   2 -12  471.55   37.40
   0   2 -12  435.26   31.90
   4   1 -12  452.65   38.50
   4   1 -12  529.85   33.70
   3   1 -12  189.88   20.30
   3   1 -12  205.68   16.40
   2   1 -12  214.18   17.60
   2   1 -12  216.48   22.20
   1   1 -12  681.83   50.49
   0   1 -12  150.98   14.50
   3   0 -12   15.80    7.80
   3   0 -12   25.50    5.70
   2   0 -12  528.05   42.30
   2   0 -12  561.44   37.30
   0   0   0    0.00    0.00

_computing_structure_solution     'SHELXT 2014/5 (Sheldrick, 2014)'
;
_shelx_hkl_checksum              13182
_olex2_submission_special_instructions 'No special instructions were received'
loop_
_space_group_symop_operation_xyz
'x, y, z'
'-x, -y, -z'
loop_
_atom_site_label
_atom_site_type_symbol
_atom_site_fract_x
_atom_site_fract_y
_atom_site_fract_z
_atom_site_U_iso_or_equiv
_atom_site_adp_type
_atom_site_occupancy
_atom_site_site_symmetry_order
_atom_site_calc_flag
_atom_site_refinement_flags_posn
_atom_site_refinement_flags_adp
_atom_site_refinement_flags_occupancy
_atom_site_disorder_assembly
_atom_site_disorder_group
Ir1 Ir 0.31682(2) 0.39992(2) 0.84973(2) 0.01751(6) Uani 1 1 d . . . . .
Cl1 Cl 0.30344(12) 0.64511(9) 0.81046(10) 0.03002(19) Uani 1 1 d . . . . .
Cl2 Cl 0.61884(10) 0.47994(10) 0.88768(8) 0.02559(18) Uani 1 1 d . . . . .
C1 C 0.2288(4) 0.2336(4) 0.6471(3) 0.0198(6) Uani 1 1 d . . . . .
C2 C 0.3057(4) 0.1623(4) 0.7542(4) 0.0230(7) Uani 1 1 d . . . . .
C3 C 0.2188(4) 0.1733(4) 0.8710(4) 0.0229(7) Uani 1 1 d . . . . .
C4 C 0.0852(4) 0.2485(4) 0.8390(4) 0.0231(7) Uani 1 1 d . . . . .
C5 C 0.0878(4) 0.2808(4) 0.7001(4) 0.0208(7) Uani 1 1 d . . . . .
C6 C 0.2745(5) 0.2309(4) 0.4986(4) 0.0262(7) Uani 1 1 d . . . . .
C7 C 0.2020(6) 0.3434(5) 0.4256(4) 0.0413(10) Uani 1 1 d . . . . .
H7A H 0.081109 0.307379 0.396010 0.062 Uiso 1 1 calc GR . . . .
H7B H 0.248755 0.350016 0.339928 0.062 Uiso 1 1 calc GR . . . .
H7C H 0.229991 0.444710 0.494342 0.062 Uiso 1 1 calc GR . . . .
C8 C 0.2016(6) 0.0685(5) 0.4013(4) 0.0396(10) Uani 1 1 d . . . . .
H8A H 0.249273 -0.004355 0.445073 0.059 Uiso 1 1 calc GR . . . .
H8B H 0.228084 0.062194 0.305263 0.059 Uiso 1 1 calc GR . . . .
H8C H 0.080869 0.043864 0.391316 0.059 Uiso 1 1 calc GR . . . .
C9 C 0.4615(5) 0.2740(6) 0.5108(4) 0.0417(10) Uani 1 1 d . . . . .
H9A H 0.508930 0.370733 0.585108 0.063 Uiso 1 1 calc GR . . . .
H9B H 0.484673 0.285684 0.417060 0.063 Uiso 1 1 calc GR . . . .
H9C H 0.511248 0.193450 0.537942 0.063 Uiso 1 1 calc GR . . . .
C10 C 0.4462(5) 0.0835(5) 0.7531(5) 0.0362(9) Uani 1 1 d . . . . .
H10A H 0.544722 0.152867 0.742839 0.054 Uiso 1 1 calc GR . . . .
H10B H 0.415455 -0.008160 0.671394 0.054 Uiso 1 1 calc GR . . . .
H10C H 0.470504 0.054007 0.844347 0.054 Uiso 1 1 calc GR . . . .
C11 C 0.2565(6) 0.1133(5) 1.0014(4) 0.0357(9) Uani 1 1 d . . . . .
H11A H 0.374166 0.152779 1.048026 0.054 Uiso 1 1 calc GR . . . .
H11B H 0.231757 0.001309 0.971343 0.054 Uiso 1 1 calc GR . . . .
H11C H 0.188255 0.146461 1.070159 0.054 Uiso 1 1 calc GR . . . .
C12 C -0.0363(5) 0.2788(5) 0.9331(4) 0.0332(9) Uani 1 1 d . . . . .
H12A H 0.018356 0.298508 1.035267 0.050 Uiso 1 1 calc GR . . . .
H12B H -0.129696 0.189453 0.907927 0.050 Uiso 1 1 calc GR . . . .
H12C H -0.077267 0.368144 0.917846 0.050 Uiso 1 1 calc GR . . . .
C13 C -0.0399(5) 0.3526(5) 0.6312(5) 0.0347(9) Uani 1 1 d . . . . .
H13A H -0.112688 0.378381 0.698113 0.052 Uiso 1 1 calc GR . . . .
H13B H -0.106033 0.280487 0.540940 0.052 Uiso 1 1 calc GR . . . .
H13C H 0.015835 0.445803 0.609724 0.052 Uiso 1 1 calc GR . . . .
loop_
_atom_site_aniso_label
_atom_site_aniso_U_11
_atom_site_aniso_U_22
_atom_site_aniso_U_33
_atom_site_aniso_U_23
_atom_site_aniso_U_13
_atom_site_aniso_U_12
Ir1 0.01576(8) 0.01859(8) 0.01695(8) 0.00206(5) 0.00431(5) 0.00325(5)
Cl1 0.0336(5) 0.0209(4) 0.0353(5) 0.0072(3) 0.0078(4) 0.0052(3)
Cl2 0.0183(4) 0.0344(4) 0.0193(4) -0.0012(3) 0.0058(3) 0.0027(3)
C1 0.0198(16) 0.0178(15) 0.0188(15) 0.0004(11) 0.0051(12) 0.0013(12)
C2 0.0242(17) 0.0173(15) 0.0264(17) 0.0025(12) 0.0056(13) 0.0061(12)
C3 0.0203(17) 0.0211(16) 0.0259(17) 0.0059(12) 0.0052(13) 0.0010(13)
C4 0.0225(17) 0.0188(15) 0.0262(16) 0.0033(12) 0.0073(13) 0.0017(12)
C5 0.0168(15) 0.0184(15) 0.0240(16) 0.0037(12) 0.0006(12) 0.0015(12)
C6 0.036(2) 0.0211(16) 0.0203(16) 0.0029(12) 0.0083(14) 0.0034(14)
C7 0.062(3) 0.039(2) 0.030(2) 0.0152(16) 0.0124(19) 0.017(2)
C8 0.055(3) 0.030(2) 0.0259(19) -0.0009(15) 0.0112(18) -0.0011(19)
C9 0.037(2) 0.054(3) 0.032(2) 0.0086(18) 0.0162(17) 0.000(2)
C10 0.035(2) 0.038(2) 0.044(2) 0.0145(17) 0.0137(17) 0.0205(17)
C11 0.041(2) 0.036(2) 0.033(2) 0.0172(16) 0.0089(17) 0.0051(17)
C12 0.0262(19) 0.033(2) 0.038(2) 0.0024(15) 0.0144(16) 0.0013(15)
C13 0.027(2) 0.035(2) 0.045(2) 0.0172(17) 0.0009(16) 0.0113(16)
loop_
_atom_type_symbol
_atom_type_description
_atom_type_scat_dispersion_real
_atom_type_scat_dispersion_imag
_atom_type_scat_source
C C 0.0033 0.0016 'International Tables Vol C Tables 4.2.6.8 and 6.1.1.4'
H H 0.0000 0.0000 'International Tables Vol C Tables 4.2.6.8 and 6.1.1.4'
Cl Cl 0.1484 0.1585 'International Tables Vol C Tables 4.2.6.8 and 6.1.1.4'
Ir Ir -1.4442 7.9887 'International Tables Vol C Tables 4.2.6.8 and 6.1.1.4'
loop_
_geom_angle_atom_site_label_1
_geom_angle_atom_site_label_2
_geom_angle_atom_site_label_3
_geom_angle
_geom_angle_site_symmetry_1
_geom_angle_site_symmetry_3
_geom_angle_publ_flag
Cl1 Ir1 Cl2 87.69(4) . . ?
Cl1 Ir1 Cl2 88.27(4) . 2_667 ?
Cl2 Ir1 Cl2 80.96(3) . 2_667 ?
C1 Ir1 Cl1 108.23(10) . . ?
C1 Ir1 Cl2 161.17(9) . 2_667 ?
C1 Ir1 Cl2 108.03(9) . . ?
C1 Ir1 C2 40.17(13) . . ?
C1 Ir1 C3 66.77(13) . . ?
C1 Ir1 C4 67.19(13) . . ?
C1 Ir1 C5 40.06(13) . . ?
C2 Ir1 Cl1 147.20(10) . . ?
C2 Ir1 Cl2 124.45(10) . 2_667 ?
C2 Ir1 Cl2 94.72(10) . . ?
C2 Ir1 C3 38.76(13) . . ?
C3 Ir1 Cl1 155.91(10) . . ?
C3 Ir1 Cl2 116.39(10) . . ?
C3 Ir1 Cl2 94.46(9) . 2_667 ?
C4 Ir1 Cl1 116.59(10) . . ?
C4 Ir1 Cl2 155.69(10) . . ?
C4 Ir1 Cl2 97.67(9) . 2_667 ?
C4 Ir1 C2 65.87(13) . . ?
C4 Ir1 C3 39.32(14) . . ?
C4 Ir1 C5 39.21(13) . . ?
C5 Ir1 Cl1 94.99(10) . . ?
C5 Ir1 Cl2 132.01(10) . 2_667 ?
C5 Ir1 Cl2 146.92(10) . . ?
C5 Ir1 C2 66.00(13) . . ?
C5 Ir1 C3 65.62(13) . . ?
Ir1 Cl2 Ir1 99.04(3) . 2_667 ?
C2 C1 Ir1 71.17(17) . . ?
C2 C1 C6 124.7(3) . . ?
C5 C1 Ir1 70.76(17) . . ?
C5 C1 C2 106.1(3) . . ?
C5 C1 C6 128.5(3) . . ?
C6 C1 Ir1 130.4(2) . . ?
C1 C2 Ir1 68.66(18) . . ?
C1 C2 C10 130.4(3) . . ?
C3 C2 Ir1 70.86(19) . . ?
C3 C2 C1 108.6(3) . . ?
C3 C2 C10 120.9(3) . . ?
C10 C2 Ir1 127.8(3) . . ?
C2 C3 Ir1 70.38(19) . . ?
C2 C3 C4 108.4(3) . . ?
C2 C3 C11 125.7(4) . . ?
C4 C3 Ir1 69.58(19) . . ?
C4 C3 C11 125.9(3) . . ?
C11 C3 Ir1 127.2(2) . . ?
C3 C4 Ir1 71.10(19) . . ?
C3 C4 C12 124.8(3) . . ?
C5 C4 Ir1 70.44(18) . . ?
C5 C4 C3 107.9(3) . . ?
C5 C4 C12 127.3(4) . . ?
C12 C4 Ir1 126.1(2) . . ?
C1 C5 Ir1 69.18(17) . . ?
C1 C5 C13 129.5(3) . . ?
C4 C5 Ir1 70.34(18) . . ?
C4 C5 C1 108.9(3) . . ?
C4 C5 C13 121.6(3) . . ?
C13 C5 Ir1 126.2(2) . . ?
C7 C6 C1 112.5(3) . . ?
C8 C6 C1 107.0(3) . . ?
C8 C6 C7 108.5(3) . . ?
C9 C6 C1 112.2(3) . . ?
C9 C6 C7 106.3(3) . . ?
C9 C6 C8 110.4(4) . . ?
C6 C7 H7A 109.5 . . ?
C6 C7 H7B 109.5 . . ?
C6 C7 H7C 109.5 . . ?
H7A C7 H7B 109.5 . . ?
H7A C7 H7C 109.5 . . ?
H7B C7 H7C 109.5 . . ?
C6 C8 H8A 109.5 . . ?
C6 C8 H8B 109.5 . . ?
C6 C8 H8C 109.5 . . ?
H8A C8 H8B 109.5 . . ?
H8A C8 H8C 109.5 . . ?
H8B C8 H8C 109.5 . . ?
C6 C9 H9A 109.5 . . ?
C6 C9 H9B 109.5 . . ?
C6 C9 H9C 109.5 . . ?
H9A C9 H9B 109.5 . . ?
H9A C9 H9C 109.5 . . ?
H9B C9 H9C 109.5 . . ?
C2 C10 H10A 109.5 . . ?
C2 C10 H10B 109.5 . . ?
C2 C10 H10C 109.5 . . ?
H10A C10 H10B 109.5 . . ?
H10A C10 H10C 109.5 . . ?
H10B C10 H10C 109.5 . . ?
C3 C11 H11A 109.5 . . ?
C3 C11 H11B 109.5 . . ?
C3 C11 H11C 109.5 . . ?
H11A C11 H11B 109.5 . . ?
H11A C11 H11C 109.5 . . ?
H11B C11 H11C 109.5 . . ?
C4 C12 H12A 109.5 . . ?
C4 C12 H12B 109.5 . . ?
C4 C12 H12C 109.5 . . ?
H12A C12 H12B 109.5 . . ?
H12A C12 H12C 109.5 . . ?
H12B C12 H12C 109.5 . . ?
C5 C13 H13A 109.5 . . ?
C5 C13 H13B 109.5 . . ?
C5 C13 H13C 109.5 . . ?
H13A C13 H13B 109.5 . . ?
H13A C13 H13C 109.5 . . ?
H13B C13 H13C 109.5 . . ?
loop_
_geom_bond_atom_site_label_1
_geom_bond_atom_site_label_2
_geom_bond_distance
_geom_bond_site_symmetry_2
_geom_bond_publ_flag
Ir1 Cl1 2.3916(11) . ?
Ir1 Cl2 2.4463(11) . ?
Ir1 Cl2 2.4582(10) 2_667 ?
Ir1 C1 2.124(3) . ?
Ir1 C2 2.158(3) . ?
Ir1 C3 2.164(3) . ?
Ir1 C4 2.144(3) . ?
Ir1 C5 2.145(3) . ?
C1 C2 1.471(5) . ?
C1 C5 1.462(5) . ?
C1 C6 1.540(5) . ?
C2 C3 1.434(5) . ?
C2 C10 1.495(5) . ?
C3 C4 1.450(5) . ?
C3 C11 1.495(5) . ?
C4 C5 1.439(5) . ?
C4 C12 1.496(5) . ?
C5 C13 1.502(5) . ?
C6 C7 1.536(6) . ?
C6 C8 1.532(5) . ?
C6 C9 1.523(6) . ?
C7 H7A 0.9800 . ?
C7 H7B 0.9800 . ?
C7 H7C 0.9800 . ?
C8 H8A 0.9800 . ?
C8 H8B 0.9800 . ?
C8 H8C 0.9800 . ?
C9 H9A 0.9800 . ?
C9 H9B 0.9800 . ?
C9 H9C 0.9800 . ?
C10 H10A 0.9800 . ?
C10 H10B 0.9800 . ?
C10 H10C 0.9800 . ?
C11 H11A 0.9800 . ?
C11 H11B 0.9800 . ?
C11 H11C 0.9800 . ?
C12 H12A 0.9800 . ?
C12 H12B 0.9800 . ?
C12 H12C 0.9800 . ?
C13 H13A 0.9800 . ?
C13 H13B 0.9800 . ?
C13 H13C 0.9800 . ?
