#------------------------------------------------------------------------------
#$Date: 2020-10-04 05:42:14 +0300 (Sun, 04 Oct 2020) $
#$Revision: 256985 $
#$URL: file:///home/coder/svn-repositories/cod/cif/4/51/79/4517970.cif $
#------------------------------------------------------------------------------
#
# This file is available in the Crystallography Open Database (COD),
# http://www.crystallography.net/
#
# All data on this site have been placed in the public domain by the
# contributors.
#
data_4517970
loop_
_publ_author_name
'Werner, Philipp'
'W\"achter, Tobias'
'Asyuda, Andika'
'Wiesner, Adrian'
'Kind, Martin'
'Bolte, Michael'
'Weinhardt, Lothar'
'Terfort, Andreas'
'Zharnikov, Michael'
_publ_section_title
;
 Electron Transfer Dynamics and Structural Effects in Benzonitrile
 Monolayers with Tuned Dipole Moments by Differently Positioned Fluorine
 Atoms.
;
_journal_issue                   35
_journal_name_full               'ACS applied materials &amp; interfaces'
_journal_page_first              39859
_journal_page_last               39869
_journal_paper_doi               10.1021/acsami.0c10513
_journal_volume                  12
_journal_year                    2020
_chemical_formula_moiety         'C9 H5 F2 N O Se'
_chemical_formula_sum            'C9 H5 F2 N O Se'
_chemical_formula_weight         260.10
_space_group_crystal_system      monoclinic
_space_group_IT_number           14
_space_group_name_Hall           '-P 2ybc'
_space_group_name_H-M_alt        'P 1 21/c 1'
_atom_sites_solution_hydrogens   geom
_audit_creation_method           SHELXL-2014/6
_cell_angle_alpha                90
_cell_angle_beta                 99.000(8)
_cell_angle_gamma                90
_cell_formula_units_Z            4
_cell_length_a                   7.8680(8)
_cell_length_b                   7.3367(5)
_cell_length_c                   16.4544(17)
_cell_measurement_reflns_used    11064
_cell_measurement_temperature    173(2)
_cell_measurement_theta_max      29.87
_cell_measurement_theta_min      3.74
_cell_volume                     938.14(15)
_computing_cell_refinement       'X-Area (Stoe & Cie, 2001)'
_computing_data_collection       'X-Area (Stoe & Cie, 2001)'
_computing_data_reduction        'X-Area (Stoe & Cie, 2001)'
_computing_molecular_graphics    'XP in SHELXTL-Plus (Sheldrick, 2008)'
_computing_publication_material  SHELXL
_computing_structure_refinement  'SHELXL-2014/6 (Sheldrick, 2014)'
_computing_structure_solution    'SHELXS (Sheldrick, 2008)'
_diffrn_ambient_temperature      173(2)
_diffrn_measured_fraction_theta_full 0.998
_diffrn_measured_fraction_theta_max 0.998
_diffrn_measurement_device_type  'STOE IPDS II two-circle-diffractometer'
_diffrn_measurement_method       \w
_diffrn_radiation_type           MoK\a
_diffrn_radiation_wavelength     0.71073
_diffrn_reflns_av_R_equivalents  0.0580
_diffrn_reflns_av_unetI/netI     0.0300
_diffrn_reflns_Laue_measured_fraction_full 0.998
_diffrn_reflns_Laue_measured_fraction_max 0.998
_diffrn_reflns_limit_h_max       9
_diffrn_reflns_limit_h_min       -9
_diffrn_reflns_limit_k_max       9
_diffrn_reflns_limit_k_min       -8
_diffrn_reflns_limit_l_max       20
_diffrn_reflns_limit_l_min       -20
_diffrn_reflns_number            11064
_diffrn_reflns_point_group_measured_fraction_full 0.998
_diffrn_reflns_point_group_measured_fraction_max 0.998
_diffrn_reflns_theta_full        25.000
_diffrn_reflns_theta_max         26.364
_diffrn_reflns_theta_min         3.742
_diffrn_source                   'Genix 3D I\mS microfocus X-ray source'
_exptl_absorpt_coefficient_mu    3.996
_exptl_absorpt_correction_T_max  1.000
_exptl_absorpt_correction_T_min  0.482
_exptl_absorpt_correction_type   multi-scan
_exptl_absorpt_process_details   'X-Area (Stoe & Cie, 2001)'
_exptl_crystal_colour            colourless
_exptl_crystal_density_diffrn    1.842
_exptl_crystal_description       block
_exptl_crystal_F_000             504
_exptl_crystal_size_max          0.360
_exptl_crystal_size_mid          0.250
_exptl_crystal_size_min          0.080
_refine_diff_density_max         0.812
_refine_diff_density_min         -0.707
_refine_diff_density_rms         0.123
_refine_ls_extinction_method     none
_refine_ls_goodness_of_fit_ref   1.152
_refine_ls_hydrogen_treatment    constr
_refine_ls_matrix_type           full
_refine_ls_number_parameters     128
_refine_ls_number_reflns         1912
_refine_ls_number_restraints     0
_refine_ls_restrained_S_all      1.152
_refine_ls_R_factor_all          0.0519
_refine_ls_R_factor_gt           0.0457
_refine_ls_shift/su_max          0.001
_refine_ls_shift/su_mean         0.000
_refine_ls_structure_factor_coef Fsqd
_refine_ls_weighting_details
'w=1/[\s^2^(Fo^2^)+(0.0712P)^2^+0.8306P] where P=(Fo^2^+2Fc^2^)/3'
_refine_ls_weighting_scheme      calc
_refine_ls_wR_factor_gt          0.1209
_refine_ls_wR_factor_ref         0.1247
_reflns_Friedel_coverage         0.000
_reflns_number_gt                1701
_reflns_number_total             1912
_reflns_threshold_expression     'I > 2\s(I)'
_cod_data_source_file            am0c10513_si_004.cif
_cod_data_source_block           te80
_cod_depositor_comments
;Adding full bibliography for 4517969--4517972.cif.

 Adding full bibliography for 4517969--4517972.cif.
;
_cod_original_sg_symbol_H-M      'P 21/c'
_cod_database_code               4517970
_shelx_space_group_comment
; 
The symmetry employed for this shelxl refinement is uniquely defined 
by the following loop, which should always be used as a source of 
symmetry information in preference to the above space-group names. 
They are only intended as comments. 
;
_shelx_estimated_absorpt_t_min   0.327
_shelx_estimated_absorpt_t_max   0.740
_shelxl_version_number           2014/6
_shelx_res_file
; 
TITL te80 in P21/c 
CELL .71073  7.8680   7.3367  16.4544  90.000  99.000  90.000 
ZERR 4       0.0008   0.0005   0.0017   0.000   0.008   0.000 
LATT 1 
SYMM -x, y+0.5, -z+0.5 
SFAC C  H  F N O Se 
UNIT 36 20 8 4 4 4 
TEMP -100 
SIZE 0.36 0.25 0.08 
REM colorless block 
SHEL 999. .80 
CONF 
ACTA 50 
L.S. 8 
BOND$H 
FMAP 2 
PLAN 10 
WGHT    0.071200    0.830600 
FVAR       0.40778 
SE1   6    0.723847    0.220393    0.479867    11.00000    0.03128    0.04665 = 
         0.02915    0.00633   -0.00135    0.00363 
F1    3    0.568275    0.582978    0.410914    11.00000    0.04319    0.03717 = 
         0.05265   -0.00364   -0.01056   -0.00358 
F2    3    0.494170   -0.047311    0.369051    11.00000    0.05296    0.03099 = 
         0.05349    0.00332    0.00070    0.00385 
N1    4   -0.003039    0.383124    0.154474    11.00000    0.04822    0.07802 = 
         0.03527   -0.00327   -0.01077    0.00758 
O1    5    0.871504    0.345133    0.347248    11.00000    0.04198    0.07903 = 
         0.03847    0.02052    0.00239    0.00890 
C1    1    0.535845    0.265750    0.393696    11.00000    0.02661    0.04169 = 
         0.03016    0.00129    0.00354    0.00044 
C2    1    0.482331    0.442397    0.371284    11.00000    0.03042    0.03607 = 
         0.03156   -0.00303   -0.00300   -0.00055 
C3    1    0.343295    0.480876    0.310878    11.00000    0.03432    0.03774 = 
         0.03756    0.00381   -0.00181    0.00238 
AFIX  43 
H3    2    0.307879    0.602672    0.298011    11.00000   -1.20000 
AFIX   0 
C4    1    0.257824    0.332921    0.269883    11.00000    0.03210    0.04820 = 
         0.02601   -0.00181   -0.00242    0.00203 
C5    1    0.308565    0.154074    0.288406    11.00000    0.03737    0.03943 = 
         0.03370   -0.00669    0.00073   -0.00507 
AFIX  43 
H5    2    0.250622    0.054469    0.259331    11.00000   -1.20000 
AFIX   0 
C6    1    0.445498    0.126218    0.350251    11.00000    0.03616    0.03503 = 
         0.03434    0.00184    0.00472    0.00308 
C7    1    0.112108    0.364438    0.205441    11.00000    0.04012    0.05518 = 
         0.02890   -0.00169   -0.00185    0.00179 
C8    1    0.904970    0.293738    0.416434    11.00000    0.03216    0.04062 = 
         0.03725    0.00448    0.00061    0.00565 
C9    1    1.081481    0.275233    0.465318    11.00000    0.03219    0.05247 = 
         0.03711    0.00357    0.00020    0.00494 
AFIX 137 
H9A   2    1.132456    0.159543    0.451617    11.00000   -1.50000 
H9B   2    1.073746    0.277559    0.524177    11.00000   -1.50000 
H9C   2    1.153699    0.376493    0.452135    11.00000   -1.50000 
  
AFIX   0 
HKLF 4 
  
REM  te80 in P21/c 
REM R1 =  0.0457 for    1701 Fo > 4sig(Fo)  and  0.0519 for all    1912 data 
REM    128 parameters refined using      0 restraints 
  
END 
  
WGHT      0.0710      0.8368 
  
REM Highest difference peak  0.812,  deepest hole -0.707,  1-sigma level  0.123 
Q1    1   0.8294  0.2200  0.4440  11.00000  0.05    0.81 
Q2    1   0.5957  0.2229  0.5051  11.00000  0.05    0.68 
Q3    1   0.8142  0.1255  0.4206  11.00000  0.05    0.57 
Q4    1   0.8079  0.3732  0.4554  11.00000  0.05    0.55 
Q5    1   0.6348  0.1284  0.5431  11.00000  0.05    0.46 
Q6    1   0.6387  0.2993  0.5424  11.00000  0.05    0.43 
Q7    1   0.7895  0.0543  0.4566  11.00000  0.05    0.39 
Q8    1   0.6276  0.3322  0.5201  11.00000  0.05    0.38 
Q9    1   1.2038  0.0409  0.5837  11.00000  0.05    0.37 
Q10   1   0.2703 -0.0850  0.3818  11.00000  0.05    0.37 
;
_shelx_res_checksum              77315
_shelx_hkl_file
; 
  -3  -3  14   12.00    3.81   0 
  -3  -3  18    2.24    3.79   0 
  -3  -3  19    8.80    3.75   0 
  -3  -2  13   -1.80    3.61   0 
  -3  -2  21    1.86    3.61   0 
  -3  -1  12   73.26    4.23   0 
  -3  -1  21    5.12    3.65   0 
  -3  -1  22   24.88    3.31   0 
  -3   0  13    2.07    3.97   0 
  -3   0  20   38.90    4.10   0 
  -3   0  21    0.00    3.91   0 
  -3   1  16    4.70    3.78   0 
  -3   1  17    3.17    3.72   0 
  -2  -6  15   22.17    3.38   0 
  -2  -6  16    1.90    2.99   0 
  -2  -6  17   16.13    3.27   0 
  -2  -6  18    0.87    3.04   0 
  -2  -5  10   66.88    3.55   0 
  -2  -4   8  171.29    4.17   0 
  -2  -3   7   44.94    3.89   0 
  -2  -1   6  408.26    5.07   0 
  -2   2   9  122.01    5.40   0 
  -2   3  12  159.81    5.38   0 
  -2   3  21   13.23    4.57   0 
  -1  -7  11   56.74    4.05   0 
  -1  -7  12    5.30    3.68   0 
  -1  -4   4  164.35    4.58   0 
   0  -8  10    5.04    3.76   0 
   0  -6   4    2.48    4.38   0 
   1  -8   6   -0.20    4.29   0 
   2  -9   7    4.21    4.51   0 
   2  -7   1  194.09    6.42   0 
   2  -5  -2    0.62    6.72   0 
   2   7   8   -1.98    5.27   0 
   3   1  -5    5.14    3.63   0 
   3   4  -2    3.16    3.93   0 
   3   8  11    4.51    5.48   0 
   4  -4  -6  221.53    8.29   0 
   5  -4  -7   69.98    6.00   0 
   6  -5  -7   71.41    6.09   0 
   6   1  -8   -0.11    3.73   0 
   6   5  -4    9.58    3.87   0 
   6   8   4    3.03    4.13   0 
   7  -2  -9   16.74    4.10   0 
   7   0  -9    1.54    3.90   0 
   7   2  -8    1.44    3.80   0 
   7   3  -7    2.11    2.84   0 
   7   4  -6    5.15    3.75   0 
   7   7   0   -4.58    3.73   0 
   8  -6  -7    2.84    5.52   0 
   8  -5  -8    2.87    4.95   0 
   8   1  -9    6.18    4.01   0 
   9  -4  -9   10.83    4.51   0 
  -3  -3  16    6.22    3.03   0 
  -3  -3  17   21.74    3.29   0 
  -3  -2  14  124.18    4.54   0 
  -3  -2  16  119.14    4.60   0 
  -3  -2  17    0.04    3.86   0 
  -3  -2  18   79.87    4.18   0 
  -3  -2  19   -1.30    3.88   0 
  -3  -2  20   43.99    3.58   0 
  -3  -1  13    5.46    3.00   0 
  -3  -1  14    2.28    4.01   0 
  -3  -1  20    8.93    3.96   0 
  -3   0  14  175.50    5.05   0 
  -3   0  15    2.92    4.04   0 
  -3   0  16  221.27    4.89   0 
  -3   0  17    1.14    3.89   0 
  -2  -5  12   42.83    4.18   0 
  -2  -4   9   19.90    3.87   0 
  -2   3  13    3.88    5.08   0 
  -2   3  20   24.35    4.62   0 
  -1  -7  13   41.34    3.93   0 
  -1  -7  14    0.40    3.64   0 
  -1  -6   8    3.30    4.08   0 
  -1  -5   6   42.11    4.21   0 
   0  -8  11   19.23    3.85   0 
   0  -8  12    3.58    3.88   0 
   0  -7   7   91.53    4.95   0 
   0  -2   0 1599.16   14.53   0 
   1  -5   0  227.55    6.67   0 
   2   0  -4 9999.99   25.40   0 
   3   8  10    2.23    5.35   0 
   4   5  -2    6.17    3.91   0 
   5  -1  -8  399.01    6.33   0 
   5   8   5    5.32    3.91   0 
   6   7   0    0.38    3.78   0 
   7  -3  -9    2.01    4.78   0 
   7   5  -5    4.30    3.67   0 
   9  -2 -10    1.28    4.42   0 
   9  -1 -10   47.79    4.33   0 
   9   2  -9    4.10    3.75   0 
   9   4  -7   -0.40    3.68   0 
  10  -2 -10   12.78    3.99   0 
  10  -1 -10    7.76    3.79   0 
  10   2  -9    0.56    3.71   0 
  -3  -1  15   66.26    3.57   0 
  -3  -1  16    8.55    3.99   0 
  -3  -1  17    5.12    3.97   0 
  -3  -1  18   10.87    3.20   0 
  -2  -5  13   13.73    3.82   0 
  -2  -5  14   23.82    3.82   0 
  -2  -5  19    7.83    3.72   0 
  -2  -2   7  133.19    4.14   0 
  -2   0   7    2.24    4.05   0 
  -2   3  14  198.59    6.09   0 
  -2   3  18  117.87    5.24   0 
  -2   3  19    2.73    4.67   0 
  -1  -7  15   28.02    3.31   0 
  -1  -7  16    5.61    3.10   0 
  -1  -6   9    9.32    3.99   0 
  -1  -2   3  914.56    8.10   0 
   0  -8  13   18.80    3.83   0 
   1  -8   7   13.52    4.12   0 
   1  -4  -1  493.81    9.08   0 
   2  -9   8    0.29    4.43   0 
   2  -8   4    4.30    4.60   0 
   3  -9   5    6.97    4.32   0 
   4  -2  -7    2.41    4.46   0 
   4  -1  -7  145.78    4.80   0 
   4   0  -7    4.55    4.07   0 
   5  -2  -8   40.20    4.10   0 
   5   4  -5  135.80    4.66   0 
   5   7   1   19.09    3.90   0 
   6  -4  -8   64.70    5.51   0 
   6  -1  -9    2.68    4.73   0 
   6   4  -6   55.18    4.20   0 
   6   8   3    5.16    4.21   0 
   7   1  -9    1.53    3.23   0 
   8  -2 -10   82.21    5.28   0 
   8  -1 -10    2.13    3.96   0 
   8   3  -8    3.73    3.07   0 
   8   6  -4    3.40    3.80   0 
   9   5  -6    5.00    3.67   0 
  10   0 -10   16.28    3.32   0 
  -2  -5  16   63.46    3.78   0 
  -2  -5  17    6.42    3.06   0 
  -2  -4  10  105.83    3.65   0 
  -2  -1   7    2.45    3.67   0 
  -2   1   8  266.81    5.50   0 
  -2   2  10  211.46    5.75   0 
  -2   2  22    9.98    4.05   0 
  -2   3  15   10.39    4.69   0 
  -2   3  16  180.68    5.81   0 
  -2   3  17   15.21    4.67   0 
  -1  -4   5  120.59    4.63   0 
  -1   0   3    0.88    5.04   0 
   0  -7   8   13.13    3.76   0 
   0  -6   5  153.77    4.76   0 
   0  -5   3  490.68    6.57   0 
   1  -8   8    8.26    4.41   0 
   1  -7   4   38.47    4.21   0 
   2  -9   9   12.03    4.58   0 
   3   7   4    1.22    4.15   0 
   3   8   9   -0.01    5.47   0 
   4  -9   3    4.84    5.01   0 
   4  -8   0    0.58    5.40   0 
   4   7   2    2.94    4.31   0 
   4   8   6    1.89    4.23   0 
   5   6  -2    2.47    3.75   0 
   5   8   4    3.70    4.13   0 
   6  -2  -9    5.21    3.95   0 
   6   0  -9    2.81    4.16   0 
   6   6  -3    6.85    3.80   0 
   7  -6  -7   27.97    7.49   0 
   7  -5  -8   18.43    5.45   0 
   7   3  -8   26.13    4.05   0 
   7   4  -7   42.22    4.08   0 
   8   0 -10   67.72    3.65   0 
   8   5  -6    3.38    3.74   0 
   9  -3 -10   18.60    4.31   0 
   9   1 -10   43.96    4.47   0 
  -2  -4  11  122.57    3.63   0 
  -2  -4  12   35.99    4.04   0 
  -2  -4  19   10.46    3.85   0 
  -2  -4  20    6.87    3.61   0 
  -2  -3   9  199.88    4.52   0 
  -2  -2   8 1092.20    7.58   0 
  -2   2  21    4.68    4.05   0 
  -1  -6  11   -0.75    3.98   0 
  -1  -5   7  211.98    4.90   0 
  -1  -3   4 1113.23    7.93   0 
  -1  -1   3  119.47    5.35   0 
   1  -6   2   40.47    4.75   0 
   2   1  -4  277.19    5.80   0 
   3  -9   6    2.83    4.50   0 
   3  -8   2    2.97    4.42   0 
   3  -1  -6 1993.47   11.47   0 
   3   0  -6   22.84    4.26   0 
   4  -7  -2    5.08    7.87   0 
   5  -3  -8  334.59    6.65   0 
   5   7   0    3.95    4.25   0 
   6   1  -9    5.42    4.06   0 
   6   7  -1    5.63    3.72   0 
   6   8   2    4.24    4.20   0 
   7  -4  -9   59.55    5.58   0 
   7  -1 -10  153.46    5.00   0 
   7   0 -10    4.30    4.05   0 
   7   2  -9   13.92    4.03   0 
   7   6  -4    3.42    3.18   0 
   7   7  -2    3.35    3.63   0 
   8  -3 -10   -0.20    4.39   0 
   8   1 -10    2.75    3.88   0 
   9  -5  -9    5.90    4.98   0 
   9   2 -10    5.30    3.98   0 
   9   3  -9    5.29    3.67   0 
   9   4  -8    5.54    3.66   0 
  10   2 -10   10.96    3.92   0 
  10   3  -9    1.27    2.99   0 
  -2  -4  13  115.49    4.40   0 
  -2  -4  14   12.71    4.19   0 
  -2  -4  15   69.65    4.16   0 
  -2  -4  16   -2.10    3.54   0 
  -2  -4  17   22.25    3.95   0 
  -2  -4  18   27.19    4.07   0 
  -2  -3  10  248.66    4.80   0 
  -2   1   9  107.14    5.18   0 
  -2   1  22   13.72    4.33   0 
  -2   2  11   75.26    4.90   0 
  -2   2  19    9.87    4.64   0 
  -2   2  20   49.35    4.49   0 
  -1  -6  12   14.31    3.40   0 
  -1  -6  13    8.88    3.94   0 
  -1  -6  14   24.73    4.01   0 
  -1  -6  16   19.31    3.80   0 
  -1  -6  17   11.48    3.94   0 
  -1  -6  18   11.54    3.78   0 
  -1  -5   8   85.06    4.42   0 
  -1   4  20   11.96    5.22   0 
   0  -7  10   14.74    4.30   0 
   1  -8   9    9.15    3.86   0 
   1   6   6    7.70    5.77   0 
   2  -8   5   36.89    4.72   0 
   2  -7   2    4.29    4.60   0 
   3  -2  -6  126.13    5.71   0 
   4  -3  -7  293.70    7.17   0 
   5   4  -6    6.54    3.60   0 
   6   4  -7    3.26    3.74   0 
   7  -2 -10    1.54    4.00   0 
   8   6  -5    2.36    3.93   0 
   9  -2 -11    5.57    4.42   0 
   9  -1 -11    3.76    3.85   0 
   9   0 -11    7.58    3.84   0 
   9   5  -7   11.32    3.71   0 
  10  -2 -11    2.95    3.96   0 
  10   0 -11    0.48    3.76   0 
  -2  -3  11   -2.62    3.79   0 
  -2  -3  19    8.70    3.83   0 
  -2  -3  20   19.21    3.99   0 
  -2  -2  21    0.26    3.89   0 
  -2  -1   8  273.23    4.51   0 
  -2  -1  22   14.00    3.98   0 
  -2   0  22   20.84    4.12   0 
  -2   1  21    4.93    3.84   0 
  -2   2  12   88.80    4.86   0 
  -2   2  18   13.11    4.76   0 
  -1  -4   6   31.79    4.25   0 
  -1   4  10  187.53    8.46   0 
   0  -7  11    4.64    3.72   0 
   0  -7  12    5.93    3.85   0 
   2  -6   0    6.59    5.22   0 
   2   7   6    7.53    5.09   0 
   3  -9   7   15.23    4.72   0 
   3  -6  -2   14.66    7.38   0 
   3   8   8    0.85    4.74   0 
   4  -9   4   -2.41    4.27   0 
   4   4  -5    2.25    3.91   0 
   4   7   1   16.31    3.95   0 
   5  -8  -1   27.22    7.54   0 
   5   6  -3   24.74    4.09   0 
   6   2  -9    4.46    3.80   0 
   6   7  -2    3.64    3.65   0 
   7   1 -10  113.03    4.06   0 
   7   4  -8    5.02    3.65   0 
   7   6  -5   25.22    4.11   0 
   7   7  -3    9.86    3.95   0 
   8  -1 -11    1.70    4.09   0 
   8   0 -11   -1.06    4.01   0 
   8   2 -10   62.45    3.79   0 
   9   1 -11    3.92    4.02   0 
  10   1 -11    5.12    3.16   0 
  -2  -3  12  175.98    4.73   0 
  -2  -3  17   12.21    3.76   0 
  -2  -2  20   35.81    4.16   0 
  -2  -1  21    5.27    3.91   0 
  -2   0   9   -1.65    4.91   0 
  -2   1  20   55.32    4.46   0 
  -2   2  13    4.65    4.57   0 
  -2   2  17   50.04    5.22   0 
  -1  -5  19   15.36    3.78   0 
  -1   2   5    8.48    6.62   0 
  -1   4  19   23.59    4.72   0 
   0  -7  13    2.00    3.31   0 
   0  -7  16    2.72    3.13   0 
   0  -6   7  194.81    4.96   0 
   1  -8  13    1.01    4.03   0 
   1  -7   6   32.62    4.70   0 
   2  -8   6    4.81    3.98   0 
   3  -8   3   29.15    4.94   0 
   3  -7   0   46.83    5.24   0 
   3   6   0    4.82    3.70   0 
   4   2  -7    2.07    3.76   0 
   4   8   4   -0.92    4.20   0 
   5  -1  -9    3.00    4.71   0 
   5   0  -9    0.81    4.13   0 
   5   5  -5    7.57    3.22   0 
   5   8   2    3.86    4.17   0 
   6  -1 -10   34.39    5.04   0 
   6   5  -6    1.08    3.27   0 
   7  -3 -10   69.95    5.45   0 
   7   2 -10    5.22    4.02   0 
   7   5  -7    0.49    3.90   0 
   8  -6  -8    2.84    5.99   0 
   8  -4 -10   26.86    5.49   0 
   8  -2 -11   -0.20    4.09   0 
   8   1 -11    5.85    4.01   0 
   8   6  -6    7.89    4.03   0 
   9  -3 -11    0.76    4.80   0 
   9   3 -10   16.30    3.32   0 
   9   4  -9   11.28    3.14   0 
   9   5  -8    6.73    3.87   0 
  10   2 -11    0.42    3.77   0 
  -2  -3  13   -1.24    3.11   0 
  -2  -3  14  178.03    4.16   0 
  -2  -3  15    5.48    3.30   0 
  -2  -3  16  138.16    4.25   0 
  -2  -2  10  214.66    4.08   0 
  -2  -2  18    7.52    4.05   0 
  -2  -2  19    5.74    4.03   0 
  -2  -1  20   59.89    4.38   0 
  -2   0  20   54.01    4.33   0 
  -2   1  19    3.17    4.23   0 
  -2   2  14    6.59    4.15   0 
  -1  -5  10   49.52    3.62   0 
  -1  -5  11  135.06    4.57   0 
  -1  -5  18   -1.78    3.97   0 
  -1  -4   7  255.25    5.29   0 
  -1  -2   4    4.59    3.35   0 
  -1   1   4   42.48    5.52   0 
  -1   4  18   33.13    5.38   0 
   1  -5   1  224.33    6.14   0 
   2  -8   7   48.03    4.87   0 
   2   6   2    0.91    4.24   0 
   3   3  -5    7.50    3.86   0 
   3   8   7    1.22    4.52   0 
   4  -9   5    1.03    4.69   0 
   4  -8   1   32.75    5.80   0 
   4  -1  -8    3.09    4.68   0 
   4   5  -4   -1.38    4.23   0 
   5   1  -9    3.67    4.08   0 
   6   0 -10  153.91    5.25   0 
   6   8   0    5.46    4.35   0 
   8   3 -10   -2.71    3.10   0 
   8   4  -9    0.57    3.07   0 
   8   5  -8    6.04    3.78   0 
   9   2 -11    7.73    3.21   0 
  10  -1 -12    2.71    3.91   0 
  10   0 -12   30.15    4.07   0 
  -2  -2  11   68.59    3.57   0 
  -2  -2  12   92.56    4.49   0 
  -2  -2  13    5.40    3.82   0 
  -2  -2  16    4.48    4.19   0 
  -2  -2  17   50.01    4.29   0 
  -2  -1  19    5.41    3.22   0 
  -2   0  18    1.20    4.25   0 
  -2   0  19    4.64    4.05   0 
  -2   1  11   26.45    4.26   0 
  -2   1  17    1.96    4.08   0 
  -2   1  18  140.30    4.71   0 
  -1  -5  12    5.24    3.43   0 
  -1  -5  13   88.26    4.44   0 
  -1  -5  14    7.20    3.90   0 
  -1  -5  15   62.11    4.35   0 
  -1  -5  16   10.39    3.21   0 
  -1  -5  17   52.66    3.48   0 
  -1  -4  20   13.01    3.99   0 
  -1   3   7   45.62    6.99   0 
  -1   4  11    5.90    6.35   0 
   0  -6   8   56.27    4.43   0 
   1  -7   7  116.78    4.55   0 
   2  -8   8    7.04    4.61   0 
   2   7   5    9.63    5.32   0 
   3   4  -4   11.05    3.38   0 
   4   7   0    5.54    3.95   0 
   5  -2  -9   84.96    4.57   0 
   5   6  -4    0.75    3.95   0 
   5   7  -2    4.02    3.83   0 
   5   8   1   10.23    4.24   0 
   6  -8  -2    1.13    7.61   0 
   6  -2 -10  220.54    5.38   0 
   7  -1 -11    3.37    4.08   0 
   7   1 -11   -2.15    4.16   0 
   7   4  -9   49.43    4.11   0 
   7   6  -6    5.03    3.15   0 
   8  -3 -11   30.34    4.91   0 
   8   2 -11    2.61    3.97   0 
   9  -1 -12   15.64    4.12   0 
   9   0 -12    1.44    4.01   0 
   9   1 -12   20.43    4.18   0 
   9   4 -10    3.87    3.69   0 
  10   1 -12   -2.87    3.89   0 
  -2  -2  14    7.96    3.27   0 
  -2  -2  15   21.07    3.43   0 
  -2  -1  16  240.28    5.23   0 
  -2  -1  17    4.06    4.04   0 
  -2   0  11   -3.64    4.43   0 
  -2   0  17    0.92    4.16   0 
  -2   1  13   -4.19    4.20   0 
  -2   1  16  243.34    5.23   0 
  -1  -4   8   58.65    3.73   0 
  -1  -4  19   24.90    4.01   0 
  -1   4  16   44.01    5.43   0 
   0  -6   9  117.82    4.68   0 
   0  -6  10   20.27    4.22   0 
   0  -6  17   11.32    4.02   0 
   0  -4   3   22.85    4.27   0 
   1  -7   8   -0.27    4.03   0 
   1  -6   4    9.97    5.06   0 
   1   2  -2  170.24    5.50   0 
   1   6   5   19.32    5.71   0 
   2   0  -5    0.20    4.19   0 
   3   8   6   -0.98    4.62   0 
   4  -2  -8  224.94    5.85   0 
   4   1  -8    0.49    3.32   0 
   4   6  -3   18.78    4.08   0 
   5  -7  -3   25.11    9.35   0 
   5  -4  -8   -0.55    5.84   0 
   5   5  -6   76.31    4.52   0 
   6  -5  -8    2.64    6.36   0 
   6  -4  -9    1.99    4.90   0 
   6   5  -7   46.40    3.74   0 
   7  -2 -11   14.97    4.13   0 
   8  -1 -12    1.59    4.86   0 
   8   0 -12   66.27    4.41   0 
   8   6  -7    5.17    3.26   0 
   9  -2 -12   -2.46    4.17   0 
   9   3 -11    5.00    3.38   0 
  -2  -1  13   -0.67    3.56   0 
  -2  -1  14  759.20    7.00   0 
  -2  -1  15   12.71    3.95   0 
  -2   0  13    0.53    4.28   0 
  -2   0  14    4.50    4.35   0 
  -2   0  15    4.51    4.48   0 
  -1  -4  18   23.20    3.97   0 
  -1  -3  21    0.81    3.19   0 
  -1  -2   5    9.15    4.00   0 
  -1  -2  22   22.94    4.04   0 
  -1  -1   4   44.11    3.99   0 
  -1   4  12  171.50    6.85   0 
  -1   4  14  175.93    6.31   0 
  -1   4  15   22.35    5.47   0 
   0  -6  11   84.46    4.60   0 
   0  -6  12    7.47    4.23   0 
   0  -6  13   95.36    4.45   0 
   0  -6  14    3.42    4.17   0 
   0  -6  15   52.44    4.43   0 
   0  -6  16    4.49    3.13   0 
   0   5  19   18.26    5.55   0 
   1  -7   9  140.27    4.89   0 
   1  -7  10    3.87    4.78   0 
   2  -8  10    4.88    4.10   0 
   2  -8  11   38.10    4.40   0 
   2  -8  12   -0.16    4.05   0 
   2  -7   4   19.83    5.15   0 
   2  -1  -5   38.65    4.36   0 
   3  -3  -6  806.00   11.30   0 
   3   0  -7    0.89    4.04   0 
   5  -5  -7    9.79    7.32   0 
   6   6  -6   11.55    4.13   0 
   6   7  -4    2.94    3.92   0 
   7  -5  -9    1.49    5.62   0 
   7  -4 -10    3.18    4.76   0 
   7   2 -11   12.83    4.10   0 
   7   7  -5   10.00    3.84   0 
   8   1 -12    4.57    3.97   0 
   8   3 -11   17.93    4.04   0 
   9   2 -12    0.66    3.92   0 
  -1  -4  11    2.88    3.95   0 
  -1  -4  12  166.76    4.55   0 
  -1  -4  14  158.88    4.93   0 
  -1  -4  15   21.53    4.24   0 
  -1  -4  16   41.48    4.02   0 
  -1  -3  19   21.43    4.01   0 
  -1  -3  20   12.61    3.32   0 
  -1  -2  21    1.95    3.98   0 
  -1  -1  22   15.77    4.05   0 
  -1   1  22   19.32    4.17   0 
  -1   2  21    0.13    4.08   0 
  -1   3  19   33.84    5.15   0 
   0  -5  19   13.59    3.92   0 
   1  -7  11   80.46    4.30   0 
   1  -7  12    3.27    3.92   0 
   1  -7  13   27.20    4.13   0 
   1  -7  15   29.00    4.24   0 
   1  -4   0   76.25    5.72   0 
   2   6   1  104.39    5.14   0 
   3  -8   5    9.30    4.65   0 
   3  -1  -7   10.89    4.21   0 
   3   1  -7    6.24    4.07   0 
   3   8   5    1.39    4.80   0 
   4  -8   2    7.46    5.21   0 
   4   8   2    5.93    4.26   0 
   5  -3  -9    1.45    4.73   0 
   5   4  -8   -0.09    3.82   0 
   5   7  -3   10.29    4.06   0 
   5   8   0    5.90    3.91   0 
   6  -3 -10    2.10    4.60   0 
   6  -1 -11   35.77    4.78   0 
   6   0 -11   -0.80    4.31   0 
   6   4  -9    9.49    3.90   0 
   6   5  -8    6.58    4.05   0 
   6   8  -2    5.16    4.39   0 
   7  -3 -11   13.75    5.04   0 
   7   4 -10    5.66    3.74   0 
   8  -2 -12   68.66    4.49   0 
   8   2 -12   41.44    4.66   0 
   8   6  -8    4.46    3.99   0 
   9  -3 -12   12.59    4.25   0 
   9   3 -12    4.01    3.95   0 
   9   4 -11   17.76    3.81   0 
  -1  -4  13   19.92    3.44   0 
  -1  -3  18   15.06    4.12   0 
  -1  -2  20   19.39    4.22   0 
  -1  -1  21    4.71    4.11   0 
  -1   1  21   -0.90    4.04   0 
  -1   2  20   17.29    4.62   0 
  -1   3  18   15.19    4.82   0 
   0  -5  18   21.42    4.26   0 
   0   5  18   21.30    5.42   0 
   1   0  -3    0.93    5.26   0 
   2  -7   5   23.59    5.32   0 
   2   3  -4   19.90    3.92   0 
   2   4  -3    7.24    4.04   0 
   3  -8   6    6.95    4.74   0 
   4   6  -4    6.52    3.93   0 
   5  -8   0   -0.90    5.88   0 
   5  -1 -10  567.78    6.75   0 
   5   3  -9   -2.90    4.01   0 
   5   5  -7    7.93    4.12   0 
   6   1 -11   26.01    4.28   0 
   7  -1 -12  109.53    4.92   0 
   7   0 -12    4.34    4.18   0 
   7   1 -12   68.23    4.76   0 
   7   3 -11   17.20    3.99   0 
   7   5  -9    2.51    3.20   0 
   7   7  -6   -0.89    3.92   0 
   8  -5 -10    5.14    5.10   0 
   8  -4 -11    6.34    4.61   0 
   8   5 -10   -4.42    3.84   0 
   9  -1 -13    2.55    3.96   0 
   9   1 -13   -0.67    3.81   0 
  -1  -3   8   22.15    3.32   0 
  -1  -3  17   39.85    4.09   0 
  -1  -2  19   81.06    4.58   0 
  -1  -1  20   14.52    4.20   0 
  -1   0  21    3.83    4.22   0 
  -1   3   8   19.86    6.54   0 
  -1   3  17   50.44    4.98   0 
   0  -5  17    5.49    3.93   0 
   0  -4  20   26.91    4.06   0 
   0  -2   1  341.48    7.26   0 
   1   6   4    6.26    5.62   0 
   2   2  -5   -0.44    3.65   0 
   3  -8   7    5.35    4.63   0 
   3   5  -4   90.95    4.58   0 
   3   8   4    3.23    4.93   0 
   4  -7  -1  125.87    7.75   0 
   4  -4  -7    2.57    6.93   0 
   4   0  -9    0.01    4.44   0 
   4   1  -9   11.62    4.39   0 
   4   4  -7    3.73    3.83   0 
   4   7  -2    9.76    3.87   0 
   5   7  -4    7.25    4.41   0 
   5   8  -1   12.96    3.86   0 
   6  -2 -11    5.03    4.88   0 
   6   2 -11    1.66    3.94   0 
   6   6  -7    5.10    3.98   0 
   7  -6  -8    0.53    7.80   0 
   7   6  -8    0.27    3.85   0 
   8  -3 -12    4.06    4.88   0 
   8  -1 -13    2.00    4.88   0 
   8   0 -13    2.42    4.08   0 
   8   1 -13   -1.10    4.13   0 
   8   3 -12    3.15    3.81   0 
   8   6  -9    2.79    3.87   0 
   9  -2 -13    5.24    4.16   0 
   9   2 -13    2.27    3.99   0 
  -1  -3  10  229.26    4.82   0 
  -1  -3  15   55.75    4.27   0 
  -1  -3  16   16.83    3.48   0 
  -1  -2  18   46.85    4.18   0 
   0  -5  14   19.24    4.34   0 
   0  -5  16   20.61    3.43   0 
   0  -4  19   16.06    4.05   0 
   0   4  20   33.02    5.65   0 
   0   5  17   11.91    5.30   0 
   1  -6  17   15.84    4.17   0 
   2  -7   6    4.11    4.36   0 
   2   5  -2    3.96    4.66   0 
   2   6   0    5.41    4.50   0 
   3  -8   8   -2.08    4.35   0 
   3  -2  -7   95.66    5.75   0 
   4  -3  -8  127.72    5.84   0 
   4  -1  -9    6.61    4.13   0 
   5  -2 -10   63.87    4.59   0 
   7  -2 -12    5.78    4.41   0 
   7   4 -11   12.24    4.08   0 
   7   5 -10   10.65    4.22   0 
   8   2 -13   -1.41    4.26   0 
   9  -4 -12   -1.56    5.20   0 
   9   3 -13    2.24    3.92   0 
   9   4 -12    4.52    3.18   0 
  -1  -3  11  153.98    4.00   0 
  -1  -3  12  103.86    4.52   0 
  -1  -3  13   73.78    3.65   0 
  -1  -3  14    0.46    3.29   0 
  -1  -2  17    7.06    4.17   0 
  -1  -1  19    6.01    3.33   0 
  -1   0  19    3.93    4.09   0 
  -1   1   5   61.89    5.69   0 
  -1   1  19    2.49    4.29   0 
  -1   2   6  310.72    7.84   0 
  -1   3  15   60.83    5.93   0 
   0  -5  11    3.05    4.30   0 
   0  -5  13    8.24    3.38   0 
   0  -4   5    1.14    4.36   0 
   0  -3  21   17.15    3.38   0 
   0  -2  22   36.80    4.20   0 
   0   4   3   17.40    6.94   0 
   1  -6   8    6.96    4.21   0 
   1  -6  15    5.76    4.01   0 
   1  -6  16    9.46    3.30   0 
   1  -1  -3  116.66    7.52   0 
   1   3  -2  811.03    7.95   0 
   2  -7   7    9.20    4.49   0 
   2  -7  15   17.27    4.30   0 
   2  -6   2    6.76    4.78   0 
   2  -2  -5    2.19    5.47   0 
   3  -8   9    5.94    4.13   0 
   3  -8  10    3.85    4.07   0 
   3  -8  11   -1.58    4.17   0 
   4   6  -5    3.10    4.06   0 
   4   9   5    3.01    4.82   0 
   5   8  -2    0.81    3.76   0 
   6   0 -12  420.69    6.13   0 
   6   6  -8    4.72    3.99   0 
   6   7  -6    4.47    3.93   0 
   7   6  -9   26.29    4.24   0 
   7   7  -7    2.19    4.02   0 
   8  -6  -9    0.75    7.19   0 
   8  -2 -13   -1.04    4.03   0 
   8   5 -11    7.55    3.98   0 
   9  -3 -13    0.83    4.82   0 
   9  -1 -14   15.83    4.75   0 
   9   1 -14   12.04    3.97   0 
  -1  -2   8  630.99    6.24   0 
  -1  -2  15    7.26    4.23   0 
  -1   0   5    0.27    4.68   0 
  -1   2  17    6.64    5.01   0 
  -1   3  14    4.73    5.58   0 
   0  -4  17   68.58    4.36   0 
   0  -1  22    8.77    3.94   0 
   0   2  22   48.23    5.18   0 
   0   3  21   19.17    4.94   0 
   0   4  19   17.54    5.20   0 
   0   5  16   23.77    5.55   0 
   1  -6   9   51.45    4.42   0 
   1  -6  11   -0.11    4.44   0 
   1  -6  12   49.75    4.31   0 
   1  -6  13   56.56    4.32   0 
   1  -6  14   23.78    4.41   0 
   1  -5  19    1.72    3.98   0 
   1   4  -1  472.36    7.03   0 
   2  -7   8    5.55    3.95   0 
   2  -7   9    3.67    4.14   0 
   2  -7  11    3.80    4.02   0 
   2  -7  12    7.00    4.06   0 
   2  -7  13   -0.14    3.93   0 
   2  -7  14    9.42    4.06   0 
   2   8   9   49.98    9.82   0 
   3   3  -7   -0.30    3.82   0 
   4  -8   4    5.56    4.87   0 
   4  -2  -9   18.94    4.52   0 
   4   7  -3   73.87    4.37   0 
   5  -8   1   27.62    6.02   0 
   5   0 -11    1.84    4.31   0 
   5   1 -11    3.28    3.99   0 
   5   6  -7   90.13    4.87   0 
   5   7  -5    2.92    3.76   0 
   6  -8  -1   15.42    6.72   0 
   6  -1 -12    9.32    4.10   0 
   6   8  -4   -3.69    3.75   0 
   7  -4 -11   12.24    5.55   0 
   7  -1 -13    2.59    4.73   0 
   7   0 -13    2.15    4.26   0 
   7   1 -13    2.39    4.23   0 
   8   3 -13    1.89    3.85   0 
   8   6 -10    8.66    4.01   0 
  -1  -2   9    5.84    4.02   0 
  -1  -2  13   -0.06    4.16   0 
  -1  -1  17   17.33    3.47   0 
  -1   0  17    3.83    4.32   0 
  -1   1  17   16.37    4.62   0 
  -1   3  10  210.53    6.58   0 
  -1   3  13   73.35    5.27   0 
   0  -4  16    5.23    4.02   0 
   0  -2  21    7.15    3.29   0 
   1  -5  18   11.53    3.89   0 
   1   2  -3  856.65    8.28   0 
   1   6   3  140.82    6.83   0 
   2   0  -6  602.49    7.14   0 
   2   7   2    5.65    5.05   0 
   3   5  -5   11.65    3.20   0 
   3   7  -1    8.49    4.03   0 
   4   9   4    0.54    4.16   0 
   5  -1 -11    2.12    4.34   0 
   5   2 -11    8.65    3.99   0 
   5   8  -3   14.42    4.11   0 
   6  -3 -11   52.01    5.07   0 
   6   4 -11    4.54    3.88   0 
   6   5 -10   -1.34    3.97   0 
   6   7  -7   29.83    4.24   0 
   7  -3 -12   91.82    5.66   0 
   7   2 -13    4.88    4.17   0 
   7   4 -12    0.36    3.86   0 
   7   5 -11   -0.74    3.82   0 
   7   7  -8    0.93    3.99   0 
   8  -4 -12   20.80    5.32   0 
   8  -1 -14   12.85    4.93   0 
   8   0 -14   29.66    4.39   0 
   8   1 -14   12.72    4.31   0 
   9  -2 -14    4.55    4.10   0 
  -1  -2  11   11.85    3.33   0 
  -1  -1   7    6.71    4.01   0 
  -1  -1  15    0.60    4.12   0 
  -1   2  15   11.08    5.22   0 
  -1   3  11  140.81    5.73   0 
  -1   3  12   99.32    5.44   0 
   0  -4  14   77.09    4.56   0 
   0  -2  20   37.29    4.31   0 
   0  -1  21    7.88    4.07   0 
   0   2  21    7.20    4.15   0 
   0   3  20   20.54    5.11   0 
   0   5  15    6.34    5.52   0 
   1  -4  20   24.75    4.00   0 
   2  -6  17    8.95    3.95   0 
   2   5  -3  302.12    5.42   0 
   2   6  -1    2.13    3.90   0 
   3  -1  -8  198.13    5.08   0 
   3   8   2    0.32    4.37   0 
   4  -8   6    3.28    4.87   0 
   4  -7   0   10.49    5.91   0 
   4   0 -10  219.47    5.17   0 
   4   6  -6   44.18    4.28   0 
   4   7  -4    3.84    3.75   0 
   4   8  -1    3.86    3.77   0 
   4   9   3    5.38    4.83   0 
   5  -3 -10  243.51    6.26   0 
   5   5  -9   20.80    4.07   0 
   5   7  -6   -3.00    3.82   0 
   6  -5  -9   99.36    8.28   0 
   6  -2 -12   88.87    5.71   0 
   6   8  -5    2.56    3.85   0 
   7  -5 -10   14.25    5.81   0 
   7  -2 -13    9.16    4.81   0 
   7   3 -13    5.56    4.03   0 
   7   6 -10    2.65    3.99   0 
   8  -3 -13    2.98    4.70   0 
   8   2 -14   27.80    3.66   0 
   9   0 -15    1.11    3.99   0 
   9   1 -15    5.89    4.20   0 
  -1   0  15    4.68    4.65   0 
  -1   1   6 1120.41    9.88   0 
  -1   1  16   22.18    4.16   0 
  -1   2   7  173.57    6.07   0 
   0  -4  11  342.34    5.19   0 
   0  -4  13   14.77    4.02   0 
   0  -3  17   44.11    4.26   0 
   0  -1  20   25.52    4.23   0 
   0   0  21   -2.87    4.22   0 
   0   1  21    7.14    4.28   0 
   0   4  18   19.41    4.81   0 
   0   5  14   22.98    6.05   0 
   1  -5  16   -0.46    4.01   0 
   1  -4  19   36.35    4.14   0 
   1   6  17   24.69    5.57   0 
   2  -6  16    3.91    4.06   0 
   2  -5   0   35.41    6.17   0 
   2  -1  -6  437.55    7.13   0 
   2   8   7   26.27    7.29   0 
   3  -7   4    1.40    5.02   0 
   4  -1 -10  395.93    6.29   0 
   5  -8   2    0.77    5.23   0 
   5   3 -11   11.66    3.99   0 
   5   6  -8    6.17    4.00   0 
   5   8  -4    2.36    4.36   0 
   6   1 -13    2.31    4.15   0 
   7   1 -14   92.23    4.61   0 
   7   7  -9   -0.92    3.84   0 
   8  -5 -11   11.96    5.98   0 
   8  -2 -14   37.24    5.14   0 
   8   3 -14    9.36    3.99   0 
   9  -1 -15   -0.61    4.23   0 
  -1  -1   9   21.65    4.20   0 
  -1  -1  13    5.54    3.65   0 
  -1   0   7   -0.41    4.35   0 
  -1   1  15    0.77    4.36   0 
  -1   2   8  599.68    8.36   0 
   0  -3  16  121.45    4.51   0 
   0  -2   2 2371.59   14.03   0 
   0  -2  18   26.36    4.19   0 
   0   3  19    9.55    4.86   0 
   0   4  17   91.24    5.89   0 
   1  -5  15   36.27    3.55   0 
   2  -6  15   37.46    4.19   0 
   2   7   1  166.32    6.08   0 
   3  -7  14    5.78    3.93   0 
   3   5  -6   23.65    3.97   0 
   4  -6  -3   44.38    8.27   0 
   4   8  -2   -1.01    3.62   0 
   4   9   2    5.46    4.34   0 
   5  -2 -11    7.77    4.22   0 
   5   1 -12  109.33    4.64   0 
   5   9  -1   10.24    4.36   0 
   6   0 -13    2.92    4.04   0 
   6   2 -13   18.79    4.12   0 
   6   7  -8    5.31    3.85   0 
   7   0 -14    2.28    4.21   0 
   7   2 -14   25.53    4.15   0 
   7   5 -12   10.81    4.05   0 
   7   6 -11   17.79    4.05   0 
   8   0 -15    1.90    4.07   0 
   8   1 -15    5.04    4.04   0 
  -1   0  13    0.91    4.49   0 
  -1   1   7    5.97    5.08   0 
  -1   1  13    6.55    5.01   0 
  -1   2   9    9.63    5.55   0 
  -1   2  11    8.93    4.68   0 
  -1   2  12  517.90    6.78   0 
   0  -1  19    3.51    3.93   0 
   0   1  20   25.43    4.24   0 
   0   5  13    5.23    6.02   0 
   1  -4  18   43.70    3.38   0 
   1  -3  20   37.60    4.30   0 
   1   3  -3    0.84    4.28   0 
   1   4  -2   31.76    4.14   0 
   1   5  19    4.75    5.22   0 
   1   6   2   34.48    5.42   0 
   1   6  16   11.72    5.90   0 
   1   7   7  108.08   12.52   0 
   2  -5  18   17.49    4.02   0 
   2   6  -2  161.95    5.42   0 
   2   8   6    0.75    6.43   0 
   3  -7   6    2.20    4.91   0 
   3  -7  12    8.98    4.14   0 
   3  -7  13   26.41    4.18   0 
   3  -6   0    5.29    5.46   0 
   3  -5  -3   44.23    8.58   0 
   4   6  -7   20.07    4.11   0 
   4   7  -5   61.93    4.29   0 
   5  -8   3   14.32    4.73   0 
   6  -8   0   -0.27    5.75   0 
   6  -1 -13   -1.43    4.01   0 
   6   6 -10    6.49    4.12   0 
   7  -1 -14   88.56    4.78   0 
   8  -1 -15    4.83    4.75   0 
   8   2 -15    0.35    3.90   0 
   8   4 -14   10.09    3.14   0 
  -1   0   9    1.13    4.44   0 
  -1   0  11   -2.15    4.25   0 
  -1   1  12  132.33    4.88   0 
  -1   2  10  249.24    6.19   0 
   0  -3   5  737.02    6.53   0 
   0  -3  14  370.61    5.36   0 
   0   0  19    1.54    4.00   0 
   0   2   0 1746.90   15.86   0 
   0   2  19    3.81    4.21   0 
   0   3  18   33.54    4.84   0 
   0   4  16    3.79    5.34   0 
   1  -5   8   49.16    4.65   0 
   1  -5  12   10.20    3.45   0 
   1  -4   2   -0.17    4.79   0 
   1  -4  17   31.70    3.48   0 
   1  -2  21    9.81    3.38   0 
   2  -6   6   30.63    4.38   0 
   2  -6  12   -3.39    3.95   0 
   2  -6  13   83.68    3.80   0 
   2   5  -4   16.90    4.22   0 
   3  -7   8    4.49    4.37   0 
   3  -7   9   24.26    4.31   0 
   3  -7  10    1.21    4.13   0 
   3  -7  11  107.47    4.66   0 
   3  -2  -8   88.32    5.81   0 
   3   0  -9    3.54    4.22   0 
   3   1  -9   20.59    3.43   0 
   3   6  -5   25.53    4.00   0 
   3   7  -3   -2.69    3.90   0 
   3   8   0    2.60    4.45   0 
   4  -7   1   61.56    5.53   0 
   4  -3  -9   77.76    6.02   0 
   4   1 -11    2.61    4.00   0 
   4   8  -3    3.23    3.73   0 
   4   9   1    1.89    4.51   0 
   5  -8   4    1.48    4.63   0 
   5  -7  -2    8.60    5.98   0 
   5  -1 -12  113.90    4.71   0 
   5   6  -9   19.01    4.14   0 
   5   8  -5    5.32    3.86   0 
   5   9  -2   -3.26    3.70   0 
   6  -7  -4    3.76    8.24   0 
   6  -3 -12   53.62    6.03   0 
   7  -3 -13    3.42    4.83   0 
   8   3 -15    8.28    3.96   0 
  -1   1   9   23.68    4.38   0 
   0  -3  13   31.90    3.46   0 
   0  -2  16  159.92    4.76   0 
   0   4   2  937.71   12.24   0 
   0   5  12  210.37    7.55   0 
   1  -4  16   75.50    3.64   0 
   1  -1  21   -1.80    3.97   0 
   1   0  -4 3195.64   16.84   0 
   1   0  22   10.83    3.45   0 
   1   4  20   21.88    5.03   0 
   1   5  -1   21.66    4.82   0 
   2  -6   8   14.35    4.38   0 
   2  -6  10    2.23    4.42   0 
   2  -5  17   63.09    3.77   0 
   2   1  -7    1.06    3.78   0 
   2   7   0    4.35    4.70   0 
   2   8   5   30.92    6.00   0 
   3  -6  16    9.60    4.05   0 
   3  -3  -7    1.65    5.84   0 
   3   9   6    0.86    6.15   0 
   4  -2 -10  218.18    5.54   0 
   4   0 -11   -0.50    4.15   0 
   4   7  -6    4.13    3.86   0 
   5  -8   5   12.23    4.84   0 
   5  -8   6    2.19    4.77   0 
   5  -6  -5  132.39   11.98   0 
   5   7  -8    8.15    3.89   0 
   6  -4 -11    5.22    5.53   0 
   6  -2 -13   13.52    5.57   0 
   6   6 -11   22.69    4.20   0 
   7   0 -15    4.49    4.20   0 
   7   1 -15    2.12    4.14   0 
   7   2 -15   -1.43    4.14   0 
   7   6 -12    4.42    3.91   0 
   8  -4 -13    4.64    5.30   0 
   8  -3 -14    0.55    4.76   0 
   0  -3   7   22.50    3.63   0 
   0  -3  11   13.04    3.40   0 
   0  -2   3   39.44    4.95   0 
   0   3  17   47.85    5.09   0 
   0   4  15   27.92    5.41   0 
   0   5  11    4.01    6.67   0 
   1  -4  15   44.26    3.43   0 
   1   5  18   14.59    4.88   0 
   1   6   1  614.50    7.83   0 
   1   6  15    9.92    6.07   0 
   1   7   6   31.00    9.04   0 
   2  -5  16   24.84    3.43   0 
   2  -4  19    1.82    3.07   0 
   2   0  -7    2.55    4.25   0 
   2   8   4    5.36    6.23   0 
   3  -6  15   40.20    4.22   0 
   3  -1  -9   26.30    4.81   0 
   3   6  -6    6.50    3.90   0 
   3   7  -4   21.35    4.56   0 
   3   9   5    5.81    5.66   0 
   4  -7   2    7.64    4.64   0 
   4   6  -8   15.35    4.06   0 
   4   8  -4    2.16    4.50   0 
   5  -8   7   -0.00    4.20   0 
   5  -5  -8   59.03    9.07   0 
   5   1 -13   10.08    4.15   0 
   5   4 -12    8.14    3.89   0 
   5   9  -3    5.99    3.88   0 
   6   0 -14   84.88    4.36   0 
   6   8  -8   -3.08    3.80   0 
   7   3 -15    6.05    4.00   0 
   8  -2 -15    6.18    4.07   0 
   8   0 -16   15.02    4.47   0 
   8   1 -16    9.30    3.38   0 
   8   4 -15    5.57    3.23   0 
   0  -2  14   30.76    4.11   0 
   0   0  17    3.56    4.22   0 
   0   5  10   57.56    8.04   0 
   1  -4  13    4.66    4.09   0 
   1  -3  17    6.83    4.03   0 
   1  -2  19   12.47    3.60   0 
   1  -1  20  134.40    4.92   0 
   1   4  19   45.87    5.12   0 
   2  -5  15   62.24    3.86   0 
   2  -3  20    9.79    3.93   0 
   2   7  -1  191.24    5.74   0 
   3  -6  14   18.87    3.94   0 
   3   9   4    3.46    5.63   0 
   4  -1 -11    2.81    4.08   0 
   4   9  -1   13.25    4.62   0 
   5  -3 -11   19.22    4.88   0 
   5  -2 -12   57.63    4.89   0 
   5   2 -13   23.73    3.43   0 
   6  -8   2    1.18    5.18   0 
   6  -1 -14  202.78    5.00   0 
   7  -1 -15   -0.95    4.28   0 
   7   5 -14   10.94    3.87   0 
   8  -1 -16   10.91    4.71   0 
   8   3 -16    5.02    4.02   0 
   0  -1  15    1.75    4.26   0 
   0   1  17   15.29    4.13   0 
   0   3  16  111.84    4.97   0 
   0   4  14   75.58    5.73   0 
   1  -4  12   86.58    4.25   0 
   1   5  17   13.54    5.32   0 
   1   7   5  112.62    8.53   0 
   2  -4  17    3.53    3.86   0 
   2  -2  21    1.02    4.00   0 
   2   8   3   20.17    6.05   0 
   3  -6  13   18.00    4.15   0 
   3   8  -2    5.55    4.52   0 
   4  -7   4    6.79    4.91   0 
   4  -7  11   19.48    4.16   0 
   4  -4  -8  110.84    7.83   0 
   4   5 -10   -0.54    3.91   0 
   4   7  -7   16.79    3.94   0 
   4   8  -5    7.11    4.50   0 
   5  -7  -1   32.94    6.07   0 
   5   7  -9    7.92    3.89   0 
   6   6 -12   12.99    3.93   0 
   7  -5 -11    1.27    5.86   0 
   7   1 -16   25.84    4.07   0 
   7   4 -15   17.02    3.96   0 
   8  -5 -12   -0.28    5.26   0 
   0  -2  12   19.18    3.90   0 
   0   2  16  165.13    5.19   0 
   0   3   0    3.78    5.53   0 
   0   5   4   69.29    9.48   0 
   0   5   9   53.58    8.12   0 
   1  -4  11   38.00    4.17   0 
   1  -3  15   25.08    4.04   0 
   1  -1  19    2.97    3.41   0 
   1   1  20  129.55    4.73   0 
   1   5  -2   17.98    3.93   0 
   1   6  14   32.27    6.47   0 
   2  -3  19   27.76    3.47   0 
   2  -1  -7    2.46    4.71   0 
   2   6  -4   58.33    4.50   0 
   3  -6   2   14.20    4.99   0 
   3  -6  12   15.45    4.13   0 
   3  -5  17    8.67    3.27   0 
   3   6  -7   11.30    4.01   0 
   3   7  -5    8.44    3.76   0 
   3   9   3   20.78    5.34   0 
   4  -7   5    3.47    4.90   0 
   4  -7   7    7.13    4.94   0 
   4  -7   8    7.46    4.82   0 
   4  -7   9    1.95    4.06   0 
   4   0 -12   19.49    4.05   0 
   4   6  -9   -0.76    3.05   0 
   4   9  -2   -3.01    4.39   0 
   5  -4 -10   29.91    5.98   0 
   5  -1 -13    4.12    4.00   0 
   5   4 -13    8.13    3.85   0 
   5   5 -12   31.18    3.31   0 
   5   6 -11    9.38    4.10   0 
   6  -8   4    0.59    4.87   0 
   6   0 -15    1.76    4.02   0 
   6   1 -15   -1.47    4.21   0 
   6   2 -15   12.21    4.05   0 
   6   7 -11    2.41    3.95   0 
   7  -3 -14   37.12    5.06   0 
   7  -2 -15    4.30    4.82   0 
   7   0 -16  157.41    5.19   0 
   7   2 -16   13.56    3.37   0 
   8  -3 -15    2.71    4.75   0 
   8   1 -17   -3.99    3.96   0 
   8   2 -17    5.01    3.87   0 
   0  -2   5  546.03    6.64   0 
   0  -2  10   67.49    4.17   0 
   0  -1  14  612.43    5.70   0 
   0   0  15    3.75    4.30   0 
   0   3  15    0.80    4.32   0 
   0   4  13   11.86    5.48   0 
   1  -4   6  396.10    5.92   0 
   1  -4   7   52.77    4.77   0 
   1  -4   9   10.27    4.30   0 
   1  -4  10  313.08    4.74   0 
   1  -2  17    8.23    3.20   0 
   1   0  19   -0.54    4.04   0 
   1   1  -5   56.04    4.81   0 
   1   2  -5    8.78    3.97   0 
   1   3  19    1.78    4.13   0 
   1   4  18   49.10    5.08   0 
   1   6   0   38.27    4.74   0 
   2  -5  11    7.27    4.10   0 
   2  -3  18   42.34    4.08   0 
   2  -2  20   72.58    3.86   0 
   2   5  -6    7.56    4.19   0 
   2   7  -2    4.40    4.79   0 
   2   7  15   30.22    6.78   0 
   2   8   2    4.22    5.10   0 
   3  -6  11   -3.62    4.01   0 
   3   9   2    1.95    4.90   0 
   4  -6  -2   14.79    6.64   0 
   4   7  -8    2.04    3.66   0 
   5   7 -10    4.93    3.82   0 
   5   8  -8    7.82    3.76   0 
   6  -3 -13   11.33    4.81   0 
   6  -2 -14   57.31    5.19   0 
   6   5 -14    5.82    3.74   0 
   6   6 -13    2.41    4.09   0 
   8  -4 -14    6.34    5.20   0 
   8  -2 -16    6.81    4.19   0 
   0  -2   6  369.95    5.60   0 
   0  -2   7   54.83    4.22   0 
   0  -2   9    3.88    3.19   0 
   0  -1  13   -0.73    4.14   0 
   0   1  15    3.45    4.44   0 
   0   2  15   33.49    4.38   0 
   0   4   1    5.57    5.92   0 
   1  -3  14   16.12    3.45   0 
   1  -2  16  148.71    4.65   0 
   1   1  19    4.65    4.18   0 
   1   5  16    3.74    5.26   0 
   1   7   4   37.22    7.10   0 
   2  -5   9   13.42    4.46   0 
   2  -5  10   13.33    4.28   0 
   2  -4  15   56.46    4.18   0 
   2  -2  19    3.29    3.89   0 
   2   0  21    4.22    4.10   0 
   3  -6   4    8.82    4.99   0 
   3  -6   9   25.08    4.39   0 
   3  -5  15    7.51    4.02   0 
   3  -4  18    2.84    3.89   0 
   3   5  -9   21.85    4.08   0 
   3   7  -6    6.03    4.03   0 
   3   8  -3   27.81    4.07   0 
   3   9   1   10.38    4.89   0 
   4  -6  14    7.42    4.03   0 
   4   4 -12   10.94    3.75   0 
   4   6 -10   14.80    4.03   0 
   4   8  -6   -1.01    3.77   0 
   4   9  -3   12.09    3.89   0 
   5  -7   0    5.02    5.37   0 
   5  -7  11   26.45    4.84   0 
   5   3 -14   24.51    3.36   0 
   6  -5 -10   -0.03    6.95   0 
   6  -1 -15   -1.72    3.99   0 
   6   4 -15   17.68    3.75   0 
   7  -1 -16   20.33    4.19   0 
   7   4 -16    2.71    3.12   0 
   8  -1 -17    1.28    4.32   0 
   0   0  14    5.72    3.60   0 
   0   3  14  307.02    5.85   0 
   0   4  12    0.03    5.65   0 
   1  -3  13  137.59    3.85   0 
   1  -1  -4   42.22    6.35   0 
   1   3  18   68.90    4.47   0 
   1   4  17   36.79    5.20   0 
   1   5  -3   10.52    4.29   0 
   1   6  -1   78.46    4.59   0 
   1   6  13   44.94    7.07   0 
   1   7   3   55.77    6.77   0 
   2  -4  14    8.25    4.05   0 
   2  -1  20    5.48    3.37   0 
   2   1  21    5.37    4.05   0 
   2   2  21   -1.00    4.24   0 
   2   6  -5    4.01    4.15   0 
   2   6  17   11.93    5.54   0 
   2   7  -3   67.48    4.87   0 
   2   8   1    8.29    5.17   0 
   3  -6   7    3.31    3.94   0 
   3  -4  17   14.63    3.91   0 
   3  -2  -9   43.09    5.00   0 
   3  -1 -10  368.47    5.81   0 
   3   1 -11    2.72    4.11   0 
   3   6  -8   13.76    4.04   0 
   4  -6  13   21.75    4.11   0 
   4  -3 -10   87.80    5.65   0 
   4  -1 -12  111.17    4.46   0 
   5  -7  10    1.71    3.96   0 
   5  -2 -13   27.47    5.05   0 
   5   6 -12    4.55    3.42   0 
   5   8  -9   14.28    3.91   0 
   6  -4 -12   60.66    5.76   0 
   6   1 -16   49.00    4.28   0 
   7   1 -17    5.69    4.00   0 
   7   2 -17    5.82    3.93   0 
   7   3 -17   11.67    4.02   0 
   0   0  13    4.64    4.43   0 
   0   2  14   29.44    4.61   0 
   1  -3  12    5.31    3.19   0 
   1   0  -5    0.89    4.67   0 
   1   2  18  153.74    5.07   0 
   2  -3  16   51.60    4.17   0 
   3  -5  -2  251.92    8.31   0 
   3  -3  19   -1.60    3.18   0 
   3  -2  20    2.36    3.90   0 
   3   0 -11    2.81    4.92   0 
   3   8  -4    3.77    3.91   0 
   3   9   0   -0.29    4.37   0 
   4  -6  12    1.58    4.02   0 
   4  -5  16    3.88    4.08   0 
   4   0 -13    3.84    4.15   0 
   4   7  -9   18.19    3.14   0 
   4   8  -7    3.46    3.86   0 
   4   9  -4    3.72    3.85   0 
   5  -3 -12  171.47    5.78   0 
   5  -1 -14   99.40    4.44   0 
   5   1 -15    0.70    4.06   0 
   5   2 -15    2.52    3.99   0 
   5   7 -11    4.26    3.08   0 
   6   0 -16   -0.13    4.03   0 
   6   3 -16   29.82    3.63   0 
   6   5 -15   11.89    3.97   0 
   6   6 -14    5.12    3.84   0 
   7  -7  -5    9.64    7.91   0 
   0   3  13   27.87    4.37   0 
   0   4  11  305.98    7.72   0 
   0   5   3  424.41   10.20   0 
   1  -3   1   17.63    5.07   0 
   1  -1  16   64.61    3.84   0 
   1   2  -6  288.02    5.37   0 
   1   4  -5  106.87    4.79   0 
   1   5  15   29.88    4.83   0 
   1   7   2    4.21    5.93   0 
   2  -1  19    9.38    3.41   0 
   2   3  20   11.73    4.30   0 
   2   4  19   -3.52    4.88   0 
   2   5  18   22.91    4.76   0 
   2   6  -6   83.66    4.80   0 
   2   7  14    5.60    6.94   0 
   2   8   0    3.62    4.48   0 
   3  -5  13   57.43    3.74   0 
   3  -3  -8  665.75    9.95   0 
   3   6  -9  114.55    4.64   0 
   3   7  -7    8.26    3.85   0 
   3   9  -1    1.96    5.03   0 
   4  -6  11   45.05    4.33   0 
   4   4 -13   19.16    3.91   0 
   4   6 -11   10.48    3.87   0 
   4   9  -5   12.16    4.54   0 
   5  -7   2    5.34    4.87   0 
   5  -7   8   -0.06    4.18   0 
   5   3 -15   11.37    3.84   0 
   5   5 -14    8.54    3.95   0 
   5   6 -13   12.53    3.89   0 
   5   8 -10    0.30    3.91   0 
   6   4 -16   -1.64    3.81   0 
   7  -3 -15    1.68    4.94   0 
   7  -2 -16   28.10    4.20   0 
   7  -1 -17    6.21    4.72   0 
   7   4 -17    6.97    3.21   0 
   8  -5 -13    5.35    6.50   0 
   8  -3 -16    6.30    4.99   0 
   0  -1   9    1.06    4.33   0 
   0   2  13  123.30    4.91   0 
   0   3  -1  189.57    6.16   0 
   0   4   0  177.53    6.43   0 
   1  -2  13   23.85    3.99   0 
   1   1  -6 1048.30    8.59   0 
   1   1  17    7.89    4.36   0 
   1   2  17    9.69    4.23   0 
   1   4  16   81.39    5.26   0 
   1   6  -2    5.41    4.27   0 
   2  -4  -1   37.29    6.34   0 
   2  -4  12   21.79    3.27   0 
   2  -2  17    7.93    4.04   0 
   2  -1  -8  279.87    6.39   0 
   2   0  19    2.36    4.06   0 
   2   7  -4    0.11    4.09   0 
   2   8  -1    9.13    5.10   0 
   3  -5  12    0.83    3.45   0 
   3  -4  15   86.48    4.53   0 
   3   8  -5   33.42    4.26   0 
   4  -6  10    3.37    3.91   0 
   4  -5  15    6.33    3.32   0 
   4   7 -10   -0.09    3.86   0 
   4   8  -8    4.22    3.87   0 
   5  -7   4    6.89    4.15   0 
   5  -7   6    8.32    4.30   0 
   5  -6  13   20.04    4.20   0 
   5   4 -15   -0.24    3.75   0 
   5   7 -12   -0.38    3.84   0 
   6  -7  -2    5.16    5.97   0 
   6  -3 -14   43.30    4.94   0 
   6  -1 -16   65.57    4.64   0 
   6   2 -17    1.36    4.08   0 
   6   6 -15    4.76    3.76   0 
   7  -5 -12   15.63    6.80   0 
   7   1 -18   -1.17    3.89   0 
   7   2 -18   17.67    4.01   0 
   7   3 -18   -0.53    4.03   0 
   8  -4 -15    1.26    5.32   0 
   0  -1   3    1.48    5.12   0 
   0   0  11    5.27    4.51   0 
   0   1  12  492.16    6.38   0 
   0   3  12  447.81    6.91   0 
   1  -3   8  300.85    5.39   0 
   1   6  12   37.12    6.82   0 
   1   7   1    4.38    5.27   0 
   2  -3  14   83.73    4.44   0 
   2   0  -9    0.13    4.19   0 
   2   1  19   10.87    4.17   0 
   2   3  19   28.47    4.41   0 
   2   5  -8   36.32    4.01   0 
   3  -3  17   -0.43    3.72   0 
   3   7  -8    2.88    3.91   0 
   3   9  -2    0.01    4.45   0 
   4  -5  14   67.05    4.35   0 
   4  -4  17    5.63    3.95   0 
   4  -2 -12  173.07    5.51   0 
   4  -1 -13   30.75    4.19   0 
   4   5 -13    3.63    3.54   0 
   4   6 -12   -0.62    3.75   0 
   4   9  -6    4.82    4.51   0 
   5  -4 -11   62.60    6.06   0 
   6   1 -17    2.64    3.19   0 
   7  -4 -14    8.80    5.27   0 
   7   0 -18    2.05    4.14   0 
   0  -1   5  206.91    5.63   0 
   0   2  12   14.63    4.22   0 
   0   4  10   88.04    6.93   0 
   0   5   2    2.67    6.55   0 
   1  -3   3   28.59    5.30   0 
   1  -1  14   34.89    4.29   0 
   1   1  16   61.29    4.34   0 
   1   3  16   22.61    4.61   0 
   1   4  -6   23.30    4.24   0 
   1   5  14   -0.74    5.27   0 
   1   6  -3  102.10    5.25   0 
   2  -1  17   14.71    4.17   0 
   2   2  19    6.55    4.09   0 
   2   4  18   14.47    4.94   0 
   2   5  17   64.58    5.67   0 
   2   6  -7   14.81    4.08   0 
   2   7  -5   65.93    4.43   0 
   2   8  -2    1.81    4.57   0 
   3  -5  -1   29.76    6.06   0 
   3  -5  10    2.60    4.22   0 
   3  -4  14   61.64    4.30   0 
   3  -2  18   11.09    3.90   0 
   3   5 -11   41.55    3.60   0 
   3   6 -10   35.25    4.14   0 
   3   8  -6   -1.47    4.05   0 
   4  -6   8   -1.33    4.23   0 
   4   4 -14   19.37    3.78   0 
   4   7 -11   23.24    3.82   0 
   4   8  -9    7.52    3.70   0 
   5  -6  12    5.73    3.92   0 
   5  -2 -14   97.54    4.66   0 
   5  -1 -15    1.07    3.92   0 
   5   3 -16    9.27    3.85   0 
   5   6 -14   15.43    3.19   0 
   5   7 -13    7.13    3.86   0 
   5   8 -11    6.11    3.29   0 
   6  -7  -1   12.11    5.70   0 
   6   0 -17    2.48    3.98   0 
   6   4 -17   -0.11    3.17   0 
   0   1  11   72.76    5.18   0 
   0   2  -2 2216.39   13.94   0 
   0   3  11    9.42    4.61   0 
   1  -3   4  104.63    4.79   0 
   1  -3   5  627.32    6.78   0 
   1  -2  11   41.24    4.22   0 
   1   0  -6  365.51    6.41   0 
   1   0  15    7.58    4.37   0 
   1   2  -7  150.34    4.55   0 
   1   4  15   38.29    5.32   0 
   1   5  -5  126.10    4.83   0 
   1   7   0   20.54    5.36   0 
   2  -2  15   14.44    4.11   0 
   2   1 -10  367.82    5.80   0 
   3  -4  13   31.80    4.29   0 
   3  -3  16   57.21    4.24   0 
   3  -2 -10  284.43    5.69   0 
   3  -1  19   -0.71    4.04   0 
   3   1  20   52.81    4.36   0 
   3   7  -9   -4.48    3.89   0 
   3   9  -3   -2.01    4.38   0 
   4  -4  -9   60.71    7.52   0 
   4  -3 -11   39.06    5.43   0 
   4  -3  18    3.56    3.40   0 
   4   9  -7    2.30    3.88   0 
   5  -6  -4    3.45    7.52   0 
   5  -3 -13   70.10    5.05   0 
   5   0 -16  115.68    4.54   0 
   5   4 -16   19.27    3.97   0 
   6  -7   6    3.32    4.87   0 
   6  -7   7   10.38    4.28   0 
   6  -4 -13   29.42    5.59   0 
   6   2 -18    0.69    3.99   0 
   6   5 -17    3.28    3.87   0 
   7  -7  -4    3.33    6.71   0 
   7  -3 -16   11.96    4.57   0 
   7  -2 -17    7.51    4.29   0 
   7  -1 -18    4.44    4.05   0 
   7   1 -19    4.03    3.87   0 
   7   2 -19    2.35    3.90   0 
   0   0   9   -0.26    4.55   0 
   0   2  11   95.81    4.64   0 
   0   3  -2  688.54    7.95   0 
   0   4  -1    4.62    4.79   0 
   1  -1  13   25.14    4.26   0 
   1   1  -7    3.42    3.95   0 
   1   1  15    5.40    4.26   0 
   2  -4   8    3.59    4.36   0 
   2  -3  12  199.11    4.72   0 
   2  -1  16  183.25    4.85   0 
   2   2  18  105.86    4.74   0 
   2   3  18   44.24    4.49   0 
   2   5  -9    5.21    3.44   0 
   2   6  -8    2.43    4.03   0 
   2   6  15   31.93    6.39   0 
   2   7  -6   -3.63    3.65   0 
   2   7  13    2.45    6.78   0 
   2   8  -3   -0.10    4.59   0 
   3  -5   7  159.84    5.64   0 
   3  -5   8   11.95    4.25   0 
   3  -2  17   32.63    4.19   0 
   3   1 -13    7.81    3.95   0 
   3   2 -13    4.05    3.61   0 
   3   2  20    8.72    4.19   0 
   3   5 -12    5.13    3.92   0 
   3   6 -11   34.76    4.11   0 
   3   8  -7   28.70    4.18   0 
   3   9  -4    2.68    4.80   0 
   4  -6   4   25.57    4.41   0 
   4  -4  15    7.31    3.95   0 
   4  -2  19    3.13    3.26   0 
   4   3 -15    1.69    3.80   0 
   4   5 -14   10.61    3.70   0 
   4   6 -13   59.04    3.87   0 
   4   7 -12    2.01    3.90   0 
   4   8 -10    1.87    3.81   0 
   5  -6  10    9.15    4.22   0 
   5   5 -16   -0.27    3.57   0 
   5   6 -15   -1.79    3.94   0 
   5   7 -14    0.83    3.86   0 
   6  -7   0    2.15    5.36   0 
   6  -7   1    3.52    5.24   0 
   6  -7   4   -1.36    5.01   0 
   6  -7   5    7.82    4.90   0 
   6  -5 -11   55.05    8.06   0 
   6  -2 -16   19.67    4.06   0 
   6  -1 -17   -0.18    4.26   0 
   6   1 -18   34.77    4.23   0 
   6   3 -18   14.52    3.39   0 
   6   4 -18    1.21    3.75   0 
   0   1  10 1143.99    8.35   0 
   0   3  10  315.74    6.97   0 
   0   4   9  382.66    8.61   0 
   1  -2  10  576.38    5.80   0 
   1   2  15  216.82    5.15   0 
   1   4  -7  191.61    5.20   0 
   1   5  13  124.40    6.17   0 
   1   6  -4   36.08    4.46   0 
   1   6  11   -0.17    7.10   0 
   1   7  -1   -1.51    4.72   0 
   2  -4   1    2.58    5.04   0 
   2  -4   6  180.62    5.20   0 
   2  -2  14    1.00    4.10   0 
   2  -1  -9  106.89    5.35   0 
   2   0 -10  478.13    6.19   0 
   2   4  17    4.34    5.01   0 
   3  -5   6   50.15    4.67   0 
   3  -1  18  179.87    4.90   0 
   3   0  19    3.66    3.14   0 
   3   7 -10   -2.92    3.63   0 
   3   8  -8    0.05    4.48   0 
   4  -5  11   32.18    4.26   0 
   4  -3  17   43.08    3.42   0 
   5  -4  16    7.20    4.05   0 
   5   2 -17   -1.00    3.42   0 
   6  -7   2    4.21    4.91   0 
   6  -7   3   10.74    4.80   0 
   6  -3 -15    4.27    4.79   0 
   7   0 -19    1.00    3.97   0 
   0   1  -2 1287.66   13.02   0 
   0   2  10   68.22    5.19   0 
   0   4  -2  979.57    9.00   0 
   0   5   0   -0.63    5.60   0 
   1  -2   9   67.30    4.27   0 
   1  -1  -5   52.99    5.78   0 
   1  -1  12    8.11    4.25   0 
   1   1  14   33.31    5.30   0 
   1   4  14  141.30    5.69   0 
   1   7  -2   18.03    4.96   0 
   2  -1  15   -0.92    4.35   0 
   2   1 -11   27.79    4.31   0 
   2   3 -11    3.59    3.09   0 
   2   5 -10   46.93    4.28   0 
   2   5  16   26.65    4.91   0 
   2   6  -9  115.89    4.72   0 
   2   7  -7   46.96    4.17   0 
   2   8  -4    1.52    4.11   0 
   2   9   2   -0.92    5.99   0 
   2   9   3   23.91    6.85   0 
   2   9   4    4.18    6.96   0 
   3  -5   5  242.08    5.46   0 
   3  -4  11    1.83    4.29   0 
   3  -2  16   79.27    4.31   0 
   3  -1 -12   75.05    4.51   0 
   3   0 -13   -0.52    3.98   0 
   3   1  19    6.11    4.15   0 
   3   2  19   14.80    4.85   0 
   3   3  19    7.52    4.85   0 
   3   9  -5   -0.15    4.04   0 
   4  -4  14   37.94    4.35   0 
   4  -3  16   40.92    4.01   0 
   4  -2 -13   25.10    4.41   0 
   4  -1  19    1.02    4.07   0 
   4   0 -15   -0.70    3.93   0 
   4   5 -15   -0.37    3.76   0 
   4   6 -14    6.42    3.76   0 
   4   8 -11    9.32    3.86   0 
   5  -6   8   18.45    4.23   0 
   5  -5  13   19.28    4.02   0 
   5  -2 -15    1.66    4.93   0 
   5  -1 -16   29.84    4.46   0 
   5   4 -17    1.64    3.04   0 
   6   3 -19    1.89    3.98   0 
   7  -4 -15   13.59    5.38   0 
   0   0   7   -2.69    4.44   0 
   0   1   9   -0.55    4.49   0 
   0   2  -3   35.55    5.02   0 
   0   3  -3  118.10    5.24   0 
   1   0  13    0.59    4.51   0 
   1   2  -8  442.71    5.38   0 
   1   3  -8   17.60    3.18   0 
   1   3  14   17.11    5.20   0 
   1   6  -5  587.84    6.87   0 
   2  -3  10  387.02    5.38   0 
   2  -2  13   18.01    4.23   0 
   2   0  16   27.90    4.16   0 
   2   2  17    2.89    4.10   0 
   2   8  -5   19.70    4.78   0 
   2   9   1   29.83    5.39   0 
   2   9   5    4.34    7.94   0 
   3  -3  -9  125.04    6.97   0 
   3  -2 -11   36.10    4.70   0 
   3  -1  17    2.01    4.24   0 
   3   0  18   40.38    4.45   0 
   3   5 -13   31.06    3.38   0 
   3   6 -12    2.35    3.17   0 
   3   7 -11   18.78    3.81   0 
   3   8  -9    8.57    4.57   0 
   3   9  -6    6.61    4.52   0 
   4  -5  -5  186.40   10.78   0 
   4   3 -16   28.75    3.15   0 
   4   7 -13   10.43    3.27   0 
   5  -6   7   -0.49    5.03   0 
   5   0 -17   -1.39    3.98   0 
   5   5 -17    5.75    3.61   0 
   6  -6  10    0.21    4.05   0 
   6   1 -19    2.96    4.04   0 
   7  -7   5   27.68    5.26   0 
   7  -5 -13   11.36    6.89   0 
   7  -2 -18    6.84    4.26   0 
   0   2   9    1.90    4.98   0 
   0   3   9   12.42    5.68   0 
   0   4   8   93.38    7.37   0 
   0   5  -1  245.09    6.80   0 
   1  -2   8  809.49    6.24   0 
   1  -1  11    3.38    3.63   0 
   1   0  -7    0.51    4.29   0 
   1   1  -8  422.84    5.89   0 
   1   4  -8   46.10    4.45   0 
   1   7  -3    2.47    4.88   0 
   2   3 -12  121.76    4.50   0 
   2   4  16   48.53    5.29   0 
   2   7  -8   10.23    3.96   0 
   2   9   0    0.76    4.97   0 
   3  -2  15   14.90    3.95   0 
   3   1 -14    5.32    4.18   0 
   3   4  18    2.31    4.93   0 
   4  -4  13    9.66    3.40   0 
   4  -3 -12   94.37    6.20   0 
   4  -3  15   42.70    4.21   0 
   4  -2  17    3.14    3.80   0 
   4  -1  18    8.29    4.07   0 
   4   0  19    1.84    4.20   0 
   4   6 -15   27.51    3.92   0 
   5  -6  -3   46.91    6.33   0 
   5  -6   6   23.79    4.88   0 
   5  -4 -12   11.39    5.89   0 
   5  -3 -14   34.30    4.75   0 
   5   1 -18   -0.21    4.01   0 
   5   4 -18   12.27    4.10   0 
   6  -1 -18   45.02    4.42   0 
   6   0 -19   -0.94    4.18   0 
   7  -7  -2    3.71    5.38   0 
   7  -3 -17   14.79    4.72   0 
   0   0   5    2.06    4.98   0 
   0   1   8  926.10    8.24   0 
   0   4  -3   19.18    4.45   0 
   1  -2   7    9.89    4.15   0 
   1  -1  10    5.40    4.13   0 
   1   3  -9  318.03    5.21   0 
   1   4  13    0.92    4.94   0 
   1   5  12   11.89    5.45   0 
   1   6  -6   62.04    4.75   0 
   1   7  -4   14.88    4.69   0 
   2  -3   9    3.68    4.25   0 
   2   0 -11    2.30    4.31   0 
   2   0  15    5.28    4.38   0 
   2   5  15   61.66    5.82   0 
   2   6 -10    6.76    4.02   0 
   2   6  14    7.66    5.42   0 
   2   8  -6    2.60    4.17   0 
   2   9  -1   31.53    4.90   0 
   3  -4   9   34.91    4.58   0 
   3   0  17    5.31    4.29   0 
   3   2  18    8.70    4.33   0 
   3   3  18   47.83    5.21   0 
   3   5 -14    8.63    3.73   0 
   3   6 -13    7.55    3.78   0 
   3   9  -7    2.44    3.90   0 
   4  -4  12   37.22    4.12   0 
   4  -1 -15    0.37    3.83   0 
   4   0 -16   42.49    4.01   0 
   4   5 -16    8.16    3.75   0 
   4   7 -14    1.50    3.75   0 
   5  -6   5    5.30    4.20   0 
   5  -5  11    9.18    4.09   0 
   5  -3  16   66.63    4.33   0 
   5   5 -18    1.41    3.65   0 
   6  -4 -14   30.50    5.64   0 
   6  -3 -16   54.41    5.90   0 
   6   2 -20    4.11    3.85   0 
   7  -7   2    2.79    4.85   0 
   0   2  -4 2259.21   12.12   0 
   0   3  -4  700.11    7.39   0 
   0   5  -2    4.48    4.86   0 
   1  -2   6  478.22    6.06   0 
   1   2  -9    6.51    3.35   0 
   1   2  13   30.91    5.51   0 
   1   3  13  127.94    5.67   0 
   1   4  -9  186.18    5.13   0 
   1   5  -8   60.35    4.57   0 
   2  -1 -10  413.28    6.32   0 
   2   3  16   50.33    4.67   0 
   2   7  -9   20.85    4.22   0 
   2   7  12    6.18    6.71   0 
   3  -3  12   29.31    4.23   0 
   3  -2  14  215.48    4.69   0 
   3  -1 -13    5.62    4.03   0 
   3   0 -14  167.75    5.12   0 
   3   2 -15    3.56    3.99   0 
   3   4 -15    0.36    3.55   0 
   3   5  17    5.95    5.24   0 
   3   6  16    4.95    4.99   0 
   3   7 -12    3.82    3.14   0 
   4  -2 -14   25.12    4.86   0 
   4  -2  16  142.40    4.55   0 
   4   1 -17    0.69    4.13   0 
   4   1  19   -0.03    4.23   0 
   4   2 -17    5.95    3.10   0 
   4   2  19    2.80    5.08   0 
   5  -6  -2    5.97    5.16   0 
   5  -6   3   68.89    5.46   0 
   5  -2 -16  184.70    5.95   0 
   5   0 -18   90.88    4.80   0 
   5   2 -19    4.44    4.00   0 
   5   3 -19    7.27    4.08   0 
   6  -6   8   -2.70    4.38   0 
   6  -5  12   13.19    4.11   0 
   7  -2 -19    1.20    4.75   0 
   0   0   4   43.70    5.72   0 
   0   1  -3    0.73    4.26   0 
   0   1   7  224.35    5.95   0 
   0   2   8  141.98    5.65   0 
   0   4  -4  380.53    6.07   0 
   1  -1  -6 1102.90   10.42   0 
   1  -1   9    5.75    4.12   0 
   1   0  11    5.05    4.57   0 
   1   1  -9   23.01    4.27   0 
   1   1  12    9.09    5.17   0 
   1   6  -7  118.79    4.90   0 
   1   6  10   54.25    7.15   0 
   1   8   0    1.97    5.25   0 
   1   8   1   57.92    5.80   0 
   1   8   2    2.07    6.19   0 
   1   8   3   28.37    7.53   0 
   2  -1  13   23.60    4.05   0 
   2   1  15    5.59    4.36   0 
   2   3 -13    1.33    3.89   0 
   2   5 -12   27.42    4.16   0 
   2   6 -11   39.75    4.20   0 
   2   8  -7   28.15    4.31   0 
   2   9  -3   23.55    4.92   0 
   3   6 -14    9.77    3.92   0 
   3   8 -11   10.71    3.93   0 
   4  -4 -10  120.27    8.20   0 
   4   5 -17   -2.06    3.72   0 
   4   6 -16    5.42    3.21   0 
   4   7 -15    6.15    3.87   0 
   5  -6  -1   40.50    5.61   0 
   5  -6   0    3.18    5.73   0 
   5  -6   1  114.61    5.88   0 
   5  -5  10    8.06    3.39   0 
   5  -3  15    8.21    4.00   0 
   5  -2  17    3.24    3.27   0 
   5  -1  18   35.66    4.26   0 
   5   1 -19    3.94    4.01   0 
   5   4 -19   -0.84    3.06   0 
   6  -2 -18   -0.51    5.07   0 
   6  -1 -19    3.77    4.11   0 
   7  -4 -16    0.52    5.85   0 
   0   3  -5  675.44    6.97   0 
   0   5  -3  438.89    6.27   0 
   0   6   1   18.83    6.35   0 
   0   6   2  215.41    8.45   0 
   0   6   3    1.86    8.28   0 
   1  -2   5   27.77    3.61   0 
   1   0  -8  191.66    5.29   0 
   1   2 -10  211.98    4.84   0 
   1   3 -10  169.50    4.71   0 
   1   5  -9  145.88    5.05   0 
   1   8  -1  141.49    6.04   0 
   1   8   4   -0.41    8.19   0 
   2   0 -12  218.41    5.21   0 
   2   0  14  145.04    4.11   0 
   2   2  15   13.78    4.40   0 
   2   4  15   59.68    5.12   0 
   2   8  -8    7.29    4.11   0 
   2   8   9   59.17   10.34   0 
   2   9  -4    6.09    4.73   0 
   3  -4   7   33.60    4.56   0 
   3  -2 -12  478.55    7.08   0 
   3  -2  13   11.19    4.11   0 
   3  -1  15   11.06    3.40   0 
   3   0  16   50.11    4.32   0 
   3   2  17   33.14    4.51   0 
   3   3 -16    6.58    3.90   0 
   3   3  17    3.58    4.96   0 
   3   4  17   16.48    4.64   0 
   3   5 -15   29.86    3.49   0 
   3   7 -13   26.99    3.31   0 
   3   9  -9    1.32    4.06   0 
   4  -5   6   15.40    4.26   0 
   4  -3  13   17.42    3.89   0 
   4  -2  15    8.55    4.11   0 
   4   0 -17   -2.84    4.67   0 
   4   1  18    1.88    4.04   0 
   4   2 -18    6.94    3.85   0 
   5  -3 -15   12.44    5.30   0 
   6  -6   6    1.11    4.31   0 
   6  -5 -12   16.03    8.49   0 
   6  -5  11   12.73    4.15   0 
   6   0 -20    4.95    4.06   0 
   7  -6   8    3.76    4.17   0 
   7  -3 -18    8.27    4.68   0 
   0   2  -5  515.18    6.67   0 
   0   4  -5    2.80    4.32   0 
   0   5  -4   71.72    5.30   0 
   0   6  -1   20.16    5.23   0 
   0   6   0   83.99    5.59   0 
   1  -2   4  784.54    7.83   0 
   1  -1   8  235.90    5.17   0 
   1   2  12  607.85    6.72   0 
   1   4 -10  155.36    4.14   0 
   1   4  12   77.88    5.50   0 
   1   5  11  184.37    7.32   0 
   1   6  -8    4.53    4.11   0 
   1   7  -6    1.55    4.21   0 
   1   8  -2   -0.34    4.87   0 
   2   1 -13   -2.40    4.12   0 
   2   3  15   32.62    4.59   0 
   2   5 -13    7.23    3.98   0 
   2   5  14   41.96    5.19   0 
   2   6 -12   14.86    4.06   0 
   2   6  13   66.30    5.83   0 
   2   9  -5   21.08    4.99   0 
   3  -1 -14    4.71    4.99   0 
   3   0 -15    4.65    4.14   0 
   3   2 -16  106.80    3.90   0 
   3   5  16   24.38    4.98   0 
   3   6 -15   -2.20    3.72   0 
   3   7  14    4.77    5.39   0 
   3   8 -12    2.26    3.86   0 
   4  -5   5   17.25    4.43   0 
   4  -4  10    7.53    4.28   0 
   4  -3 -13   54.01    5.56   0 
   4   0  17   -2.98    4.31   0 
   4   4 -18    0.95    3.06   0 
   5  -5   8    4.58    4.40   0 
   5  -2  16    3.85    4.01   0 
   5   0 -19    1.65    3.98   0 
   5   0  18   -4.42    4.13   0 
   5   2 -20   26.19    4.25   0 
   5   3 -20   -1.89    3.97   0 
   6  -6  -6   23.62    8.06   0 
   6  -5  10   75.97    4.65   0 
   7  -6   7   14.45    4.84   0 
   0   1  -4  588.56    8.07   0 
   0   1   6  906.69    9.24   0 
   0   2   7   42.91    5.08   0 
   0   3  -6  247.73    5.67   0 
   0   6   4    1.88   11.44   0 
   1  -2   3  363.69    6.58   0 
   1   1 -10  198.13    5.10   0 
   1   1  11    0.95    4.70   0 
   1   3 -11  108.63    4.45   0 
   1   3  12    8.57    4.22   0 
   1   5 -10   35.89    4.37   0 
   1   6  -9    7.91    4.22   0 
   1   7  -7   89.51    5.25   0 
   1   8  -3  149.58    5.94   0 
   2  -2  -9  123.02    5.87   0 
   2  -1 -11   26.00    4.31   0 
   2   0  13    3.07    4.34   0 
   2   2 -14   13.47    4.04   0 
   2   4 -14   12.35    4.00   0 
   2   7 -11   16.92    4.07   0 
   2   8  -9   14.42    4.11   0 
   2   9  -6    4.30    4.61   0 
   3  -4   6  523.16    5.68   0 
   3  -3  10   62.38    3.49   0 
   3   1 -16    6.28    4.18   0 
   3   5 -16   -0.79    3.65   0 
   3   6  15   28.17    5.24   0 
   3   7 -14    3.73    3.21   0 
   4  -5  -4    2.84    7.15   0 
   4  -2 -15   77.25    5.25   0 
   4  -2  14  170.39    4.59   0 
   4   3  18    6.35    4.32   0 
   4   5 -18    9.94    3.14   0 
   5  -4 -13    7.92    5.87   0 
   5  -2 -17    6.09    4.81   0 
   5  -1  17    6.82    3.37   0 
   5   1 -20   -1.06    3.94   0 
   6  -6   4    3.80    4.94   0 
   6  -4 -15   15.07    5.92   0 
   6  -3  15    4.59    3.43   0 
   6  -1 -20   14.66    4.85   0 
   7  -5 -14    4.44    7.38   0 
   0   2  -6  338.17    5.70   0 
   0   4  -6  111.96    4.86   0 
   0   5  -5   76.11    4.63   0 
   1  -2  -1  948.81   15.85   0 
   1  -2   2  292.39    6.62   0 
   1  -1  -7    4.65    4.99   0 
   1   0  -9    1.94    4.40   0 
   1   2 -11    6.53    3.90   0 
   1   4 -11    2.78    3.79   0 
   1   8  -4    1.20    4.90   0 
   2  -3   5   73.02    5.00   0 
   2  -1  11   37.48    4.48   0 
   2   2  14    2.99    4.08   0 
   2   4  14    4.02    5.19   0 
   2   5 -14   22.58    3.88   0 
   2   6 -13   20.93    4.09   0 
   2   7 -12    5.49    3.90   0 
   2   8 -10    6.41    4.54   0 
   3  -4   5   16.16    4.64   0 
   3  -2  12  212.00    4.18   0 
   3   2 -17    4.49    4.02   0 
   3   3  16   60.31    5.42   0 
   3   4 -17    5.26    3.79   0 
   3   4  16   41.51    4.48   0 
   3   6 -16    9.91    3.86   0 
   3   8 -13    8.09    3.92   0 
   4  -1  15   11.69    4.07   0 
   4   2 -19   -0.98    4.06   0 
   6  -5   9   50.96    4.62   0 
   6  -4  12   34.46    4.21   0 
   6  -2 -19   11.98    4.95   0 
   6  -2  16   30.59    4.06   0 
   7  -6   6    5.04    4.18   0 
   7  -5  10    7.96    4.30   0 
   0   1  -5  196.05    5.71   0 
   0   3  -7   24.06    4.49   0 
   0   6  -3    1.72    4.06   0 
   1  -2   0  510.47   10.16   0 
   1  -2   1   69.09    6.07   0 
   1  -1   7  501.01    5.66   0 
   1   0   9    0.03    4.35   0 
   1   4  11   34.65    5.74   0 
   1   6 -10    8.19    4.16   0 
   1   7  -8   17.40    4.22   0 
   1   7   7   85.54   12.41   0 
   1   8  -5   67.26    5.20   0 
   2  -3   4   88.41    5.00   0 
   2   1  13   25.34    4.61   0 
   2   3 -15    4.46    3.87   0 
   2   3  14   74.56    4.97   0 
   2   4 -15   61.85    4.30   0 
   2   7  11    0.76    6.03   0 
   2   9  -7   13.04    4.12   0 
   3  -4   4  233.58    5.70   0 
   3  -3   9  175.39    4.19   0 
   3  -2 -13    4.22    4.79   0 
   3  -1  13   84.76    4.39   0 
   3   0 -16  219.71    4.97   0 
   3   1  15    8.88    4.35   0 
   3   5 -17   13.81    3.81   0 
   3   7 -15   15.26    3.31   0 
   4  -5  -3  125.28    7.63   0 
   4  -5   2   37.55    4.52   0 
   4  -3  11   17.06    4.25   0 
   4  -1 -17   -0.66    4.00   0 
   4   0 -18    8.00    4.09   0 
   4   1 -19    3.88    3.92   0 
   4   2  17    5.86    4.15   0 
   4   3  17   39.90    5.06   0 
   5  -5   6    3.04    4.31   0 
   5  -4  10   67.41    4.53   0 
   5  -3  13    4.09    3.26   0 
   5  -1 -19    2.44    4.73   0 
   5   2 -21    3.90    3.82   0 
   6  -6  -5   46.33    7.63   0 
   6  -6   2   12.16    4.82   0 
   6  -3  14    8.64    3.40   0 
   7  -6   5    7.58    4.07   0 
   7  -4 -17    4.14    5.21   0 
   0   1   5  170.11    6.13   0 
   0   4  -7  228.88    5.38   0 
   0   5  -6  122.81    4.93   0 
   0   6  -4    3.98    4.12   0 
   1   1 -11  246.96    5.56   0 
   1   1  10    4.16    4.45   0 
   1   3 -12   57.42    4.28   0 
   1   3  11  181.15    5.60   0 
   1   6   9   40.72    7.29   0 
   1   7  -9  112.79    5.30   0 
   1   8  -6   -1.02    4.68   0 
   2  -1 -12  552.01    6.55   0 
   2   0  12  120.07    4.03   0 
   2   5 -15    3.65    3.81   0 
   2   5  13   26.28    5.08   0 
   2   6 -14   10.62    4.04   0 
   2   6  12    0.83    6.03   0 
   2   8 -11   12.90    3.89   0 
   2   9  -8    4.45    3.97   0 
   3  -4  -5  166.43   12.12   0 
   3  -3   8   11.52    4.37   0 
   3  -1 -15   66.56    4.47   0 
   3   1 -17    6.04    4.11   0 
   3   3 -18    0.06    3.90   0 
   3   5  15   11.95    4.89   0 
   3   7  13   22.57    6.29   0 
   4  -5  -2   10.36    6.18   0 
   4  -5   0   37.95    5.21   0 
   4  -2  13    8.67    3.29   0 
   5  -3 -16    2.75    4.77   0 
   5  -2 -18   64.97    5.13   0 
   6  -6   0   19.42    5.56   0 
   6  -6   1  143.01    5.64   0 
   6  -4  11    9.35    4.14   0 
   6  -2  15   -0.49    3.84   0 
   7  -6   4   11.50    4.37   0 
   7  -5   9   47.32    4.48   0 
   0   2  -7   48.16    3.50   0 
   0   2   6  274.21    6.97   0 
   0   3  -8  155.63    4.75   0 
   0   5  -7   72.55    4.63   0 
   0   6  -5  152.35    5.16   0 
   1   0 -10  107.87    4.96   0 
   1   2 -12  365.64    5.14   0 
   1   5 -12    6.37    4.17   0 
   1   5  10   25.14    5.88   0 
   1   6 -11    4.42    4.04   0 
   1   8  -7   27.57    4.85   0 
   2  -3   3   50.21    4.81   0 
   2  -2 -10  199.96    6.01   0 
   2   1 -15    8.02    4.31   0 
   2   2  13   20.54    4.54   0 
   2  10  -2    6.77    5.08   0 
   3  -3 -11   10.79    5.37   0 
   3   4 -18   27.91    3.14   0 
   3   4  15   90.54    5.34   0 
   3   5 -18    4.48    3.78   0 
   3   6 -17   -0.02    3.12   0 
   3   6  14   15.80    4.88   0 
   3   7 -16    0.55    3.16   0 
   4  -4 -11   52.03    7.06   0 
   4  -3 -14   74.41    5.12   0 
   4  -3  10  243.52    5.16   0 
   4  -2 -16   19.40    4.43   0 
   4   0  15   -2.09    4.16   0 
   4   1  16   17.40    3.57   0 
   4   2 -20   -0.80    3.98   0 
   4   5  16    7.95    5.05   0 
   5  -4   9   62.22    4.44   0 
   5  -3  12   48.15    3.50   0 
   5  -1  15    3.92    4.29   0 
   5   0  16   15.36    4.29   0 
   5   1  17    4.62    3.42   0 
   6  -6  -3   18.51    6.28   0 
   6  -6  -1   52.87    5.67   0 
   6  -5   7   11.83    4.17   0 
   6  -3 -18   20.37    5.02   0 
   6  -3  13   36.40    3.50   0 
   6  -1  16   -1.12    4.05   0 
   7  -6   3    7.52    4.92   0 
   8  -6   5   11.73    4.47   0 
   0   1  -6  885.55    7.76   0 
   0   4  -8  103.37    4.14   0 
   0   6  -6    6.16    4.50   0 
   1  -1  -8  422.51    6.59   0 
   1   7 -10   15.30    4.18   0 
   2  -3   2   26.03    5.24   0 
   2   0 -14    4.49    3.55   0 
   2   1  12  115.13    4.82   0 
   2   2 -16    7.15    4.05   0 
   2   3  13  115.09    5.18   0 
   2   4  13  188.82    5.50   0 
   2   5 -16   44.24    4.34   0 
   2   6 -15   21.15    4.17   0 
   2   7 -14    2.25    3.91   0 
   2   8 -12   -1.20    3.83   0 
   3  -4   2  179.16    5.29   0 
   3  -3   7  156.93    5.18   0 
   3   0 -17    3.26    4.20   0 
   3   1 -18   11.50    4.09   0 
   3   3  15   27.12    4.37   0 
   4  -2  12   72.13    4.43   0 
   4  -1 -18  179.27    5.15   0 
   4   0 -19   -0.37    4.04   0 
   4   1 -20   44.74    4.36   0 
   4   2  16  144.19    4.80   0 
   4   4  16   38.48    5.14   0 
   5  -5   4   -2.05    4.77   0 
   5  -4 -14   78.66    6.57   0 
   5   0 -21    1.25    3.96   0 
   6  -4 -16    4.43    5.35   0 
   6  -4  10   48.74    4.43   0 
   7  -6  -8    3.57    8.80   0 
   7  -5   8    6.91    4.28   0 
   7  -4  11   45.32    4.46   0 
   7  -3  13    0.75    3.95   0 
   8  -6   4    1.11    4.27   0 
   0   2  -8  138.50    4.09   0 
   0   3  -9   11.24    4.13   0 
   0   4  -9  428.82    6.03   0 
   0   5  -8   63.84    4.63   0 
   0   6  -7  173.63    5.81   0 
   0   7  -3  162.76    5.99   0 
   0   7  -2   -1.34    4.97   0 
   0   7  -1   53.49    5.37   0 
   0   7   0    3.34    5.41   0 
   0   7   1   58.40    6.50   0 
   1   1 -12  106.34    4.09   0 
   1   1   9    5.97    4.57   0 
   1   2 -13    3.05    3.96   0 
   1   2  10  505.22    6.45   0 
   1   6 -12    9.10    4.22   0 
   1   8  -8   -0.66    4.38   0 
   1   9  -2   11.68    5.47   0 
   1   9  -1   -1.80    5.12   0 
   2  -1 -13   -0.61    4.27   0 
   2  -1   9    1.84    4.04   0 
   2   8 -13   12.09    3.99   0 
   2   9 -10    1.21    4.03   0 
   3  -2 -14  123.51    4.84   0 
   3  -1 -16    1.59    3.94   0 
   3   0  13   -0.87    3.44   0 
   3   2 -19    3.55    4.13   0 
   3   3 -19   13.39    3.86   0 
   3   5  14   11.37    5.19   0 
   3   6 -18    1.67    3.21   0 
   3   8  11    3.15    6.64   0 
   4  -4   6   12.17    4.67   0 
   4  -3   9  184.84    4.90   0 
   4   2 -21    5.08    3.97   0 
   4   3 -21    6.29    3.88   0 
   4   3  16   39.33    4.45   0 
   5  -3  11   27.30    3.57   0 
   5  -2  13   13.89    3.42   0 
   5   1  16   64.12    4.54   0 
   6  -2  14   77.83    3.70   0 
   6  -1  15    0.26    4.17   0 
   6   0  16  121.04    4.80   0 
   7  -6   1    5.12    5.50   0 
   8  -5   8    6.62    4.24   0 
   0   1  -7  215.99    4.69   0 
   0   2  -9    1.14    3.97   0 
   0   5  -9   63.36    4.82   0 
   0   7  -4   13.34    5.06   0 
   1   3 -14   -2.02    4.13   0 
   1   3  10   58.52    5.12   0 
   1   7 -11   44.75    4.30   0 
   1   8  -9   19.27    4.19   0 
   1   9  -3    2.25    4.73   0 
   1   9   0    4.36    5.36   0 
   1   9   1    4.90    6.45   0 
   2  -2 -11   70.20    5.05   0 
   2  -2   6  155.90    4.91   0 
   2   0 -15    3.64    4.54   0 
   2   1 -16  168.81    5.09   0 
   2   2  12  113.77    5.62   0 
   2   3 -17    8.54    3.83   0 
   2   5  12   60.34    5.92   0 
   2   6 -16    2.63    3.89   0 
   2   7 -15    1.57    4.00   0 
   2   7  10    2.01    7.04   0 
   3  -4   0   44.00    5.35   0 
   3  -2   9   18.69    4.28   0 
   3  -1  11    4.67    4.10   0 
   3   2  14  216.62    5.07   0 
   3   5 -19    4.37    3.15   0 
   4  -2 -17    8.24    4.21   0 
   4  -2  11   12.47    4.36   0 
   4   0 -20   10.14    4.25   0 
   5  -5   3  143.94    5.30   0 
   5  -3 -17   19.90    5.06   0 
   5  -2 -19    1.23    4.35   0 
   5   0  15    3.78    4.15   0 
   6  -5 -13   13.78    8.16   0 
   6  -5   5   -0.74    4.98   0 
   6  -4   9   27.56    4.36   0 
   6  -3 -19    1.32    5.13   0 
   7  -5 -15    3.63    7.43   0 
   7  -4  10   17.03    4.18   0 
   7  -3  12   31.19    4.50   0 
   7  -2  14   13.84    3.99   0 
   0   0  -4   41.07    5.81   0 
   0   3 -10  292.02    5.29   0 
   0   4 -10   88.96    4.59   0 
   0   6  -8   51.49    4.46   0 
   0   7  -5  134.77    4.87   0 
   0   7   2   -0.58    6.57   0 
   1  -1  -9   21.06    4.46   0 
   1   0   7   -0.58    4.04   0 
   1   2 -14  288.76    5.01   0 
   1   5 -14    1.03    3.90   0 
   1   7 -12    8.04    3.74   0 
   1   8 -10    3.40    4.03   0 
   1   9  -6    2.71    5.05   0 
   1   9  -5    5.55    4.22   0 
   2   0  10    8.04    4.52   0 
   2   6  11  144.22    6.95   0 
   3  -4  -1  551.57    8.75   0 
   3  -3 -12    3.06    5.35   0 
   3   0 -18  123.12    4.58   0 
   3   0  12  484.84    6.09   0 
   3   1 -19    2.88    3.76   0 
   3   1  13   84.67    4.76   0 
   3   3 -20   12.32    3.92   0 
   3   3  14   85.49    4.69   0 
   3   4  14   46.77    4.46   0 
   3   6  13   17.53    5.51   0 
   3   7  12    6.39    6.15   0 
   4  -4   5   14.31    4.42   0 
   4  -3 -15   -0.94    4.73   0 
   4  -1 -19    3.19    4.25   0 
   4   1 -21   -1.23    4.03   0 
   4   2  15    3.92    4.30   0 
   4   5  15    6.32    4.94   0 
   5  -5   2   13.58    4.96   0 
   5  -3  10   42.98    4.35   0 
   5  -2  12  176.49    4.73   0 
   5  -1 -21    1.54    4.86   0 
   6  -3  11   43.15    4.21   0 
   6  -2  13    0.46    3.86   0 
   6   1  16    3.48    4.14   0 
   7  -6   0   15.12    4.96   0 
   7  -5   6    4.55    3.96   0 
   8  -6   2   -1.15    4.31   0 
   8  -5   7    4.46    4.12   0 
   0   1  -8  824.73    6.87   0 
   0   2 -10   59.75    4.00   0 
   0   5 -10   55.28    4.52   0 
   0   6  -9   99.53    4.51   0 
   0   7  -7  106.71    5.27   0 
   1   0 -12  883.09    7.39   0 
   1   2   9   57.29    5.35   0 
   1   3 -15   36.88    4.17   0 
   1   4 -15   19.00    4.04   0 
   1   5   9  181.15    7.31   0 
   1   9  -7   15.96    4.88   0 
   1   9   2    3.12    7.16   0 
   2  -3  -7   41.00    7.83   0 
   2  -3   0  390.59    7.44   0 
   2  -1 -14  625.68    6.91   0 
   2  -1   8  772.00    6.76   0 
   2   1 -17    4.26    4.07   0 
   2   1  11   32.89    4.67   0 
   2   4 -18   17.37    3.93   0 
   2   4  12   20.75    5.11   0 
   2   6 -17   21.56    3.37   0 
   3  -4  -4   14.37    7.67   0 
   3  -4  -3   62.20    7.45   0 
   3  -4  -2    4.51    6.30   0 
   3  -2 -15    3.62    4.28   0 
   3  -1 -17    9.35    3.94   0 
   4  -4 -12   16.68    6.57   0 
   4  -4   4   14.68    5.04   0 
   4  -3   8  341.27    5.57   0 
   4  -1  12  491.03    5.64   0 
   4   1  14   95.56    4.77   0 
   4   3  15   32.23    4.44   0 
   4   4  15    7.22    4.23   0 
   5  -4 -15    2.64    5.90   0 
   5  -1  13    5.96    3.84   0 
   5   1  15    5.97    4.28   0 
   5   3  16   50.39    4.36   0 
   5   4  16    7.97    4.43   0 
   6  -5   4   76.38    4.54   0 
   6  -4 -17    4.18    5.95   0 
   6  -4   8    7.78    4.23   0 
   6   0  15    5.02    4.09   0 
   7  -6  -2   25.95    5.90   0 
   7  -6  -1   26.09    5.13   0 
   7  -2  13    6.06    4.10   0 
   8  -6   1   52.38    5.21   0 
   0   0  -5    0.86    4.82   0 
   0   1  -9   -2.99    4.08   0 
   0   3 -11   14.57    4.04   0 
   0   4 -11  248.75    4.41   0 
   0   5 -11    6.67    4.03   0 
   0   7  -8   12.92    4.57   0 
   1  -1 -10  193.08    5.29   0 
   1  -1   4 1217.16    9.44   0 
   1   1 -14   16.48    4.30   0 
   1   1   8  224.24    5.51   0 
   1   5 -15   36.54    3.54   0 
   1   7 -13   32.78    3.25   0 
   1   9  -8    4.71    4.70   0 
   2  -3  -1  218.08    7.84   0 
   2  -2 -12   73.47    4.93   0 
   2  -2   5   15.32    4.16   0 
   2   0 -16   35.70    4.25   0 
   2   2 -18   10.28    4.03   0 
   2   5 -18   11.65    3.14   0 
   2   8   8    3.51    8.88   0 
   3  -3   5  141.45    5.03   0 
   3  -2   8 1245.16    7.79   0 
   3  -1  10   44.34    4.16   0 
   3   0 -19   -0.10    4.68   0 
   3   1 -20   14.05    4.12   0 
   3   2  13   11.01    4.33   0 
   4  -2 -18    4.44    4.66   0 
   4  -2  10   13.97    3.34   0 
   4   0 -21   -3.02    4.16   0 
   4   1 -22   18.05    4.05   0 
   5  -5   1   98.49    4.68   0 
   5  -4   6  124.72    4.80   0 
   5  -3 -18    4.77    4.50   0 
   5  -3   9  105.14    4.72   0 
   5  -2 -20   42.29    5.13   0 
   5   0  14   47.56    4.26   0 
   6  -3  10  113.41    4.53   0 
   6  -2  12  127.24    4.66   0 
   6   2  16   33.73    4.35   0 
   7  -6  -6    1.24    6.21   0 
   7  -5   5   65.44    4.48   0 
   7  -3  11    7.69    4.01   0 
   7  -1  14   28.98    4.10   0 
   8  -6   0    6.77    5.01   0 
   8  -5   6   26.45    4.24   0 
   8  -4   9    8.33    4.20   0 
   0   0  -6 1113.74    9.32   0 
   0   2 -11   99.14    4.27   0 
   0   4 -12    4.41    3.96   0 
   0   7   3  148.06   10.19   0 
   1  -2  -4    3.66    9.10   0 
   1   0 -13    4.73    4.40   0 
   1   3 -16   13.62    3.96   0 
   1   3   9  112.75    5.47   0 
   1   5 -16   11.30    3.92   0 
   1   6 -15   -3.05    3.92   0 
   1   6   8    6.29    7.28   0 
   1   7 -14   -1.10    4.00   0 
   1   8 -12    2.54    4.24   0 
   1   9  -9   13.88    4.22   0 
   2   2  11  190.51    5.21   0 
   2   3 -19    7.29    3.85   0 
   2   4 -19    4.48    3.95   0 
   2   5 -19    8.11    3.82   0 
   2   6 -18    2.34    3.04   0 
   3  -3 -13  102.98    6.18   0 
   3   1  12  168.74    5.09   0 
   3   2 -21    3.27    3.81   0 
   3   3  13   67.76    5.15   0 
   3   5  13   46.43    5.18   0 
   4  -4   3  449.65    6.72   0 
   4  -3 -16   43.12    4.96   0 
   4  -3   7   23.84    4.40   0 
   4  -1 -20   56.40    4.40   0 
   4   2  14  166.41    4.83   0 
   5  -5   0   91.34    5.55   0 
   5  -2  11   12.83    3.46   0 
   5   2  15   18.02    4.37   0 
   5   5  15   13.88    5.02   0 
   6  -5   3    5.95    4.18   0 
   6   1  15    0.44    4.18   0 
   7  -6  -5   43.60    6.19   0 
   7  -6  -4    0.42    5.41   0 
   7  -4   8   49.32    4.46   0 
   8  -6 -10   10.62    8.37   0 
   8  -5   5   12.20    4.17   0 
   8  -3  11   10.41    3.36   0 
   0   0  -7    0.55    4.51   0 
   0   1 -10 1048.50    7.72   0 
   0   5 -12  184.40    5.13   0 
   0   6 -11   74.20    4.55   0 
   0   7  -9    4.19    4.16   0 
   0   8  -6   12.43    4.92   0 
   0   8  -5   13.00    4.83   0 
   0   8  -4    4.06    4.93   0 
   0   8  -3   17.42    5.01   0 
   0   8  -1   13.20    5.48   0 
   1  -1 -11  265.20    6.22   0 
   1   0   6   27.19    3.68   0 
   1   1 -15    5.46    4.00   0 
   1   2 -16  210.40    5.17   0 
   1   4   9    7.97    4.80   0 
   1   9 -10   -3.42    4.47   0 
   1   9   3   15.79   10.20   0 
   2  -3  -2  373.21   10.27   0 
   2  -1   7  194.86    4.93   0 
   2   0 -17    0.93    4.11   0 
   2   1 -18  108.06    4.64   0 
   2   1  10  896.06    7.47   0 
   2   2 -19    8.11    4.11   0 
   2   5  11    3.19    5.04   0 
   3  -3   4  623.49    6.80   0 
   3  -2 -16  134.82    5.39   0 
   3  -1 -18   11.46    4.15   0 
   3   4  13   27.47    4.43   0 
   3   8  10    3.79    6.53   0 
   4  -2   9    7.49    3.97   0 
   4   1  13    4.32    4.34   0 
   4   3  14   87.80    4.69   0 
   4   5  14   44.27    4.63   0 
   5  -5  -1   28.79    5.82   0 
   5  -4   5   91.55    4.90   0 
   5  -1  12  130.92    4.64   0 
   5   1  14  228.21    5.03   0 
   5   3  15    7.33    4.24   0 
   5   4  15   24.92    4.40   0 
   6  -1  13   17.56    3.46   0 
   7  -5   4    4.54    4.49   0 
   7  -3  10   14.52    4.10   0 
   8  -6  -2    2.08    5.47   0 
   8  -4   8   11.99    4.14   0 
   8  -2  12   15.50    4.23   0 
  -1   4  -5  462.65    6.93   0 
  -1   4  -4   63.32    4.78   0 
  -1   4  -3  373.55    6.23   0 
  -1   4  -2   -1.00    4.87   0 
   0   1   3    0.90    7.08   0 
   0   2 -12   11.03    4.06   0 
   0   4 -13   10.83    4.10   0 
   0   5 -13    5.50    4.16   0 
   0   7 -10   11.04    4.39   0 
   0   8  -7   26.89    4.97   0 
   0   8   0    0.33    5.93   0 
   1  -2  -5    6.24    6.50   0 
   1  -1   3   15.88    5.22   0 
   1   0 -14  573.81    6.46   0 
   1   3 -17   30.52    3.99   0 
   1   4 -17    5.06    3.76   0 
   1   5 -17   28.69    4.11   0 
   1   6 -16    7.51    3.23   0 
   1   7 -15   19.34    3.99   0 
   2  -2 -13    3.66    4.75   0 
   2  -2   4  360.77    6.05   0 
   2   3 -20   16.63    3.96   0 
   2   3  11   35.22    4.70   0 
   2   4  11  124.00    5.87   0 
   3  -2   7   34.67    4.51   0 
   3  -1   9   10.34    4.06   0 
   3   0 -20   36.46    4.46   0 
   4  -4 -13   31.97    5.85   0 
   4  -2 -19   -1.59    4.87   0 
   4   0 -22    9.89    4.22   0 
   4   0  12   72.09    3.75   0 
   4   4  14   29.46    4.58   0 
   5  -4 -16   37.16    6.00   0 
   5  -2  10  331.99    5.39   0 
   5   0  13    0.81    3.31   0 
   6  -5 -14    3.69    8.80   0 
   6  -5   2   25.07    4.81   0 
   6  -4 -18    2.86    5.39   0 
   6  -4   6    3.00    4.32   0 
   6  -3   9   11.95    4.31   0 
   6  -2  11    0.97    3.99   0 
   6   2  15    5.89    4.08   0 
   7  -4   7   35.56    4.25   0 
   7  -1  13   -1.77    4.03   0 
   7   0  14   10.01    4.10   0 
   8  -5   4   30.88    4.38   0 
   8  -3  10    6.84    4.29   0 
  -1   3  -5  565.29    6.62   0 
  -1   3  -4   96.25    4.91   0 
  -1   3  -3   25.18    4.74   0 
  -1   3  -2  475.02    7.71   0 
  -1   4  -6  350.48    5.91   0 
  -1   4  -1   20.83    5.56   0 
  -1   5  -5   91.50    4.80   0 
  -1   5  -4  201.09    5.35   0 
  -1   5  -3   91.25    5.31   0 
  -1   5  -2  180.97    5.75   0 
   0   0  -8  582.43    6.79   0 
   0   1 -11   65.87    4.61   0 
   0   6 -13   63.42    4.37   0 
   0   7 -11    1.07    3.88   0 
   1  -1 -12  118.86    5.62   0 
   1   1 -16   19.12    4.23   0 
   1   1   7  452.13    6.70   0 
   1   2 -17    9.44    4.13   0 
   1   2   8  640.05    7.37   0 
   1   6 -17   14.68    3.86   0 
   1   7 -16    0.77    3.96   0 
   1   8 -14    1.26    3.84   0 
   1  10  -3   13.22    5.59   0 
   1  10  -2    5.68    5.92   0 
   2  -1 -16  195.66    5.11   0 
   2   0 -18    4.19    4.15   0 
   2   1 -19    1.28    3.89   0 
   2   2 -20   31.73    4.11   0 
   2   6  10    2.22    5.96   0 
   3  -2 -17    0.48    5.11   0 
   3  -1 -19   -2.07    4.20   0 
   3   2 -22    7.66    3.44   0 
   3   2  12  208.26    5.26   0 
   4  -4   2  155.52    5.15   0 
   4  -3 -17    9.12    4.93   0 
   4  -3   6  322.02    5.52   0 
   4  -1 -21    0.21    4.08   0 
   4   6  13   16.49    5.04   0 
   5  -5  -2   28.30    5.70   0 
   5  -4   4   22.67    5.45   0 
   5  -3 -19   10.80    4.83   0 
   5   2  14   19.57    4.30   0 
   6  -5   1   19.83    5.47   0 
   6  -1  12   52.76    4.30   0 
   6   1  14   19.09    4.32   0 
   6   3  15   13.32    4.15   0 
   7  -2  11   42.80    4.23   0 
   8  -6  -9    3.68    7.09   0 
   8  -6  -4    1.97    5.36   0 
   8  -4   7   13.25    4.19   0 
  -1   3  -7   78.08    4.60   0 
  -1   3  -6  395.59    6.28   0 
  -1   4  -7   49.00    4.90   0 
  -1   5  -7  145.46    4.95   0 
  -1   5  -6   44.31    4.58   0 
  -1   5  -1  188.57    6.64   0 
   0   0  -9    3.55    4.77   0 
   0   1 -12  434.71    6.09   0 
   0   2 -13   95.36    3.74   0 
   0   7 -12    5.18    4.02   0 
   0   8  -9   50.03    4.55   0 
   0   8   1   11.11    6.67   0 
   1  -2  -7  148.76    6.60   0 
   1   0 -15    4.46    4.61   0 
   1   4 -18   15.93    3.42   0 
   1  10  -1   12.54    6.23   0 
   2   0   8    2.79    4.05   0 
   2   2  10   49.04    4.73   0 
   2   7   9    4.10    6.70   0 
   3  -3 -14   16.19    4.90   0 
   3  -3   3   31.48    4.85   0 
   3   0  10  876.91    6.58   0 
   3   1 -22   27.96    4.17   0 
   3   1  11    7.37    4.40   0 
   3   3  12   30.11    4.49   0 
   4  -2   8    3.70    4.11   0 
   4  -1  10  515.51    5.21   0 
   4   2  13    9.63    4.37   0 
   4   7  12   11.59    5.40   0 
   5  -5  -3    6.39    5.63   0 
   5  -3   7   51.34    4.49   0 
   5  -1  11    3.91    4.04   0 
   5   1  13    3.36    4.29   0 
   5   3  14   33.37    4.28   0 
   5   5  14    6.77    5.03   0 
   6  -3   8   75.36    4.63   0 
   6  -2  10   97.12    4.40   0 
   6   0  13    1.93    3.28   0 
   7  -5   2    4.75    5.11   0 
   7  -4   6   49.45    4.29   0 
   7   1  14   27.51    4.22   0 
   8  -6  -8    8.84    6.53   0 
   8  -6  -6   11.55    6.15   0 
   8  -5   3    1.69    4.26   0 
   8  -3   9    7.92    4.27   0 
   8  -2  11    5.45    3.93   0 
   9  -5   3    6.83    4.89   0 
  -1   3  -8  265.93    5.37   0 
  -1   3  -1   12.14    5.20   0 
  -1   4  -9   11.69    4.41   0 
  -1   4  -8  207.54    4.62   0 
  -1   5  -8   45.91    4.59   0 
  -1   6  -6   16.67    5.10   0 
  -1   6  -5   19.44    4.26   0 
  -1   6  -4    6.75    5.11   0 
  -1   6  -3  148.97    5.73   0 
   0   5 -15    8.15    4.00   0 
   0   6 -14    0.05    4.09   0 
   0   7 -13    3.77    4.07   0 
   0   8 -10    2.48    4.04   0 
   1  -1 -13   11.14    4.99   0 
   1   0   5    0.73    4.51   0 
   1   1 -17   16.40    4.10   0 
   1   6 -18    5.97    3.88   0 
   2  -3  -9  161.39    7.10   0 
   2  -2 -14   10.50    4.35   0 
   2  -2   3   13.38    4.60   0 
   2  -1 -17    3.67    4.19   0 
   2   1 -20   43.52    4.34   0 
   2   1   9   -1.10    4.41   0 
   2   3 -21   19.16    3.22   0 
   3  -2   6  778.54    7.03   0 
   3  -1   8   38.94    4.09   0 
   3   0 -21    1.39    3.36   0 
   3   4  12  119.61    5.33   0 
   4  -4   1  409.93    6.25   0 
   4  -3   5    1.00    4.55   0 
   4  -2 -20    1.22    4.41   0 
   4  -1 -22   17.80    4.98   0 
   4   0  11    3.01    4.06   0 
   4   1  12  482.88    5.98   0 
   4   3  13   14.11    4.26   0 
   4   4  13    8.30    5.07   0 
   4   5  13   47.63    4.58   0 
   5  -5  -4  102.68    6.81   0 
   5  -2   9    2.23    4.13   0 
   5   0  12  140.57    4.04   0 
   5   4  14    5.74    4.11   0 
   6  -5   0   93.71    5.52   0 
   6  -4   5  131.81    4.86   0 
   7   0  13   -0.92    4.00   0 
   8  -6  -7    0.43    5.46   0 
   8  -4   6   28.75    4.33   0 
   9  -4   6   15.32    4.29   0 
  -1   2  -6  433.57    6.06   0 
  -1   2  -5   23.48    4.35   0 
  -1   3  -9  120.90    4.62   0 
  -1   4 -10  272.14    5.40   0 
  -1   5  -9  210.45    5.34   0 
  -1   6  -8    6.33    4.29   0 
  -1   6  -7   23.70    4.36   0 
  -1   6  -2   31.15    5.25   0 
   0   1 -13   -0.68    4.21   0 
   0   3 -15   -0.27    3.21   0 
   0   6 -15   42.02    4.52   0 
   0   8 -11   26.15    4.22   0 
   0   9  -5   24.30    5.25   0 
   0   9  -4    3.14    4.70   0 
   1  -2  -8  450.27    7.63   0 
   1   0 -16  176.79    4.97   0 
   1   3 -19   14.53    3.96   0 
   1   3   8  238.18    6.47   0 
   1  10   0    1.54    7.05   0 
   2   0 -19   -1.49    4.08   0 
   2   3  10  357.42    6.44   0 
   2   5  10    9.76    5.49   0 
   3  -3 -15   79.65    5.83   0 
   3  -2 -18  108.41    5.34   0 
   3  -1 -20   14.34    4.10   0 
   3   2  11  154.02    5.77   0 
   4  -4 -14   30.09    6.26   0 
   4  -3 -18   61.47    5.89   0 
   5  -4 -17    6.93    6.14   0 
   5  -4   3    5.84    4.64   0 
   5  -3 -20    1.83    4.73   0 
   5   2  13    9.73    4.15   0 
   6  -1  11   12.73    3.93   0 
   6   1  13   16.70    4.38   0 
   7  -4   5   20.39    4.40   0 
   7  -2  10   25.17    4.31   0 
   7   2  14   12.11    4.35   0 
   8  -5   2   29.99    4.46   0 
   8  -3   8   36.51    4.41   0 
   8  -2  10   47.64    4.39   0 
   9  -5   2    4.20    4.26   0 
  -1   2  -8  754.41    6.80   0 
  -1   2  -3  329.88    6.50   0 
  -1   3 -10   58.42    4.61   0 
  -1   5 -10   29.02    4.35   0 
  -1   6  -9   48.29    4.48   0 
  -1   6  -1  592.86    8.54   0 
   0   0 -11    6.11    4.47   0 
   0   2 -15   31.85    4.11   0 
   0   3 -16   81.60    4.44   0 
   0   4 -16    1.39    3.20   0 
   0   4   5    2.05    7.78   0 
   0   7 -14    7.52    3.32   0 
   0   8 -12    4.19    4.11   0 
   0   9  -8   -0.74    4.29   0 
   0   9  -7   16.03    4.21   0 
   0   9  -3   29.37    4.84   0 
   1  -2  -9    6.90    5.59   0 
   1  -1 -14   13.07    5.20   0 
   1   1 -18   59.84    4.46   0 
   1   4 -20    9.12    3.98   0 
   1   4   8  187.76    6.44   0 
   2  -3 -10  231.25    7.66   0 
   2  -2 -15   25.25    4.83   0 
   2   4  10   36.47    5.08   0 
   3   0 -22   23.01    4.32   0 
   3   0   9    2.48    4.17   0 
   3   1  10   41.83    4.53   0 
   3   6  11   -1.20    4.93   0 
   4  -4   0  194.85    5.82   0 
   4  -2 -21    6.96    4.81   0 
   4  -2   7  435.22    5.67   0 
   4  -1   9   10.88    3.30   0 
   4   2  12   65.08    4.59   0 
   5  -5  -8   60.92    9.45   0 
   5  -5  -6  110.67    8.21   0 
   5  -5  -5    5.62    6.14   0 
   5  -3   6   23.30    4.64   0 
   5  -1  10   21.01    4.26   0 
   5   6  13   13.80    4.31   0 
   6  -5 -15   16.35   10.62   0 
   6  -5  -1   36.73    5.44   0 
   6  -4   4   13.63    4.33   0 
   6  -3   7   -0.79    4.37   0 
   6   4  14   17.21    4.19   0 
   7  -1  11   -1.60    3.85   0 
   7   1  13    3.48    4.21   0 
   8  -4   5    8.37    4.21   0 
   9  -4   5    3.86    4.20   0 
  -1   2  -2  270.31    6.65   0 
  -1   3 -11  148.66    4.66   0 
  -1   4 -11   34.73    3.55   0 
  -1   5 -11  167.41    5.08   0 
  -1   6 -10   57.40    4.62   0 
  -1   7  -7  105.33    4.72   0 
  -1   7  -6   21.54    5.02   0 
  -1   7  -5   96.54    5.11   0 
  -1   7  -4   35.80    5.19   0 
   0   0 -12    5.39    4.53   0 
   0   1 -14  488.50    5.34   0 
   0   4 -17   52.10    4.31   0 
   0   5 -17    4.06    3.95   0 
   0   6 -16    1.13    3.18   0 
   0   7 -15   12.29    4.03   0 
   0   8 -13   27.56    4.02   0 
   0   9 -10    2.80    4.83   0 
   0   9  -9    3.93    4.20   0 
   0   9  -2    7.89    5.46   0 
   1   0 -17   -0.55    4.86   0 
   1   1   6  928.59    8.72   0 
   1   2   7    7.62    5.09   0 
   1   3 -20    9.54    3.82   0 
   2  -1 -18  130.24    4.64   0 
   2  -1   5   13.73    4.27   0 
   2   0 -20   49.04    4.31   0 
   2   0   7    2.22    4.23   0 
   2   2 -22    7.01    3.31   0 
   2   2   9  193.83    6.18   0 
   3  -4  -9   36.28   11.83   0 
   3  -2   5  136.21    5.20   0 
   3  -1 -21    4.60    4.63   0 
   3   3  11   19.73    5.12   0 
   3   7  10   -0.26    5.21   0 
   3   8   9    1.01    6.20   0 
   4  -3   4  445.67    6.22   0 
   4   0  10  128.71    4.57   0 
   4   1  11   -1.28    4.17   0 
   5  -5  -7   10.59    7.60   0 
   5  -4   2  389.71    6.15   0 
   5   0  11    1.23    3.41   0 
   5   1  12  117.33    4.03   0 
   5   3  13    1.15    4.23   0 
   5   4  13   12.21    4.33   0 
   5   5  13    8.38    4.44   0 
   6   2  13    6.66    4.35   0 
   7  -5   0    9.25    4.18   0 
   7  -3   7   27.29    4.35   0 
   7  -2   9    3.26    4.03   0 
   8  -5   1    7.00    4.36   0 
   9  -5   1   37.34    4.51   0 
  -1   2 -10  459.77    5.64   0 
  -1   3 -12    8.18    3.92   0 
  -1   5 -12    6.24    4.17   0 
  -1   6   0   39.19    6.63   0 
  -1   7  -9  114.02    4.82   0 
  -1   7  -8    2.58    4.10   0 
  -1   7  -2    7.52    5.45   0 
   0   1 -15    3.43    4.25   0 
   0   6 -17   10.05    4.18   0 
   0   9  -1   28.40    6.13   0 
   1  -2 -10  205.91    6.09   0 
   1  -1 -15    3.29    4.93   0 
   1   1 -19    1.61    3.90   0 
   1   2 -20   16.92    4.06   0 
   1  10   1   10.02    8.03   0 
   2  -3 -11   -0.86    5.37   0 
   2  -3  -4   23.34   11.07   0 
   2  -2 -16    7.76    4.91   0 
   2  -2   2  613.20    7.76   0 
   2   1   8  710.61    7.16   0 
   3  -3 -16    2.57    4.73   0 
   3  -2 -19    1.40    3.95   0 
   3  -1   7    1.34    3.28   0 
   3   4  11    4.83    4.88   0 
   3   5  11   80.78    5.78   0 
   4  -4 -15   86.98    6.85   0 
   4  -3 -19   -1.10    4.59   0 
   4   3  12   82.82    4.61   0 
   4   4  12   32.59    5.16   0 
   4   5  12   31.53    4.32   0 
   4   7  11   16.63    4.97   0 
   5  -3   5  271.80    5.42   0 
   6  -4   3  106.01    4.50   0 
   6  -3   6  197.77    5.20   0 
   7  -4   4  157.30    5.01   0 
   8  -3   7    6.94    4.42   0 
   8  -2   9    4.20    3.31   0 
   9  -4   4   38.20    4.22   0 
   9  -3   7   -0.83    3.43   0 
   9  -2   9    1.19    3.33   0 
  -1   2 -11   38.70    4.09   0 
  -1   4 -13    5.09    4.05   0 
  -1   5 -13  121.90    4.64   0 
  -1   5   1   22.79    6.53   0 
  -1   6 -12   32.88    4.34   0 
  -1   7 -11   70.10    4.81   0 
  -1   7 -10    8.45    4.27   0 
   0   0 -13    0.03    4.39   0 
   0   2 -17    8.14    4.10   0 
   0   3 -18   31.28    4.12   0 
   0   4 -18   15.33    3.88   0 
   0   5 -18   20.65    4.06   0 
   1  -2 -11   10.10    4.75   0 
   1   0 -18   83.26    4.67   0 
   1   0   4  206.94    6.33   0 
   1   3 -21    3.42    3.84   0 
   1   6   7   18.53    7.01   0 
   2  -1 -19    0.66    4.31   0 
   2   1 -22   13.09    3.36   0 
   2   6   9  173.61    6.69   0 
   3  -3   1  508.66    6.91   0 
   4  -4  -1   54.61    5.09   0 
   4  -2   6    1.46    4.45   0 
   5  -4 -18   21.14    5.69   0 
   5  -2   7   54.03    4.33   0 
   5   2  12  150.99    4.97   0 
   6  -5  -3   62.60    5.80   0 
   6  -2   8   29.49    3.47   0 
   6   0  11    0.94    3.26   0 
   6   4  13    1.08    4.23   0 
   6   5  13   23.53    4.25   0 
   7  -5  -1   96.25    5.48   0 
   7   0  11    4.09    4.02   0 
   7   3  13    6.11    4.15   0 
   8  -1  10    7.52    4.04   0 
   8   1  12   -1.09    3.96   0 
   9  -5   0    7.41    4.28   0 
  -1   1  -8  222.32    5.08   0 
  -1   1  -7  453.47    6.14   0 
  -1   1  -6  954.46    7.92   0 
  -1   1  -5   73.47    4.92   0 
  -1   2 -12  536.98    6.02   0 
  -1   2  -1   59.26    6.03   0 
  -1   5 -14    3.25    3.94   0 
  -1   6 -13   34.45    4.36   0 
  -1   7 -12    4.27    4.07   0 
  -1   7  -1    6.86    6.18   0 
  -1   8  -8    6.38    5.04   0 
  -1   8  -7   20.69    4.91   0 
  -1   8  -6    2.71    4.94   0 
  -1   8  -5   52.79    5.74   0 
   0  -1  -8  856.14    8.56   0 
   0  -1  -6  903.51    9.82   0 
   0   0 -14    5.51    4.41   0 
   0   1 -16  133.60    4.91   0 
   0   4 -19   11.11    4.04   0 
   0   5 -19   14.24    3.88   0 
   0   9   0   -2.39    6.50   0 
   1  -1 -16   19.12    4.20   0 
   1   1 -20   10.31    4.13   0 
   1   2 -21    2.74    4.09   0 
   1   7   6   26.68    9.39   0 
   2  -3 -12  159.68    6.24   0 
   2  -2 -17   41.84    5.40   0 
   2   3   9    2.96    4.44   0 
   2   8   7   38.87    7.88   0 
   3  -2 -20   64.08    5.20   0 
   3  -2   4  698.12    7.37   0 
   3  -1 -22   33.30    4.42   0 
   3   1   9    9.67    4.50   0 
   4  -3   3   23.69    4.68   0 
   4   0   9    3.29    4.06   0 
   4   2  11   15.75    4.43   0 
   5  -4   1   10.97    4.34   0 
   5   1  11    1.65    4.13   0 
   5   3  12   35.96    4.49   0 
   5   6  12    5.10    4.21   0 
   6  -4   2   30.31    4.98   0 
   7  -4   3    1.14    4.25   0 
   7  -3   6    8.16    3.59   0 
   8  -5  -1    2.96    5.13   0 
   8  -4   3   73.76    4.88   0 
   8  -3   6   61.86    4.51   0 
   8   0  11   -1.72    3.37   0 
   9  -5  -1   40.23    5.24   0 
   9  -4   3    8.43    4.78   0 
   9  -3   6    5.72    4.10   0 
  -1   1 -10   11.34    4.02   0 
  -1   1  -9    8.28    4.07   0 
  -1   1  -4 1207.45    9.87   0 
  -1   2 -13   22.22    4.05   0 
  -1   3 -14   13.73    3.42   0 
  -1   5 -15   20.95    4.24   0 
  -1   6 -14   23.70    4.37   0 
  -1   7 -13   19.26    4.22   0 
  -1   8  -9    7.50    4.15   0 
  -1   8  -4    4.99    4.99   0 
   0  -1  -9    2.08    4.47   0 
   0  -1  -5  175.75    6.95   0 
   0   3 -19    8.86    3.91   0 
   1  -2 -12  375.15    6.12   0 
   1   0 -19    1.90    4.16   0 
   2  -1 -20   55.36    4.41   0 
   2   0 -22   17.15    4.28   0 
   2   0   6  249.81    5.44   0 
   2   4   9    7.51    4.89   0 
   2   5   9    6.92    5.08   0 
   2   7   8    1.23    6.52   0 
   3  -4 -10  108.14    9.81   0 
   3  -3 -17   37.92    5.04   0 
   3  -1   6   28.30    4.21   0 
   3   6  10   25.11    5.00   0 
   4  -4 -16   12.09    6.10   0 
   4  -4  -2  173.14    6.36   0 
   4  -3 -20   42.83    5.08   0 
   4   1  10  480.40    5.40   0 
   4   3  11   17.74    5.10   0 
   4   6  11   40.13    5.27   0 
   5  -3   4    9.30    4.40   0 
   5   4  12   56.88    4.58   0 
   5   5  12   15.11    4.27   0 
   6  -5  -4   17.42    5.43   0 
   6  -3   5   38.61    4.48   0 
   6  -2   7   20.70    4.35   0 
   6   1  11   10.57    4.04   0 
   7  -5  -2    2.12    4.97   0 
   7   2  12    6.86    4.12   0 
   9  -1   9    8.57    3.91   0 
  -1   1 -11   -0.33    4.25   0 
  -1   2 -14  161.25    4.62   0 
  -1   6 -15   10.45    4.18   0 
  -1   6   1   75.25    7.51   0 
  -1   7 -14   -2.58    4.00   0 
  -1   8 -11    1.92    4.36   0 
  -1   8  -3   25.13    4.99   0 
   0  -1 -10  987.73    8.18   0 
   0   0 -15    5.18    4.49   0 
   0   1 -17   15.35    3.51   0 
   0   2 -19    5.31    4.21   0 
   0   4 -20   20.36    4.00   0 
   0  10  -4    4.87    5.45   0 
   1  -2 -13   -2.76    5.02   0 
   1  -1 -17   12.60    4.53   0 
   1   5   7  113.55    7.32   0 
   2  -3 -13    1.17    5.00   0 
   2  -2 -18   15.82    4.90   0 
   2  -1   4 1012.10    8.50   0 
   3  -4 -11   43.01    8.07   0 
   3  -2 -21    6.03    4.96   0 
   3   3  10   55.11    4.85   0 
   3   5  10    2.10    5.20   0 
   3   9   7   17.32    7.47   0 
   4  -2   5  209.19    5.41   0 
   4  -1   7   35.91    4.19   0 
   4   4  11   66.23    5.25   0 
   4   5  11   31.97    5.13   0 
   5  -4 -19    3.01    5.47   0 
   5  -4   0  173.67    5.92   0 
   5  -2   6  137.88    4.85   0 
   5  -1   8   37.40    4.16   0 
   5   2  11   11.96    4.29   0 
   5   7  11   20.07    5.02   0 
   6   0  10   23.92    3.55   0 
   6   3  12   67.17    4.49   0 
   7  -5  -3   78.84    6.24   0 
   7  -4   2   68.20    4.28   0 
   7  -3   5   43.40    4.58   0 
   7  -1   9    3.98    3.38   0 
   7   1  11    3.38    4.23   0 
   8  -5  -2   12.28    5.02   0 
   8  -3   5    6.95    4.12   0 
   8  -1   9    5.41    3.37   0 
   9  -3   5   11.46    4.26   0 
   9  -2   7   19.59    4.31   0 
  -1   1 -12    7.68    4.37   0 
  -1   1  -3   17.66    5.24   0 
  -1   3 -16   21.59    3.93   0 
  -1   6 -16    5.06    4.12   0 
  -1   7 -15   26.06    4.28   0 
  -1   7   0   21.86    6.38   0 
  -1   8 -12    2.61    4.14   0 
   0  -1 -12  482.25    6.99   0 
   0  -1 -11   64.88    5.18   0 
   0   0 -16  190.94    5.16   0 
   0   1 -18   72.35    4.43   0 
   0   3 -20   16.96    4.18   0 
   0  10  -3    0.24    5.58   0 
   1  -1   1    0.74    6.03   0 
   1   0 -20   85.81    4.79   0 
   1   1   5   73.63    5.31   0 
   1   2   6  408.80    7.33   0 
   2  -3 -14  180.86    6.71   0 
   2  -2   1  520.70    7.83   0 
   2  -1 -21    7.57    4.23   0 
   2   1   7  182.75    5.58   0 
   3  -3 -18    3.19    4.96   0 
   3   4  10  190.24    5.48   0 
   3   7   9   18.62    5.67   0 
   4  -3   2  247.19    5.55   0 
   4   2  10   16.86    4.63   0 
   4   7  10    3.21    4.89   0 
   5   0   9    3.12    4.10   0 
   5   1  10   18.90    4.32   0 
   6  -5  -5   88.23    5.98   0 
   6  -4   1    2.76    4.31   0 
   6  -3   4  246.86    5.31   0 
   6   4  12   29.30    4.32   0 
   6   5  12    8.06    4.23   0 
   7  -2   7    2.67    3.48   0 
   7   4  12    9.14    4.29   0 
   8  -4   2    3.22    4.47   0 
   8  -2   7    3.06    3.41   0 
   9  -4   2   19.81    4.61   0 
  -2   4  -8    5.32    4.41   0 
  -2   4  -7  381.50    5.97   0 
  -2   5  -9   13.99    4.55   0 
  -2   5  -8  245.61    5.47   0 
  -2   5  -7   54.11    4.74   0 
  -2   5  -6   90.61    5.50   0 
  -1   1 -13   22.08    4.14   0 
  -1   4 -17   23.61    3.49   0 
  -1   5 -17    4.22    3.29   0 
  -1   6 -17   14.82    4.14   0 
  -1   8 -13    0.79    3.56   0 
  -1   8  -2    2.57    4.96   0 
  -1   9  -8   11.43    5.02   0 
  -1   9  -7   31.26    5.45   0 
   0  -1  -4  591.35   10.05   0 
   0   2 -20   28.32    4.46   0 
   0   3 -21   13.31    4.03   0 
   1  -2 -14  308.86    5.81   0 
   1  -1 -18   69.95    4.45   0 
   1   1 -22   17.67    4.22   0 
   3  -4 -12   66.59    7.89   0 
   3  -2   3    0.05    4.36   0 
   3   0   7   -2.92    3.38   0 
   3   1   8   38.23    4.84   0 
   3   2   9   13.44    4.65   0 
   3   8   8   -1.52    6.52   0 
   4  -4 -17   45.55    5.90   0 
   4  -4  -3   12.00    5.52   0 
   4   0   8   10.14    4.22   0 
   4   1   9   10.15    4.54   0 
   4   8   9   49.35    6.10   0 
   5  -3   3   77.82    4.88   0 
   5   6  11   27.98    4.48   0 
   6  -2   6   11.17    4.21   0 
   6   2  11    7.75    4.28   0 
   7  -5  -4   60.21    5.88   0 
   8  -1   8   27.85    4.46   0 
   8   2  11    7.86    4.26   0 
   9  -5  -3   17.18    4.52   0 
  -2   4 -11  131.64    4.85   0 
  -2   4 -10   38.33    4.60   0 
  -2   4  -9   10.05    3.71   0 
  -2   4  -6  164.07    5.30   0 
  -2   4  -5  542.07    6.68   0 
  -2   5 -11    8.14    4.15   0 
  -2   5  -5  108.32    4.91   0 
  -2   6 -10    3.59    4.49   0 
  -2   6  -9  219.63    5.03   0 
  -2   6  -8   15.51    4.30   0 
  -2   6  -7   80.71    4.59   0 
  -2   6  -6   31.46    5.23   0 
  -1   2 -16  120.03    4.65   0 
  -1   3 -17    4.54    3.31   0 
  -1   5 -18   15.01    4.04   0 
  -1   9  -9   10.73    4.37   0 
  -1   9  -6    0.53    4.85   0 
  -1   9  -5   15.62    5.13   0 
   0  -1 -13    1.41    4.41   0 
   0   0 -17   -2.88    4.24   0 
   0   1 -19    2.82    4.15   0 
   0   9   1   26.02    8.14   0 
   0  10  -2    6.79    6.37   0 
   1  -2 -15   12.34    5.28   0 
   2  -3 -15    3.54    5.03   0 
   2  -2 -19   13.47    4.23   0 
   2   3   8  647.84    7.67   0 
   2   6   8    7.99    6.21   0 
   3  -3 -19   10.35    5.07   0 
   3  -2 -22    9.24    4.16   0 
   3  -1   5   -0.53    4.21   0 
   4   3  10  247.71    6.06   0 
   5  -4  -1  109.70    5.45   0 
   5  -1   7   -1.20    4.13   0 
   5   4  11   93.56    4.66   0 
   5   5  11    7.08    4.36   0 
   6  -5  -6   -0.50    5.71   0 
   6   0   9    0.63    3.47   0 
   6   6  11    2.52    5.11   0 
   7  -3   4    2.74    4.46   0 
   7  -2   6  243.11    5.45   0 
   7   0   9   -4.09    4.13   0 
   8  -5  -4   32.02    5.97   0 
   8  -4   1   75.64    4.76   0 
   8  -3   4   71.77    4.47   0 
   8   1  10    5.55    4.16   0 
   9  -5  -4   10.57    5.07   0 
   9  -4   1    6.30    4.24   0 
   9  -2   6   28.36    4.41   0 
   9   0   9    1.50    3.21   0 
  -2   3 -11   34.57    4.21   0 
  -2   3 -10  363.76    5.52   0 
  -2   3  -9    0.60    3.60   0 
  -2   3  -8  655.19    6.34   0 
  -2   3  -7   23.59    4.68   0 
  -2   3  -6  569.35    6.65   0 
  -2   4  -4  233.57    5.70   0 
  -2   5 -13   25.12    4.44   0 
  -2   5 -12   57.18    4.63   0 
  -2   5  -4   63.08    4.88   0 
  -2   6 -12   -0.97    4.24   0 
  -2   6 -11  157.97    5.00   0 
  -2   6  -5   58.87    4.67   0 
  -1   0 -10  929.18    7.65   0 
  -1   0  -8 2286.12   10.98   0 
  -1   1 -15   -0.89    4.23   0 
  -1   2 -17    5.41    4.08   0 
  -1   3 -18   50.44    4.40   0 
  -1   5 -19    0.27    4.18   0 
  -1   5   2   17.46    7.95   0 
  -1   8  -1   61.64    5.97   0 
  -1   9  -4    2.52    5.53   0 
   0  -1 -14  541.63    6.68   0 
   0   1 -20   25.99    4.40   0 
   0   2 -21    6.51    4.11   0 
   1  -1 -19    7.19    4.56   0 
   1   0   3    0.86    5.40   0 
   2   0   5   -1.64    4.43   0 
   3  -4 -13   90.29    7.48   0 
   3   3   9  146.27    5.17   0 
   3   6   9   24.66    5.92   0 
   4  -3   1  155.04    6.19   0 
   4  -2   4  292.61    5.68   0 
   4  -1   6  819.07    6.95   0 
   4   6  10    3.43    5.05   0 
   5  -2   5    4.62    3.52   0 
   5   2  10  314.82    5.78   0 
   6  -3   3   19.51    4.81   0 
   6   4  11    5.98    4.30   0 
   6   5  11    9.24    4.39   0 
   7   3  11   11.41    4.25   0 
   8   3  11    4.02    3.33   0 
   9  -1   7   -2.76    4.20   0 
  10  -3   3   -1.16    4.41   0 
  -2   3 -12  191.31    4.99   0 
  -2   3  -5   69.55    5.14   0 
  -2   4 -14    8.31    4.21   0 
  -2   4 -13  212.37    4.35   0 
  -2   5 -14   38.24    4.49   0 
  -2   5  -3   85.40    5.51   0 
  -2   6 -13   64.53    4.75   0 
  -2   6  -4   65.48    4.67   0 
  -2   7 -11    3.16    4.23   0 
  -2   7 -10    3.89    4.40   0 
  -2   7  -9    7.15    4.33   0 
  -2   7  -8    5.27    4.19   0 
  -2   7  -7   12.66    4.29   0 
  -2   7  -6    5.65    5.28   0 
  -1   0 -12  466.61    6.26   0 
  -1   0 -11    1.29    4.81   0 
  -1   0  -7   -0.71    4.32   0 
  -1   1 -16   62.13    4.64   0 
  -1   1  -2 2783.87   16.98   0 
  -1   2 -18  120.63    4.75   0 
  -1   3 -19    6.78    4.04   0 
  -1   7   1    1.62    7.27   0 
   0  -1 -15    3.70    4.63   0 
   0   2 -22   28.87    4.32   0 
   0  10  -1    2.67    7.43   0 
   1  -2 -16  247.33    5.46   0 
   1  -1 -20   13.44    5.00   0 
   1   0 -22    3.39    4.31   0 
   2  -3 -16  166.00    6.22   0 
   2  -2 -20   53.57    4.78   0 
   2  -1   3  561.52    7.38   0 
   2   4   8    0.21    4.93   0 
   3  -4 -14   65.11    6.82   0 
   3  -3  -1   38.07    5.21   0 
   4  -4 -18   -0.69    5.80   0 
   4   4  10    2.55    4.31   0 
   4   5  10   54.27    4.57   0 
   5   1   9  117.38    5.00   0 
   6  -5  -7   94.11    7.14   0 
   6  -2   5   10.17    4.49   0 
   7  -4   0    9.02    4.76   0 
   7  -3   3   26.42    4.53   0 
   7  -1   7    8.91    4.30   0 
   8  -5  -5   33.07    5.16   0 
   8  -4   0    5.07    4.59   0 
   8  -1   7   -1.17    4.21   0 
   9  -5  -5   16.88    5.21   0 
   9  -3   3   18.03    4.22   0 
   9  -2   5    2.73    4.18   0 
   9   1   9    7.74    4.24   0 
  -2   2 -10   54.56    4.47   0 
  -2   2  -9  216.64    4.99   0 
  -2   2  -8   73.75    4.45   0 
  -2   3 -14   70.45    4.46   0 
  -2   3 -13  107.07    3.95   0 
  -2   3  -4   86.31    5.21   0 
  -2   4 -15   46.70    4.37   0 
  -2   4  -3  174.10    5.56   0 
  -2   6 -14    2.06    4.36   0 
  -2   6  -3  190.69    5.96   0 
  -2   7 -13    1.86    4.20   0 
  -2   7 -12    8.40    4.54   0 
  -1   0 -13   -0.95    4.70   0 
  -1   0  -6   24.89    3.86   0 
  -1   4   2   27.10    8.78   0 
  -1   9  -3   14.59    5.09   0 
   0  -1 -16  160.34    4.83   0 
   0   0 -19   -1.90    4.28   0 
   1  -2 -17    6.73    5.29   0 
   2  -2 -21    4.67    5.25   0 
   2   1   6 1479.66    9.48   0 
   2   2   7  104.52    5.08   0 
   2   9   5    6.13    8.91   0 
   3  -3 -20   11.30    4.90   0 
   3  -2   2  320.75    6.04   0 
   3   0   6 1083.03    8.01   0 
   3   2   8 1131.83    8.55   0 
   3   4   9   30.47    4.85   0 
   3   5   9  138.58    5.88   0 
   4  -4  -4  177.32    6.98   0 
   4   0   7    4.09    4.26   0 
   4   1   8  214.69    5.41   0 
   4   2   9    3.30    3.75   0 
   5  -4  -2   56.38    5.29   0 
   5   3  10   33.46    4.71   0 
   5   6  10   10.09    5.22   0 
   6   1   9   12.35    4.29   0 
   7  -5  -6   16.72    5.60   0 
   7   1   9    1.57    4.24   0 
   8   1   9    5.15    4.21   0 
  10  -3   2   18.61    4.27   0 
  -2   2 -12  110.99    4.44   0 
  -2   2 -11  174.28    4.23   0 
  -2   2  -7  105.48    4.01   0 
  -2   2  -6  162.87    5.01   0 
  -2   3 -15   28.09    4.08   0 
  -2   5 -16   29.33    4.32   0 
  -2   5  -2   52.49    5.08   0 
  -2   6 -15   27.06    3.59   0 
  -2   7 -14    1.16    4.34   0 
  -2   7  -4   20.77    5.79   0 
  -2   8 -11   36.16    5.21   0 
  -2   8 -10    3.20    4.54   0 
  -2   8  -9   62.92    4.70   0 
  -2   8  -8    4.59    4.96   0 
  -1   0  -5    1.00    4.87   0 
  -1   1 -17    5.38    3.66   0 
  -1   2 -19    9.55    4.54   0 
  -1   3 -20   20.91    3.44   0 
  -1   6   2    1.42    8.55   0 
  -1   8   0    4.80    6.89   0 
   0  -1 -17   11.53    5.32   0 
   0   0 -20   45.73    5.10   0 
   1  -1 -21    6.98    4.15   0 
   1   6   6   12.46    7.31   0 
   2  -3 -17   12.74    5.09   0 
   2  -2   0 1669.02   12.92   0 
   2   7   7   12.91    6.52   0 
   3  -4 -15    5.62    5.98   0 
   3   1   7    3.31    4.66   0 
   4  -4 -19   18.05    6.22   0 
   5  -2   4  747.43    7.15   0 
   5  -1   6    5.68    3.34   0 
   5   4  10   57.44    4.78   0 
   5   5  10    1.96    4.58   0 
   6  -5  -8    1.80    6.29   0 
   6  -3   2  287.09    5.90   0 
   6   3  10   95.33    4.72   0 
   6   6  10    2.19    5.05   0 
   7  -4  -1    6.49    5.87   0 
   7   3  10   13.13    4.57   0 
   8  -5  -6    7.49    5.06   0 
   8   3  10    5.19    4.39   0 
   9  -5  -6    2.76    5.09   0 
   9  -4  -1    4.80    4.38   0 
   9  -3   2    3.17    4.36   0 
   9  -1   6   25.85    4.39   0 
  10  -4  -2   -3.54    5.45   0 
  -2   2 -14    5.61    4.19   0 
  -2   2 -13   14.02    3.60   0 
  -2   2  -5   15.19    4.31   0 
  -2   3 -16   50.46    4.31   0 
  -2   3  -3   49.45    4.91   0 
  -2   4 -17    0.45    3.91   0 
  -2   4  -2  150.88    6.10   0 
  -2   5 -17   44.02    4.43   0 
  -2   6 -17    9.97    4.22   0 
  -2   6  -2    7.74    5.66   0 
  -2   7 -15   22.08    4.46   0 
  -2   8 -12   -0.56    4.20   0 
  -2   8  -7   41.86    4.55   0 
  -2   8  -6    7.09    5.07   0 
  -1   0 -15    3.64    4.47   0 
  -1   1 -18   78.21    4.57   0 
  -1   2 -20   23.04    4.30   0 
  -1   3 -21   -1.67    4.12   0 
  -1   9  -2    2.22    5.54   0 
   0  -1  -3    1.17    6.64   0 
   1  -2 -18   40.95    4.55   0 
   3  -3 -21    5.23    4.85   0 
   3  -1   4  474.56    5.79   0 
   3   7   8    1.64    5.75   0 
   4  -3   0   15.77    5.30   0 
   4  -2   3   71.38    4.96   0 
   4  -1   5   -0.38    4.10   0 
   4   3   9  177.22    5.54   0 
   4   8   8    2.23    5.62   0 
   5  -3   1  105.88    5.79   0 
   5   2   9    5.91    4.46   0 
   6  -2   4   -0.96    4.44   0 
   6   4  10   29.87    4.61   0 
   7  -5  -7    2.46    5.55   0 
   7  -3   2    3.95    4.52   0 
   7  -1   6   10.61    4.40   0 
   7   4  10   12.56    4.63   0 
   7   5  10    4.44    4.49   0 
   8  -3   2  118.24    4.98   0 
   8   2   9    9.52    4.20   0 
   9  -2   4   73.18    5.09   0 
   9   0   7    5.03    4.19   0 
  10  -3   1    5.88    4.24   0 
  10  -1   5    2.52    4.17   0 
  -2   2 -15   16.06    4.46   0 
  -2   3 -17   28.10    4.23   0 
  -2   4 -18    6.32    4.22   0 
  -2   5 -18   19.37    4.20   0 
  -2   7  -3  100.51    5.66   0 
  -2   8  -5   38.17    5.09   0 
  -1   0 -16  434.84    5.95   0 
  -1   1 -19    1.27    4.33   0 
   0  -1 -18   77.23    4.70   0 
   0   0 -21    3.53    4.16   0 
   1  -2 -19   85.38    5.15   0 
   1  -1 -22   19.83    4.40   0 
   1   1   4 1201.91   10.99   0 
   1   2   5   24.44    5.39   0 
   1   4   6  299.35    8.40   0 
   2  -3 -18  124.40    5.63   0 
   2  -2 -22   13.36    4.43   0 
   2   3   7   21.95    5.29   0 
   2   8   6    4.35    7.16   0 
   3  -4 -16   65.16    6.75   0 
   3   3   8    9.45    5.27   0 
   3   8   7   -0.77    6.40   0 
   3   9   6   -0.99    6.89   0 
   4   4   9  185.43    5.91   0 
   4   6   9   64.23    5.44   0 
   5  -4  -3  146.88    5.96   0 
   5   1   8   35.15    3.64   0 
   5   7   9   24.75    5.39   0 
   6  -5  -9   82.61    7.68   0 
   6  -4  -2  160.01    5.33   0 
   6   0   7   -3.02    4.35   0 
   7  -2   4  171.99    5.19   0 
   7   0   7    0.44    3.95   0 
   7   2   9    1.02    4.16   0 
   8  -5  -7   22.54    5.15   0 
   8  -2   4    5.97    3.44   0 
   8   0   7   -2.11    4.18   0 
   8   1   8   29.90    4.40   0 
   9  -5  -8    8.23    5.80   0 
   9  -4  -2   19.16    4.40   0 
   9  -3   1   23.33    4.47   0 
  10  -4  -3   13.49    5.17   0 
  -2   1 -12  114.81    4.56   0 
  -2   1 -11   31.77    4.50   0 
  -2   1 -10  857.94    7.01   0 
  -2   1  -9   -4.61    4.15   0 
  -2   1  -8  772.94    6.85   0 
  -2   2 -16   34.31    4.23   0 
  -2   2  -4  347.28    5.99   0 
  -2   3 -18   36.17    4.24   0 
  -2   4 -19    1.76    4.00   0 
  -2   8  -4    3.69    5.87   0 
  -2   9  -9    9.47    5.28   0 
  -1   0 -17    7.02    4.70   0 
  -1   0  -4  221.56    6.50   0 
  -1   2 -21    7.53    3.57   0 
   0  -2 -12   14.41    4.24   0 
   0  -2 -11   98.24    4.78   0 
   0  -2 -10   53.81    4.72   0 
   0  -2  -9    3.66    5.23   0 
   0  -1 -19    4.81    4.41   0 
   0  10   0    1.10    8.98   0 
   1   5   6   42.53    7.24   0 
   2  -3 -19   10.13    5.15   0 
   2   0   4 1555.35   10.42   0 
   3  -3  -2  378.95    7.58   0 
   3   6   8   46.21    6.16   0 
   4  -4 -20    0.19    5.61   0 
   4  -4  -5    3.73    6.07   0 
   4   0   6   88.58    4.59   0 
   4   2   8    6.45    4.50   0 
   4   5   9   30.22    4.49   0 
   5  -2   3   33.20    4.93   0 
   5  -1   5   12.43    4.49   0 
   5   3   9  103.05    4.97   0 
   6  -5 -10   -0.36    8.05   0 
   6  -3   1   17.76    4.84   0 
   7  -4  -2  122.13    5.47   0 
   8  -5  -8    0.90    5.51   0 
   8  -4  -2   16.20    4.54   0 
   8  -3   1    5.26    4.46   0 
   8   3   9   10.86    4.15   0 
   9  -2   3    5.26    4.51   0 
   9  -1   5    5.78    3.43   0 
   9   2   8   10.25    4.16   0 
  -3   5 -11   93.24    4.67   0 
  -3   5 -10   -0.52    4.45   0 
  -2   1 -14  190.13    4.98   0 
  -2   1 -13   17.37    3.32   0 
  -2   1  -7  187.06    5.02   0 
  -2   2 -17    4.09    4.16   0 
  -2   3 -19   22.76    4.25   0 
  -2   3  -2   22.81    5.39   0 
  -2   5  -1  102.41    5.68   0 
  -2   7  -2    4.26    5.21   0 
  -2   9  -8    0.26    4.18   0 
  -2   9  -7    4.89    5.18   0 
  -1   1 -20  108.71    4.12   0 
  -1   9  -1    3.14    6.30   0 
   0  -2 -14   30.25    5.14   0 
   0  -2 -13  111.30    5.09   0 
   0  -2  -8  132.75    5.78   0 
   0   0 -22   47.46    4.42   0 
   0   6   4   -0.74   11.85   0 
   1  -3 -13   63.95    5.98   0 
   1  -3 -12   71.08    5.19   0 
   1  -3 -11  124.99    6.24   0 
   1  -3 -10  176.78    6.76   0 
   1  -2 -20   16.13    4.46   0 
   2  -1   2  936.18    9.40   0 
   3  -4 -17    9.93    5.66   0 
   3  -2   1    8.84    5.46   0 
   3   2   7   31.83    4.86   0 
   3   4   8   89.49    5.69   0 
   3   5   8    7.40    5.45   0 
   4   1   7   35.45    4.11   0 
   5   4   9   42.54    4.57   0 
   5   6   9    7.22    4.36   0 
   6  -1   5    7.26    4.05   0 
   6   3   9   19.48    4.41   0 
   7  -3   1  195.25    5.20   0 
   7   3   9   12.22    3.62   0 
   8  -1   5   11.06    3.65   0 
   8   4   9   11.31    4.39   0 
   9  -5  -9    3.95    5.37   0 
   9  -4  -3   20.67    4.57   0 
  10  -4  -4    8.78    5.15   0 
  10  -2   2    7.95    4.29   0 
  -3   4 -13   29.00    4.44   0 
  -3   4 -12  131.10    4.84   0 
  -3   4 -10  214.22    4.54   0 
  -3   4  -9   36.02    4.76   0 
  -3   5 -14    8.18    4.37   0 
  -3   5 -13   59.41    4.65   0 
  -3   5 -12   -1.10    3.35   0 
  -3   5  -8    6.99    4.56   0 
  -3   5  -7  139.86    5.34   0 
  -3   6 -13   19.14    4.35   0 
  -3   6 -12   15.66    4.11   0 
  -3   6 -11   -1.32    4.19   0 
  -3   6 -10   27.87    4.51   0 
  -3   6  -9   18.19    4.61   0 
  -2   1  -6 1516.90    9.02   0 
  -2   2 -18   89.09    4.65   0 
  -2   4  -1    1.22    5.28   0 
  -2   6  -1  125.59    5.84   0 
  -2   9  -6   10.44    5.14   0 
  -1  -1 -14   27.79    5.42   0 
  -1  -1 -13   23.49    4.60   0 
  -1  -1 -12    6.28    4.54   0 
  -1  -1 -11   -2.39    4.80   0 
  -1  -1 -10    6.06    4.60   0 
  -1  -1  -9    5.76    4.79   0 
  -1   0 -19    3.04    4.23   0 
  -1   1 -21    0.29    4.26   0 
  -1   1  -1    1.13    6.09   0 
   0  -2 -15   35.96    4.59   0 
   0  -1 -20   24.34    4.52   0 
   1  -3 -14   -1.03    5.23   0 
   1  -3  -9  323.77    8.46   0 
   2  -3 -20   23.86    5.39   0 
   2   1   5   16.53    4.70   0 
   2   2   6  146.80    5.34   0 
   2   4   7  354.80    6.62   0 
   2   5   7   47.72    6.19   0 
   3   1   6   30.17    4.83   0 
   4  -3  -1  159.15    6.01   0 
   4  -2   2  209.63    5.52   0 
   4  -1   4  364.96    5.74   0 
   4   3   8  334.90    6.71   0 
   4   7   8    6.91    5.14   0 
   5  -4  -4   24.81    5.71   0 
   5  -3   0  356.75    6.19   0 
   5   1   7    1.73    4.14   0 
   5   2   8  174.89    5.24   0 
   6  -5 -11   56.50    8.70   0 
   6  -4  -3  173.94    6.17   0 
   6  -2   3  346.49    5.80   0 
   6   2   8   30.16    4.43   0 
   6   4   9   25.33    4.49   0 
   6   5   9   35.36    4.58   0 
   6   6   9   24.39    4.56   0 
   7  -5  -9    3.36    6.11   0 
   7  -2   3    9.89    4.50   0 
   7   4   9    1.90    4.25   0 
   8  -5  -9   16.19    5.83   0 
   8  -4  -3    2.52    5.11   0 
   8   1   7    3.06    4.27   0 
   9  -3   0    8.84    4.25   0 
   9  -1   4   13.15    4.40   0 
  10   0   5    2.80    3.25   0 
  -3   3 -13   66.18    4.73   0 
  -3   3 -11   19.87    4.38   0 
  -3   3 -10   57.80    4.35   0 
  -3   3  -9  189.15    5.08   0 
  -3   4 -15   82.75    4.51   0 
  -3   4 -14   57.17    3.82   0 
  -3   4  -7   31.37    4.67   0 
  -3   5 -15   12.52    4.40   0 
  -3   5  -6   50.17    4.93   0 
  -3   6 -15   40.38    4.42   0 
  -3   6  -7    7.98    4.45   0 
  -3   7 -13   27.91    4.51   0 
  -3   7 -12    5.08    4.43   0 
  -3   7 -11  105.53    4.75   0 
  -3   7 -10   -0.72    4.40   0 
  -3   7  -9   22.68    4.57   0 
  -3   7  -8    0.53    5.21   0 
  -2   1 -16  165.33    4.32   0 
  -2   2 -19    5.27    4.05   0 
  -2   2  -3   16.39    4.82   0 
  -2   9  -5    7.52    5.17   0 
  -1  -1 -15   -2.79    4.54   0 
  -1  -1  -8  225.61    5.77   0 
  -1   1 -22   69.04    4.73   0 
  -1   8   1  148.79   10.18   0 
  -1  10  -3   16.41    5.94   0 
   0  -2 -16  151.02    5.43   0 
   0  -2  -7   49.07    5.84   0 
   0  -1 -21    8.04    4.64   0 
   1  -3 -15   46.35    5.55   0 
   1  -2 -21   -1.40    4.38   0 
   1  -1   0  960.11   14.12   0 
   3  -4 -18   60.69    6.02   0 
   3  -1   3  312.19    6.12   0 
   6   1   7    0.26    4.31   0 
   7   1   7    5.48    4.42   0 
   9  -4  -4    2.66    5.14   0 
   9  -2   2  103.28    4.75   0 
   9   0   5    2.25    4.18   0 
  10  -2   1    9.68    4.31   0 
  10  -1   3    2.73    4.33   0 
  -3   3 -15   25.27    4.36   0 
  -3   3 -14   89.04    4.52   0 
  -3   3  -8    6.92    4.60   0 
  -3   4 -16   45.28    4.47   0 
  -3   4  -6  519.54    6.50   0 
  -3   5 -16   17.10    3.59   0 
  -3   5  -5  240.93    6.37   0 
  -3   7 -14    0.08    4.52   0 
  -3   7  -7   51.96    4.93   0 
  -2   1 -18   50.38    4.67   0 
  -2   1  -5   17.91    4.48   0 
  -2   2 -20   62.47    4.80   0 
  -2   7  -1  216.08    7.70   0 
  -1  -1 -16   55.69    4.64   0 
  -1  -1  -7  495.30    7.57   0 
  -1   0 -20   19.90    4.24   0 
  -1   7   2   16.28   10.12   0 
   0  -2 -17    9.67    4.71   0 
   1  -3 -16   20.36    5.67   0 
   1  -2 -22   24.97    5.24   0 
   1   0   2  461.15    9.20   0 
   1   7   5   93.92    8.78   0 
   3   7   7   42.98    5.78   0 
   4   0   5    0.75    4.12   0 
   4   2   7  426.43    6.37   0 
   4   4   8   31.55    4.60   0 
   4   6   8    6.03    5.13   0 
   4   8   7   33.26    5.79   0 
   5  -2   2  497.24    6.60   0 
   5  -1   4    9.09    4.46   0 
   5   3   8    2.69    4.46   0 
   5   7   8    3.57    5.36   0 
   6  -5 -12   19.07    8.54   0 
   6   7   8   14.13    5.22   0 
   7  -3   0   11.97    4.38   0 
   7  -1   4    7.38    4.63   0 
   8  -5 -10   -2.61    5.84   0 
   8  -4  -4    1.75    5.25   0 
   8  -2   2    8.70    4.46   0 
   8   4   8   10.93    4.44   0 
   9  -3  -1   17.75    4.41   0 
   9   1   6   23.14    3.59   0 
  10  -3  -2   35.31    4.58   0 
  10   0   4   12.86    4.23   0 
  -3   2 -10  316.97    5.31   0 
  -3   3 -16   55.65    4.46   0 
  -3   3  -7  146.53    4.54   0 
  -3   4 -17   11.40    3.35   0 
  -3   4  -5   16.59    4.78   0 
  -3   6  -5   48.63    4.73   0 
  -3   7  -6    3.59    5.16   0 
  -3   8 -11    0.58    4.37   0 
  -3   8 -10    1.23    4.37   0 
  -3   8  -9    6.22    5.15   0 
  -2   0 -13   -1.26    4.60   0 
  -2   0 -11    3.23    4.61   0 
  -2   0 -10    1.87    4.66   0 
  -2   0  -9    1.21    4.38   0 
  -2   1 -19    7.19    4.40   0 
  -2   2 -21    6.03    4.23   0 
  -2   5   0   29.87    6.56   0 
  -2   8  -2    7.30    5.85   0 
  -2   9  -4    6.08    5.64   0 
  -1  -1 -17   12.51    4.68   0 
  -1   0 -21    4.10    4.22   0 
  -1   0  -3   -0.63    4.44   0 
   0  -2 -18   27.43    4.49   0 
   0  -1 -22    5.72    4.41   0 
   1  -3 -17   42.60    5.54   0 
   1  -3  -8   17.19    6.56   0 
   2  -2  -1   27.12    5.86   0 
   3  -4 -19   15.18    5.76   0 
   3   3   7  144.97    5.01   0 
   4  -4  -6  203.70    8.79   0 
   4   5   8   96.25    4.94   0 
   5   4   8  148.29    5.91   0 
   5   6   8   11.59    5.22   0 
   6  -4  -4  147.69    5.99   0 
   6  -2   2    8.76    4.51   0 
   7  -5 -11    2.23    6.59   0 
   7  -4  -4   40.46    5.65   0 
   7  -2   2   85.38    4.88   0 
   7   4   8   35.71    4.66   0 
   7   6   8    6.22    4.72   0 
   8   0   5   -1.78    4.04   0 
   8   2   7    2.32    3.54   0 
   9  -4  -5    7.24    5.29   0 
   9  -2   1   -2.59    4.29   0 
   9  -1   3    3.50    4.44   0 
   9   3   7    0.57    4.28   0 
  10   1   5    3.00    3.31   0 
  -3   2 -15   13.81    4.16   0 
  -3   2 -14  198.54    4.86   0 
  -3   2 -13   10.31    3.43   0 
  -3   2  -9   12.85    4.25   0 
  -3   3 -17    2.68    3.83   0 
  -3   3  -6  240.43    5.60   0 
  -3   4 -18    5.41    3.38   0 
  -3   5  -4  104.02    5.69   0 
  -3   8  -8    1.44    4.52   0 
  -3   8  -7    5.60    5.16   0 
  -2   0 -16   29.98    4.42   0 
  -2   0 -15   -1.91    4.62   0 
  -2   0  -8    5.25    4.62   0 
  -2   6   0    6.91    6.33   0 
  -1  -1 -18   80.86    4.92   0 
  -1   0 -22   12.62    4.23   0 
  -1   9   0    3.97    8.61   0 
   0  -2 -19    2.24    4.40   0 
   2   7   6    5.35    5.73   0 
   3  -4 -20   15.21    5.71   0 
   3  -3  -3  118.54    7.22   0 
   3   0   4 2263.20   11.30   0 
   4  -2   1   10.88    4.69   0 
   5  -4  -5  237.81    6.92   0 
   5  -3  -1    5.53    4.51   0 
   5   2   7   54.97    4.78   0 
   5   5   8    8.42    4.38   0 
   5   8   7    1.58    5.36   0 
   6  -5 -13   16.81    9.44   0 
   6   0   5    5.20    4.19   0 
   6   4   8    4.59    4.47   0 
   6   6   8   -1.40    4.29   0 
   7   0   5    4.26    4.04   0 
   7   1   6    8.27    4.39   0 
   7   5   8    1.18    4.42   0 
   8  -5 -12    2.19    6.75   0 
   8  -3  -1    2.01    4.39   0 
   8   3   7    8.94    4.40   0 
   9  -3  -2    0.72    5.10   0 
  10  -3  -3    3.80    5.01   0 
  -3   2 -16   63.88    4.42   0 
  -3   2  -8 1119.06    7.19   0 
  -3   3 -18   35.48    3.61   0 
  -3   3  -5  143.02    5.23   0 
  -3   4  -4  222.00    5.70   0 
  -2   0 -17    2.38    4.37   0 
  -2   1  -4 1034.22    8.74   0 
  -2   2  -2  655.65    8.19   0 
  -2   4   0  292.49    7.81   0 
  -2   9  -3   42.42    6.80   0 
  -1  -1  -6  942.87    9.04   0 
   0  -2 -20   42.82    5.19   0 
   0  -2  -6  282.69    7.25   0 
   1  -3 -19   29.22    5.30   0 
   2  -4 -14   15.49    6.12   0 
   2  -4 -13  111.92    7.28   0 
   2   0   3    0.22    4.82   0 
   3  -2   0  274.40    6.90   0 
   3   2   6  761.82    7.56   0 
   3   4   7   27.80    4.70   0 
   3   6   7    7.05    5.02   0 
   3   8   6    1.84    5.69   0 
   4  -3  -2    2.80    5.17   0 
   4  -1   3  108.05    4.05   0 
   4   7   7   -2.28    5.44   0 
   5   1   6    0.17    3.45   0 
   6  -5 -15   13.70   10.91   0 
   6  -5 -14    1.27   10.02   0 
   6  -3  -1    1.16    4.75   0 
   7  -5 -12   20.65    7.16   0 
   7  -3  -1   20.30    4.29   0 
   8  -4  -5   16.99    5.22   0 
   8  -2   1    8.69    4.47   0 
   8  -1   3   -0.19    3.40   0 
   9  -4  -6   23.65    5.39   0 
   9   1   5   -1.32    3.19   0 
  -3   2 -18    7.27    4.04   0 
  -3   2  -7   30.71    3.69   0 
  -3   5  -3  148.99    5.88   0 
  -3   7  -4    4.41    5.62   0 
  -3   8  -6    8.39    5.33   0 
  -2   0 -18   89.38    4.83   0 
  -2   0  -7    0.60    3.68   0 
  -2   1 -21    6.35    3.51   0 
  -1  -1 -20  124.38    4.96   0 
   2  -4 -16   -0.48    5.60   0 
   2  -4 -15   95.09    6.39   0 
   2  -4 -12   40.51    7.70   0 
   3  -1   2 1999.31   11.39   0 
   3   1   5   -0.14    3.70   0 
   3   9   5    3.14    5.79   0 
   5  -2   1  203.43    5.74   0 
   5  -1   3    0.92    4.45   0 
   5   7   7   94.68    6.14   0 
   6  -4  -5   38.44    5.50   0 
   6  -1   3   15.53    4.34   0 
   6   3   7    5.40    4.53   0 
   6   7   7    1.71    5.21   0 
   7  -5 -13   10.18    7.42   0 
   7  -4  -5  120.49    6.53   0 
   7  -2   1    7.46    4.45   0 
   7  -1   3    2.81    4.23   0 
   8  -5 -13   10.89    6.49   0 
   8  -3  -2   90.27    4.93   0 
   8   5   7    1.55    4.32   0 
   9  -2   0   66.28    4.60   0 
   9  -1   2    3.21    3.56   0 
   9   3   6    9.53    4.34   0 
  10  -2  -1    5.30    4.22   0 
  10  -1   1    0.68    4.43   0 
  -4   5 -13   56.56    4.75   0 
  -4   5 -12   42.59    4.43   0 
  -4   5 -11   32.03    4.59   0 
  -4   5 -10   63.77    4.80   0 
  -4   6 -11   41.07    4.51   0 
  -3   1 -15   10.38    4.53   0 
  -3   1 -14   75.67    3.89   0 
  -3   1 -13   74.18    3.80   0 
  -3   1 -12  159.10    4.19   0 
  -3   1 -11    2.66    3.45   0 
  -3   1 -10   46.93    4.46   0 
  -3   2 -19    9.05    4.36   0 
  -3   2  -6  796.82    7.19   0 
  -3   3  -4  640.73    7.15   0 
  -3   6  -3   29.80    5.53   0 
  -3   8  -5    4.26    5.43   0 
  -2   0 -19   -0.27    4.60   0 
  -2   7   0    7.81    7.09   0 
  -2   8  -1   14.33    6.54   0 
  -1   2   1  836.27   15.41   0 
   1   1   3   16.93    5.62   0 
   1   8   4    2.37    9.12   0 
   1   9   3   16.26   10.22   0 
   2  -4 -17   26.14    5.89   0 
   2  -4 -11  133.63    9.49   0 
   2  -1   1   26.96    5.50   0 
   2   1   4 1049.03    9.23   0 
   2   2   5   13.84    4.72   0 
   2   6   6   21.03    6.20   0 
   2   8   5   34.83    7.19   0 
   4   0   4   62.33    4.49   0 
   4   2   6    4.42    4.77   0 
   4   4   7  176.04    5.53   0 
   4   6   7  110.23    6.11   0 
   6  -2   1   57.23    4.95   0 
   7   4   7   26.45    4.37   0 
   7   5   7    5.19    4.33   0 
   7   6   7    8.93    4.48   0 
   8  -4  -6   78.95    5.68   0 
   9  -4  -7   -1.11    5.47   0 
   9  -3  -3   62.91    4.86   0 
   9   2   5    7.57    4.00   0 
  10  -3  -4    5.54    4.40   0 
  10   0   2    5.14    4.39   0 
  10   2   4   16.49    4.21   0 
  -4   4 -15    7.05    4.17   0 
  -4   4 -13   11.18    3.66   0 
  -4   4 -12   30.52    3.67   0 
  -4   4 -11   66.86    3.86   0 
  -4   4 -10    6.10    4.57   0 
  -4   4  -9  201.16    5.26   0 
  -4   5 -16    5.59    4.30   0 
  -4   5 -15    8.15    3.68   0 
  -4   5  -9   38.52    4.66   0 
  -4   6 -14    4.96    3.52   0 
  -4   6 -10    7.84    4.39   0 
  -3   1 -17    4.76    4.50   0 
  -3   1 -16  137.12    4.12   0 
  -3   1  -9    9.88    3.60   0 
  -3   2 -20    4.83    4.20   0 
  -3   4  -3   58.02    4.90   0 
  -2  -1 -14  197.64    5.29   0 
  -2  -1 -13   21.64    4.77   0 
  -2   0  -6  249.96    5.01   0 
  -1  -2 -16  130.36    5.08   0 
  -1  -2 -15  211.09    5.37   0 
  -1  -2 -14  183.09    5.27   0 
  -1  -2 -13   26.76    4.93   0 
  -1  -2 -12  600.91    6.91   0 
  -1  -2 -11   39.05    5.67   0 
  -1  -1  -5   74.31    5.35   0 
   0  -2 -22   53.98    4.84   0 
   1  -3 -21    6.56    5.08   0 
   1  -3  -7   38.72    7.72   0 
   1   6   5   20.87    7.06   0 
   2  -4 -18   31.17    5.93   0 
   2   9   4    4.75    7.56   0 
   4   1   5    0.06    4.39   0 
   4   5   7   23.86    4.64   0 
   4   8   6    3.11    5.00   0 
   5  -4  -6    9.86    5.73   0 
   5  -3  -2  312.23    6.26   0 
   5   2   6  128.00    5.03   0 
   5   4   7    2.98    4.44   0 
   5   5   7  155.35    5.82   0 
   5   6   7    7.89    4.44   0 
   5   8   6    4.53    5.13   0 
   6  -3  -2   99.86    5.86   0 
   6   2   6    4.52    4.34   0 
   6   5   7   10.65    4.47   0 
   7  -5 -14    6.44    7.28   0 
   7  -3  -2   76.99    4.91   0 
  10  -2  -2    8.65    4.41   0 
  -4   3 -15   37.69    4.61   0 
  -4   3 -14   91.65    4.70   0 
  -4   3 -13   16.56    4.27   0 
  -4   3 -12   92.17    4.93   0 
  -4   3 -10  254.20    5.51   0 
  -4   4 -17   -1.22    4.23   0 
  -4   4 -16   31.06    3.64   0 
  -4   5  -8  110.20    4.94   0 
  -4   6  -8    3.53    4.50   0 
  -4   7 -10   -0.20    4.64   0 
  -4   7  -9    3.37    4.35   0 
  -3   1 -18  165.19    5.13   0 
  -3   1  -8   36.05    3.51   0 
  -3   2  -5  145.63    5.60   0 
  -3   7  -3   96.39    6.04   0 
  -3   8  -4    1.99    5.31   0 
  -2  -1 -16  184.51    5.34   0 
  -2  -1 -15    3.14    4.62   0 
  -2  -1 -12  104.38    4.11   0 
  -2  -1 -11   33.06    4.98   0 
  -2   0 -21   -3.14    4.41   0 
  -2   1  -3  511.78    6.76   0 
  -2   9  -2   -3.00    6.71   0 
  -1  -2 -18  144.70    5.82   0 
  -1  -2 -10  529.65    7.38   0 
   0  -3 -16  107.61    6.09   0 
   0  -3 -15    3.87    5.23   0 
   0  -3 -14  325.42    6.92   0 
   0  -3 -13   32.82    5.17   0 
   0  -3 -12  460.35    7.74   0 
   2  -4 -19    6.78    6.19   0 
   3   3   6  224.68    5.86   0 
   3   7   6    0.90    5.14   0 
   4  -4  -7   -0.70    7.31   0 
   4  -2   0  237.07    5.79   0 
   4  -1   2  459.18    6.88   0 
   4   9   5    2.28    5.75   0 
   5   1   5   18.38    3.71   0 
   6  -4  -6  121.85    5.88   0 
   6   1   5    0.78    3.46   0 
   7  -4  -6    1.96    5.47   0 
   7  -2   0  243.85    5.81   0 
   7   3   6    4.60    4.32   0 
   8  -3  -3   40.23    4.62   0 
   8   0   3    7.39    4.25   0 
   9  -4  -8    1.23    5.17   0 
  10  -3  -5   -0.15    4.37   0 
  -4   3 -17   39.85    4.32   0 
  -4   3 -16   41.18    3.51   0 
  -4   3  -9  185.05    5.13   0 
  -4   5  -7   23.27    4.64   0 
  -4   6  -7  126.74    4.94   0 
  -4   7  -8    5.70    4.49   0 
  -3   1 -20   49.47    4.57   0 
  -3   1 -19    5.13    3.44   0 
  -3   1  -7    1.29    4.24   0 
  -3   3  -3   33.45    4.87   0 
  -3   5  -2   36.99    4.47   0 
  -3   6  -2   14.79    5.38   0 
  -2  -1 -10  854.00    7.58   0 
  -2   0  -5   -1.29    4.53   0 
  -1  -2 -19   14.69    5.10   0 
  -1  -2  -9   58.82    5.72   0 
  -1   0  -2  454.16    9.14   0 
  -1  10  -1   11.19    8.11   0 
   0  -3 -17   46.14    5.29   0 
   0  -3 -11   12.20    5.54   0 
   2  -4 -10  114.32   11.62   0 
   3   0   3    0.70    4.31   0 
   4  -3  -3  263.96    6.93   0 
   4   3   6  270.91    5.94   0 
   5  -2   0  429.15    6.61   0 
   5  -1   2   22.42    4.89   0 
   6  -2   0  343.65    5.98   0 
   6  -1   2  599.58    6.93   0 
   6   3   6  191.39    5.56   0 
   7  -5 -15    4.99    7.61   0 
   8  -4  -7    9.26    4.48   0 
   9   1   3    3.61    4.22   0 
  10   0   1   -1.55    4.30   0 
  10   2   3   10.15    4.09   0 
  -4   2 -16  130.13    4.94   0 
  -4   2 -15    4.69    4.36   0 
  -4   2 -14  175.25    4.83   0 
  -4   2 -13   12.01    4.37   0 
  -4   2 -12   72.05    4.54   0 
  -4   2 -11   14.01    4.19   0 
  -4   3 -18    6.42    4.11   0 
  -4   5  -6   13.71    4.63   0 
  -4   6  -6   14.98    4.59   0 
  -4   7  -7   -1.51    4.60   0 
  -4   8  -9   65.66    4.99   0 
  -3   0 -16   44.54    4.60   0 
  -3   0 -15    6.20    4.44   0 
  -3   0 -14   58.83    4.72   0 
  -3   0 -13    2.16    4.51   0 
  -3   0 -12  488.81    6.22   0 
  -3   0 -11   -7.17    4.33   0 
  -3   4  -2  168.08    5.46   0 
  -3   9  -5    4.35    5.08   0 
  -2  -1 -19    9.78    4.47   0 
  -2  -1  -9   -1.89    4.73   0 
  -2   2  -1  523.60    7.96   0 
  -2   3   0  363.72    7.64   0 
  -2   5   1  526.68    9.98   0 
  -1  -2 -20   30.60    5.44   0 
   0  -3 -18   32.22    5.48   0 
   0  -2  -5  456.58    9.57   0 
   3   2   5  136.14    5.54   0 
   3   6   6   84.01    5.95   0 
   4   7   6    4.36    5.26   0 
   5   7   6    6.77    5.43   0 
   6   7   6    7.88    4.62   0 
   7  -4  -7   90.86    5.89   0 
   7  -3  -3   98.75    4.88   0 
   7   0   3    2.83    3.51   0 
   7   1   4    3.61    4.23   0 
   7   2   5    0.06    3.63   0 
   7   5   6    1.10    4.43   0 
   7   6   6    2.31    4.52   0 
   8  -2  -1  135.73    4.56   0 
   8   3   5   11.49    4.56   0 
   9  -4  -9   18.39    5.38   0 
  10  -3  -6   18.21    4.54   0 
  10  -2  -3    0.94    3.47   0 
  -4   2 -18   47.53    4.57   0 
  -4   2 -17    2.71    4.15   0 
  -4   2 -10   17.55    4.29   0 
  -4   2  -9    4.36    4.23   0 
  -4   3  -7   25.10    4.65   0 
  -4   4  -6    8.35    4.94   0 
  -4   7  -6    6.01    5.13   0 
  -4   8  -8    4.74    4.57   0 
  -3   0 -18   39.40    4.75   0 
  -3   1  -6   31.69    4.55   0 
  -3   7  -2   30.54    5.21   0 
  -2  -1 -20    8.82    4.48   0 
  -2   6   1    3.69    7.20   0 
   0  -3 -19    4.54    5.19   0 
   0  -3 -10  325.38    7.49   0 
   2   3   5   66.75    5.76   0 
   3  -3  -4  926.65   12.27   0 
   3  -2  -1  345.47    6.95   0 
   3   1   4  480.76    6.01   0 
   3   5   6   43.96    5.73   0 
   3   8   5    6.71    5.73   0 
   4   0   3    2.37    4.39   0 
   4   4   6    8.30    5.50   0 
   5  -3  -3  108.86    5.75   0 
   5   0   3   -3.09    4.22   0 
   6  -3  -3   35.59    4.93   0 
   6   0   3   -0.42    4.27   0 
   6   4   6   -0.59    4.47   0 
   6   5   6   35.19    4.63   0 
   6   6   6    3.52    4.51   0 
   7  -2  -1   13.57    4.78   0 
   8  -4  -8   55.47    5.33   0 
   8  -3  -4  162.89    5.45   0 
   8   0   2   14.66    4.36   0 
   8   2   4   11.06    4.21   0 
   8   6   5    2.20    4.57   0 
   9  -3  -5    5.56    4.49   0 
   9   3   4    4.57    3.63   0 
  -4   2 -19    2.97    4.31   0 
  -4   4  -5   13.95    4.69   0 
  -4   6  -5  295.63    6.53   0 
  -4   8  -7   40.65    5.54   0 
  -3   0 -19    1.96    4.41   0 
  -3   0  -9   -7.84    4.62   0 
  -3   9  -4    5.98    6.02   0 
  -2  -1 -21   10.11    4.51   0 
  -2   8   0    4.78    7.78   0 
  -1  -2  -8  736.14    7.98   0 
  -1   1   0 1055.11   15.32   0 
   0  -3 -20   21.71    4.74   0 
   2  -2  -2  789.21   11.99   0 
   2   0   2 1365.32   11.38   0 
   2   7   5   14.33    5.63   0 
   3  -1   1  167.23    5.78   0 
   3   9   4    9.53    6.45   0 
   4   6   6    8.21    5.05   0 
   4   8   5   62.66    6.24   0 
   5   1   4   12.96    4.44   0 
   5   2   5    2.92    3.65   0 
   5   5   6    5.32    4.63   0 
   5   6   6   21.31    4.70   0 
   5   8   5    4.20    5.27   0 
   6  -4  -7    6.47    5.09   0 
   7   7   5   16.20    4.72   0 
   8  -2  -2    3.30    4.65   0 
   8  -1   0  141.82    5.33   0 
   9  -4 -10    1.86    5.34   0 
   9   1   2   -1.69    4.38   0 
   9   2   3    0.96    4.30   0 
  10  -3  -7   12.61    4.57   0 
  10   1   1    1.03    4.40   0 
  10   2   2    6.07    3.46   0 
  -5   5 -15   23.32    4.38   0 
  -5   5 -11    9.00    4.62   0 
  -5   6 -12    1.75    4.49   0 
  -4   1 -16   13.23    4.58   0 
  -4   1 -15    6.64    4.39   0 
  -4   1 -14   98.91    4.74   0 
  -4   1 -13   10.13    4.81   0 
  -4   2  -8    8.12    3.59   0 
  -4   7  -5    5.13    4.58   0 
  -3   0 -20    4.82    4.30   0 
  -3   0  -8 1362.13    8.54   0 
  -3   1  -5    0.59    4.37   0 
  -3   3  -2  513.32    6.97   0 
  -3   5  -1   57.86    5.29   0 
  -2  -1  -7  195.04    5.76   0 
  -2   1  -2 1036.61    9.84   0 
  -2   4   1   33.88    6.89   0 
  -2   9  -1   45.86    7.77   0 
  -1  -1  -4 1227.35   11.23   0 
   0  -3 -21   22.04    4.83   0 
   1  -4 -16   44.08    5.93   0 
   1  -4 -15   18.57    5.70   0 
   4  -2  -1   15.64    5.42   0 
   6  -2  -1    5.97    4.63   0 
   6  -1   1    0.57    4.59   0 
   7  -4  -8    2.81    5.19   0 
   7   6   5    1.06    4.77   0 
   8  -4  -9    1.84    5.37   0 
   8  -3  -5   14.13    5.52   0 
   9  -3  -6   27.72    4.78   0 
   9  -1  -1    2.91    4.29   0 
  -5   4 -16   10.83    4.25   0 
  -5   4 -15   34.29    3.87   0 
  -5   4 -14    6.42    3.57   0 
  -5   4 -13   11.81    3.73   0 
  -5   5 -10   11.23    4.68   0 
  -5   7 -11   26.50    4.58   0 
  -4   1 -18    8.68    4.49   0 
  -4   1 -17   19.19    3.59   0 
  -4   1 -11    3.48    3.52   0 
  -4   2  -7  467.29    5.99   0 
  -4   3  -5    1.84    4.96   0 
  -4   5  -4  134.69    5.33   0 
  -4   6  -4   25.72    4.86   0 
  -4   8  -6    1.36    4.98   0 
  -3   2  -3    1.18    4.65   0 
  -3   4  -1  436.10    7.54   0 
  -3   8  -2    2.10    6.44   0 
  -2  -2 -16   36.71    4.58   0 
  -2  -2 -15   16.88    4.64   0 
  -2  -2 -14    2.28    4.40   0 
  -2   7   1  254.42   10.43   0 
   0  -3  -9   10.99    5.54   0 
   1  -4 -18   38.85    5.83   0 
   1  -4 -17    3.64    5.05   0 
   1  -4 -14  153.05    6.80   0 
   1   3   4   91.98    6.45   0 
   2   2   4  352.23    6.79   0 
   3   3   5  138.17    5.52   0 
   4  -4  -8  119.40    9.18   0 
   4  -1   1   29.53    4.04   0 
   4   9   4    4.69    5.03   0 
   5  -2  -1   42.70    5.07   0 
   5  -1   1   -0.78    4.70   0 
   6  -3  -4    2.32    5.35   0 
   6   7   5    2.60    4.48   0 
   7   1   3   -1.09    3.67   0 
   8   0   1    4.78    4.36   0 
   8   2   3   11.82    4.23   0 
   8   4   4   -3.16    4.54   0 
   9  -4 -11   16.94    5.65   0 
  10  -3  -8   15.28    4.89   0 
  10   0  -1    0.52    4.37   0 
  -5   3 -17    0.65    4.09   0 
  -5   3 -16   64.60    4.58   0 
  -5   3 -15    9.48    3.50   0 
  -5   3 -14   43.76    3.68   0 
  -5   3 -12   45.57    4.57   0 
  -5   4  -9   61.92    4.71   0 
  -5   5  -9   79.94    4.02   0 
  -5   5  -8    8.62    4.52   0 
  -5   6  -9   10.00    4.35   0 
  -4   1 -19    3.90    3.73   0 
  -4   1  -9    7.19    4.47   0 
  -4   4  -4    8.88    4.72   0 
  -4   7  -4    4.63    5.24   0 
  -3  -1 -17   -1.39    4.39   0 
  -3  -1 -15    7.88    3.73   0 
  -3  -1 -14   83.07    4.99   0 
  -3   0  -7    0.40    4.33   0 
  -3   7  -1   90.34    6.35   0 
  -3   9  -3   40.42    6.95   0 
  -2  -2 -17    5.17    4.64   0 
  -2  -2 -13   19.27    5.00   0 
  -2  -2 -12  113.51    5.34   0 
  -1  -2  -7   10.59    4.93   0 
   1  -4 -19   26.77    5.43   0 
   1  -4 -13   19.19    6.09   0 
   2   1   3  539.73    7.22   0 
   2   5   5  108.05    6.21   0 
   2   6   5   53.83    5.88   0 
   3   7   5   90.80    5.72   0 
   4  -3  -4  123.86    6.20   0 
   4   3   5    3.49    4.85   0 
   4   7   5    2.42    5.09   0 
   5  -3  -4  165.26    5.93   0 
   5   7   5   25.13    4.81   0 
   6  -4  -8   77.95    6.28   0 
   6   1   3    8.77    4.37   0 
   6   2   4    4.02    4.23   0 
   6   4   5   92.93    5.19   0 
   6   5   5    2.69    4.60   0 
   6   6   5   48.06    4.97   0 
   7  -2  -2  105.96    5.41   0 
   7  -1   0   39.76    4.85   0 
   7   3   4    6.84    4.56   0 
   8  -4 -10   40.39    6.15   0 
   8  -1  -1   -0.25    4.62   0 
   8   5   4   24.50    4.58   0 
   9  -4 -12    1.56    6.21   0 
   9  -1  -2    7.07    4.32   0 
   9   1   1   17.34    4.36   0 
   9   5   3   -0.60    4.36   0 
  10  -3  -9    0.95    5.31   0 
  10  -1  -3    6.49    3.69   0 
  -4   0 -15   -3.66    4.68   0 
  -4   0 -14  109.57    4.86   0 
  -4   2  -6    1.82    4.14   0 
  -3  -1 -19    1.44    4.52   0 
  -3  -1 -18  158.78    4.31   0 
  -3  -1 -11    5.69    4.72   0 
  -2  -2 -20   67.06    4.89   0 
  -2  -2 -19    0.42    4.47   0 
  -2  -2 -11  203.46    5.55   0 
  -2  -1  -6 1472.88    9.86   0 
  -1  -3 -18   62.63    5.60   0 
  -1  -3 -17    8.13    4.54   0 
  -1  -3 -16   20.84    4.69   0 
  -1  -3 -15   21.69    4.73   0 
  -1  -3 -14   19.19    4.85   0 
  -1  -3 -13  133.37    5.96   0 
   1  -4 -20   15.95    5.45   0 
   1  -4 -12  148.17    7.51   0 
   1   7   4   35.77    7.48   0 
   2  -1   0   13.03    5.53   0 
   2   8   4    8.97    6.53   0 
   3   0   2    8.44    4.42   0 
   3   2   4  685.82    7.85   0 
   3   4   5   14.19    5.54   0 
   5  -4  -8   -0.62    6.62   0 
   5   0   2  378.76    5.96   0 
   5   4   5   71.39    5.10   0 
   5   6   5    4.34    5.40   0 
   6   8   4    0.46    4.57   0 
   7  -4  -9   75.50    5.72   0 
   7   7   4    1.78    4.72   0 
   8  -3  -6   27.47    4.79   0 
  10  -2  -6    1.85    4.59   0 
  10   3   1    3.29    4.23   0 
  -5   2 -17    3.29    4.23   0 
  -5   2 -16    3.82    3.48   0 
  -5   2 -15   25.25    3.49   0 
  -5   2 -14   17.27    3.62   0 
  -5   2 -13    7.56    3.53   0 
  -5   2 -12  172.88    4.94   0 
  -5   2 -11   10.85    4.35   0 
  -5   3  -9  111.80    5.09   0 
  -5   4  -7   -0.56    4.76   0 
  -5   6  -7    4.27    4.64   0 
  -4   0 -18   71.67    4.66   0 
  -4   0 -17    3.36    4.43   0 
  -4   0 -16  136.16    4.25   0 
  -4   0 -13   -0.78    3.73   0 
  -3  -1 -20   48.43    4.60   0 
  -3  -1 -10   43.17    4.91   0 
  -3   0  -6 1128.11    8.15   0 
  -2  -2 -21    0.24    4.58   0 
  -2  -2 -10   55.06    4.92   0 
  -1  -3 -20   40.32    5.54   0 
  -1  -3 -19    6.45    4.48   0 
  -1  -3 -12    8.84    5.05   0 
   2   9   3   28.35    7.60   0 
   3  -4  -9   42.31   12.69   0 
   3   1   3  315.77    6.18   0 
   3   5   5  206.23    6.49   0 
   3   6   5   47.24    5.78   0 
   4   0   2  437.74    6.00   0 
   4   2   4  274.10    5.94   0 
   4   4   5   15.64    4.59   0 
   4   5   5   16.85    5.44   0 
   4   6   5  265.49    7.36   0 
   5   1   3    2.20    3.41   0 
   5   5   5  167.65    5.47   0 
   5   8   4    4.80    5.13   0 
   6  -2  -2  331.13    6.08   0 
   6  -1   0  308.04    5.98   0 
   7   0   1    3.83    3.35   0 
   7   2   3    5.77    3.54   0 
   7   5   4    3.60    4.52   0 
   7   6   4    7.05    4.48   0 
   9  -3  -8   66.83    5.63   0 
   9  -2  -5   16.42    5.28   0 
   9   0  -1   -5.17    4.54   0 
  10   1  -1   -0.97    4.28   0 
  10   2   0    0.86    4.22   0 
  -5   3  -8    1.13    4.69   0 
  -5   5  -6   -0.20    4.71   0 
  -5   6  -6   22.61    5.35   0 
  -4   0 -11    1.59    3.59   0 
  -4   1  -7   37.37    4.35   0 
  -4   2  -5  222.16    4.96   0 
  -4   7  -3   28.40    5.54   0 
  -4   8  -4    6.45    5.07   0 
  -3  -1  -9   11.26    4.93   0 
  -3   2  -2  347.94    6.39   0 
  -3   5   0  217.78    7.04   0 
  -2   0  -3   -0.55    5.06   0 
  -1  -3 -21   -0.93    5.32   0 
   0  -3  -8  151.19    7.09   0 
   3  -2  -2  215.31    6.67   0 
   3   8   4    2.93    6.14   0 
   4   1   3  103.30    4.27   0 
   4   8   4    3.23    5.25   0 
   5  -2  -2  295.30    6.86   0 
   5  -1   0  148.91    5.51   0 
   6  -3  -5   85.05    5.84   0 
   6   7   4    8.16    4.65   0 
   7  -2  -3   69.63    4.93   0 
   7  -1  -1   -4.08    4.72   0 
   8  -4 -11    1.29    5.11   0 
   8  -2  -4   85.22    5.08   0 
   8  -1  -2  149.93    5.31   0 
   8   1   1    9.44    4.51   0 
   8   2   2   13.40    3.53   0 
   8   5   3    2.87    4.38   0 
   9   1   0    5.89    4.43   0 
   9   2   1   -2.87    3.44   0 
   9   5   2    6.03    4.56   0 
  10  -2  -7    1.14    4.63   0 
  -5   1 -16   70.73    4.54   0 
  -5   1 -15    5.82    4.52   0 
  -5   1 -13    2.06    4.23   0 
  -5   7  -6   10.40    5.46   0 
  -4   9  -5    9.43    5.43   0 
  -3   6   0    3.05    6.20   0 
  -3   8  -1   67.02    7.71   0 
  -2  -2  -9  222.47    6.15   0 
  -1  -3 -11  170.38    5.27   0 
  -1  -2  -6  463.44    7.95   0 
   1  -4 -11    1.06    7.35   0 
   1  -3  -6   85.31   11.64   0 
   1   2   3  347.43    8.34   0 
   1   4   4   57.05    6.54   0 
   2   3   4   88.23    6.14   0 
   3  -1   0 1059.08    9.55   0 
   3   9   3   28.43    6.38   0 
   4  -2  -2  513.73    7.88   0 
   4  -1   0  295.34    6.07   0 
   4   9   3    3.48    5.93   0 
   5   3   4    5.84    4.82   0 
   6  -4  -9    4.52    5.75   0 
   6   0   1   -0.25    4.37   0 
   6   4   4    5.19    4.64   0 
   6   5   4   56.15    5.51   0 
   6   6   4    1.43    4.61   0 
   7  -4 -10    7.49    5.24   0 
   7  -3  -6  107.06    5.85   0 
   8  -3  -7   11.54    4.64   0 
   9  -3  -9    3.52    5.48   0 
  10  -1  -5    0.35    4.17   0 
  10   0  -3   -1.47    3.56   0 
  -6   4 -13    6.85    4.62   0 
  -6   4 -12   32.83    4.76   0 
  -6   5 -12   13.77    4.57   0 
  -6   5 -11   11.43    4.61   0 
  -6   6 -11   14.69    4.61   0 
  -5   1 -18   35.57    4.68   0 
  -5   1 -11    8.48    4.54   0 
  -5   6  -5    7.33    5.53   0 
  -4   0  -9    1.46    3.55   0 
  -4   1  -6  839.46    7.17   0 
  -4   3  -3   22.97    5.17   0 
  -4   5  -2   38.20    5.18   0 
  -4   6  -2   43.90    6.09   0 
  -3  -2 -16   77.59    5.72   0 
  -3  -2 -15   13.93    5.57   0 
  -3   0  -5   -2.35    4.44   0 
  -3   4   0   47.87    6.63   0 
  -3   9  -2    2.48    6.75   0 
  -2  -1  -5   16.64    4.97   0 
  -2   1  -1   31.04    5.71   0 
  -2   3   1  208.45    7.84   0 
   0  -4 -19   17.32    5.94   0 
   0  -4 -18   18.97    5.37   0 
   0  -4 -17   77.44    6.03   0 
   0  -4 -16    6.34    5.09   0 
   0  -4 -15   20.58    5.70   0 
   1   6   4    8.23    6.81   0 
   2   7   4   13.47    5.85   0 
   4   3   4  418.01    6.72   0 
   5  -3  -5   34.72    5.23   0 
   5   7   4    7.41    4.72   0 
   6   8   3    4.70    4.79   0 
   7   0   0  313.64    6.10   0 
   7   4   3    2.83    4.67   0 
   8  -4 -12   21.33    5.55   0 
   8   0  -1    1.06    4.64   0 
  10  -2  -8   25.80    4.70   0 
  10   2  -1    1.14    3.54   0 
  -6   3 -15    9.33    4.39   0 
  -6   4 -10   48.86    4.90   0 
  -6   5 -10   79.37    4.99   0 
  -6   6 -10   -2.37    4.54   0 
  -5   1 -10   22.17    4.64   0 
  -5   3  -6   23.15    4.78   0 
  -4  -1 -18    7.93    4.48   0 
  -4  -1 -17   15.98    4.57   0 
  -4   0  -8   11.43    4.63   0 
  -4   4  -2  170.52    5.76   0 
  -4   8  -3   56.65    6.24   0 
  -3  -2 -19   14.16    4.75   0 
  -3  -2 -18    4.35    4.71   0 
  -3  -2 -13    8.49    4.69   0 
  -3   7   0   47.47    6.66   0 
  -2  -2  -8   72.28    5.13   0 
  -2   9   0    2.23   11.14   0 
  -1  -3 -10   59.24    4.90   0 
  -1  -1  -3   19.28    5.77   0 
   0  -4 -20   32.53    5.62   0 
   0  -4 -14   73.92    6.23   0 
   0   7   3  161.54   11.42   0 
   1  -1  -1   19.14    8.71   0 
   1   5   4  202.81    8.32   0 
   1   8   3   28.77    8.34   0 
   3  -5 -19   19.14    8.97   0 
   3  -5 -18    1.37    8.88   0 
   3  -3  -5    7.54    6.90   0 
   3   3   4  627.95    7.63   0 
   4  -3  -5   58.22    6.53   0 
   4   7   4    2.48    5.27   0 
   5  -4  -9  106.99    7.51   0 
   5   0   1   11.14    4.54   0 
   5   2   3   30.05    5.17   0 
   5   4   4   17.16    5.07   0 
   5   5   4    3.24    5.30   0 
   5   6   4   22.12    4.83   0 
   6  -1  -1   21.50    4.90   0 
   6   3   3   18.26    4.84   0 
   7  -4 -11   15.47    6.18   0 
   7  -2  -4   48.45    5.63   0 
   7   1   1   10.82    3.64   0 
   7   5   3   55.19    4.79   0 
   7   6   3    2.67    4.48   0 
   8  -2  -5    4.06    4.63   0 
   8  -1  -3    3.27    4.76   0 
   8   2   1    7.46    3.58   0 
   8   4   2   -2.98    4.58   0 
   8   5   2   24.53    4.47   0 
   8   6   2    5.13    4.56   0 
   9  -1  -4   17.80    4.57   0 
   9   1  -1   -0.64    3.50   0 
   9   5   1   21.57    4.71   0 
  10   0  -4   13.63    4.50   0 
  10   3  -1    5.18    4.19   0 
  -6   3 -11   44.58    4.84   0 
  -6   4  -9   29.48    4.68   0 
  -6   6  -9   30.84    4.80   0 
  -5   1  -9  135.54    4.97   0 
  -5   5  -4    4.82    5.26   0 
  -5   8  -6    3.27    4.72   0 
  -4  -1 -13   11.43    3.90   0 
  -4   1  -5    1.62    4.49   0 
  -4   7  -2    3.69    5.20   0 
  -4   9  -4    1.09    5.85   0 
  -3  -2 -20    7.14    4.89   0 
  -3  -1  -7    2.99    4.76   0 
  -2  -3 -19   25.25    5.50   0 
  -2  -3 -18   44.56    4.90   0 
  -2  -3 -17   35.67    4.93   0 
  -2  -3 -15   29.02    4.80   0 
  -2  -3 -14   80.91    6.12   0 
  -2   8   1    7.70   11.38   0 
   0  -4 -13   14.27    6.16   0 
   1  10   1   10.27    8.63   0 
   2   0   1    1.58    5.49   0 
   3   7   4    4.48    5.38   0 
   4  -4  -9   70.08    8.81   0 
   4   0   1   10.08    4.50   0 
   4   2   3   60.35    5.24   0 
   4   4   4   10.17    4.78   0 
   5   1   2   21.36    3.63   0 
   5   8   3   16.20    5.89   0 
   6  -4 -10   67.89    6.15   0 
   6  -3  -6   10.37    5.57   0 
   6   7   3    7.54    4.58   0 
   7  -3  -7    6.95    5.57   0 
   7  -1  -2  113.96    4.49   0 
   8  -4 -13    0.56    5.26   0 
   9  -3 -10   28.52    4.78   0 
   9  -2  -7    6.19    4.76   0 
   9   0  -3   -4.12    4.50   0 
  10  -2  -9   -0.99    4.69   0 
  10   1  -3    5.20    4.47   0 
  -6   2 -16   42.45    4.67   0 
  -6   2 -15    3.04    3.38   0 
  -6   2 -14   80.67    4.68   0 
  -6   3 -10  127.09    5.08   0 
  -6   4  -8   12.84    4.64   0 
  -6   6  -8   -0.72    4.84   0 
  -5   0 -18   -2.74    4.45   0 
  -5   0 -17    3.92    4.60   0 
  -5   0 -16   12.34    3.69   0 
  -5   0 -15    8.21    3.64   0 
  -5   0 -14   49.13    4.69   0 
  -5   3  -5  309.71    5.99   0 
  -5   4  -4   16.19    5.21   0 
  -5   6  -4   30.65    4.93   0 
  -4   0  -7    1.16    4.51   0 
  -3  -2 -11  157.00    5.49   0 
  -2  -3 -20   10.01    4.74   0 
  -2  -3 -13  133.09    6.51   0 
  -2   5   2    0.86    8.89   0 
  -1  -3  -9  137.68    6.17   0 
   0  -3  -7   22.96    6.74   0 
   1   9   2    3.51    8.45   0 
   2   2   3   16.22    5.11   0 
   2   4   4  241.33    6.85   0 
   2   6   4   66.44    6.86   0 
   3   0   1   -0.50    4.66   0 
   3   2   3   -0.47    4.57   0 
   3   6   4    6.48    5.53   0 
   4   6   4   16.76    4.85   0 
   5  -2  -3    2.87    4.67   0 
   5  -1  -1   69.28    5.22   0 
   6   2   2   10.47    4.50   0 
   6   6   3   16.97    4.79   0 
   7   3   2    2.53    3.90   0 
   7   7   2    1.77    4.60   0 
   8  -4 -14    6.53    5.94   0 
   8   3   1    3.53    4.20   0 
   9  -1  -5    0.42    4.51   0 
   9   1  -2   11.01    4.59   0 
  10   0  -5    3.29    4.35   0 
  -6   2 -12  137.64    4.37   0 
  -6   2 -11    6.15    4.42   0 
  -6   7  -8   22.88    5.01   0 
  -5   0 -11   -0.51    4.62   0 
  -5   1  -8   44.40    3.70   0 
  -5   7  -4    2.94    5.62   0 
  -5   8  -5   11.68    5.38   0 
  -4   3  -2  260.74    6.12   0 
  -4   5  -1  176.31    6.52   0 
  -3  -2 -10  337.98    6.13   0 
  -3   0  -4 2678.29   11.78   0 
  -3   2  -1    5.29    5.04   0 
  -3   3   0  148.81    6.34   0 
  -2  -3 -12  206.30    6.35   0 
  -2  -2  -7  120.47    5.39   0 
  -2   6   2  209.48   12.73   0 
   1  -4 -10  192.05    9.86   0 
   2   1   2 1018.45   10.18   0 
   2   5   4   60.92    5.48   0 
   2   8   3   23.21    6.89   0 
   3   1   2 1961.05   11.77   0 
   3   5   4  103.64    6.24   0 
   3   8   3   24.87    6.38   0 
   4   8   3   40.29    5.99   0 
   5   7   3   31.84    5.61   0 
   6   1   1   -2.61    3.59   0 
   6   5   3   -2.84    4.91   0 
   6   8   2    3.75    4.81   0 
   7  -4 -12    6.46    6.06   0 
   7   0  -1    1.11    3.54   0 
   7   2   1    6.28    4.50   0 
   7   4   2   44.59    4.86   0 
   7   6   2    4.30    4.67   0 
   8  -3  -9   12.59    4.90   0 
   8  -2  -6  104.99    5.14   0 
   8   1  -1    2.19    4.90   0 
   8   2   0    5.75    4.37   0 
   9  -3 -11    6.80    4.66   0 
   9   5   0    9.91    4.59   0 
  10  -2 -10    9.44    4.73   0 
  10  -1  -7    2.59    3.91   0 
  -6   1 -16    1.01    4.32   0 
  -6   1 -14   21.88    4.36   0 
  -6   7  -7    5.86    5.63   0 
  -5   1  -7    1.72    4.63   0 
  -5   3  -4   13.80    4.90   0 
  -5   6  -3   65.76    6.29   0 
  -4  -1  -9    8.33    4.69   0 
  -3  -1  -6   37.69    4.99   0 
  -1  -4 -18   46.17    5.69   0 
  -1  -2  -5   28.23    5.77   0 
   4  -2  -3   51.70    6.01   0 
   4  -1  -1  402.78    6.64   0 
   4   9   2    2.87    5.29   0 
   5  -3  -6  253.86    6.66   0 
   5   4   3    8.93    5.89   0 
   6  -4 -11    8.30    6.32   0 
   6  -2  -4  316.70    6.20   0 
   6  -1  -2  236.19    6.09   0 
   7  -3  -8   41.66    6.01   0 
   7  -2  -5   53.21    5.03   0 
   7  -1  -3    4.87    4.89   0 
   8  -4 -15   -0.79    6.09   0 
   8   5   1    0.56    3.81   0 
   9  -3 -12    4.61    5.53   0 
   9  -2  -8    5.26    4.70   0 
  10   2  -3    3.70    3.69   0 
  10   4  -2    4.43    4.39   0 
  -6   1 -13   19.91    3.80   0 
  -6   2  -9   56.97    4.83   0 
  -6   4  -6    1.26    4.94   0 
  -6   6  -6    0.74    4.82   0 
  -5   2  -5    2.29    4.05   0 
  -5   4  -3    9.33    5.21   0 
  -5   8  -4   -1.35    5.35   0 
  -4  -2 -18   61.09    5.15   0 
  -4  -2 -17    3.05    4.78   0 
  -4  -2 -16  145.32    5.47   0 
  -4  -2 -15    0.78    4.70   0 
  -4   7  -1   63.62    6.47   0 
  -4   9  -3    6.95    6.17   0 
  -3  -2  -9   17.32    5.17   0 
  -2  -3 -11   38.37    5.31   0 
  -1  -4 -20   19.23    5.67   0 
  -1  -4 -19   40.55    4.95   0 
  -1  -4 -17   32.19    5.30   0 
  -1  -4 -16   83.75    5.95   0 
  -1  -4 -15   42.56    5.89   0 
   2  -5 -19    5.62    7.18   0 
   2  -5 -18   12.71    7.95   0 
   2   9   2    5.55    6.86   0 
   3   9   2    0.19    5.87   0 
   4   3   3   22.37    5.17   0 
   4   7   3   19.93    5.83   0 
   5  -4 -10   32.21    7.02   0 
   5   0   0 1320.45    9.11   0 
   5   5   3   96.28    5.32   0 
   5   6   3   41.00    5.04   0 
   6  -3  -7  185.51    6.40   0 
   6   7   2    8.09    4.50   0 
   7  -4 -13   18.46    6.63   0 
   8  -3 -10    0.16    5.21   0 
   9   4  -1    7.38    4.22   0 
  10  -2 -11    1.34    4.75   0 
  10  -1  -8    8.40    4.61   0 
  10   3  -3    1.50    4.24   0 
  -7   3 -13    2.70    4.53   0 
  -7   5 -10    1.80    4.76   0 
  -6   1 -11   12.49    4.38   0 
  -6   2  -8   35.34    4.67   0 
  -6   7  -6    2.58    4.90   0 
  -5  -1 -17   -1.28    3.98   0 
  -5  -1 -16   69.55    4.10   0 
  -5  -1 -15    1.57    4.72   0 
  -5  -1 -13    7.14    4.51   0 
  -5   0  -9    2.47    3.70   0 
  -5   1  -6    1.17    4.51   0 
  -4  -2 -19    5.63    3.92   0 
  -4  -2 -14  177.04    5.41   0 
  -4  -2 -13   13.66    4.94   0 
  -3  -3 -19    5.12    5.43   0 
  -3  -3 -18   49.08    4.89   0 
  -3  -3 -17    0.82    4.93   0 
  -3  -3 -16   61.85    5.17   0 
  -3   6   1  227.50    8.46   0 
  -3   8   0    4.92    7.71   0 
  -2   4   2  531.44   12.74   0 
  -1  -4 -14  155.50    6.26   0 
  -1  -3  -8  292.11    7.31   0 
   0  -4 -11  341.26    8.80   0 
   2  -5 -17    8.43    7.94   0 
   2  -2  -3  151.29    8.71   0 
   2  -1  -1   19.56    6.74   0 
   3  -2  -3   13.20    5.50   0 
   3  -1  -1    8.48    5.20   0 
   5   8   2   -2.03    4.94   0 
   6   0  -1    6.40    4.99   0 
   7   0  -2   43.26    5.00   0 
   7   7   1   15.00    4.80   0 
   8  -2  -7   -1.35    4.53   0 
   8  -1  -5    3.58    4.73   0 
   8   4   0    5.31    4.71   0 
   9  -3 -13    6.35    5.72   0 
   9  -2  -9   14.32    4.51   0 
  10   1  -5   -0.88    3.60   0 
  10   2  -4    0.98    4.50   0 
  10   4  -3   11.10    4.55   0 
  -7   3 -12   38.13    3.92   0 
  -7   5  -9   44.58    5.08   0 
  -6   0 -16  126.66    5.30   0 
  -6   0 -15    2.07    4.54   0 
  -6   1 -10  149.68    4.41   0 
  -6   5  -5    1.14    4.88   0 
  -5   5  -2   12.39    5.81   0 
  -4  -2 -12   68.05    5.29   0 
  -4   0  -5   -2.22    4.44   0 
  -4   2  -2  222.22    6.09   0 
  -3  -3 -15   25.45    4.77   0 
  -3  -3 -14   88.68    5.05   0 
  -3  -1  -5    0.03    4.75   0 
  -3   0  -3    0.78    4.58   0 
  -2  -3 -10  390.84    6.63   0 
  -1  -4 -13    0.35    6.18   0 
   1   3   3   24.43    5.63   0 
   1   7   3   61.53    7.80   0 
   3   3   3   33.91    5.22   0 
   3   7   3   90.12    6.45   0 
   4  -3  -6   32.14    6.40   0 
   4   0   0  949.03    8.57   0 
   4   2   2  191.92    5.95   0 
   4   4   3  407.37    6.75   0 
   4   6   3  106.92    6.15   0 
   5  -2  -4   73.59    5.70   0 
   6   5   2   20.09    4.86   0 
   6   8   1   18.91    4.88   0 
   7  -3  -9    3.24    5.77   0 
   7  -2  -6   45.24    4.86   0 
   7   1  -1   -0.91    4.40   0 
   7   5   1   60.56    5.01   0 
   7   6   1    4.79    4.64   0 
   8  -3 -11   21.98    5.67   0 
   8   5   0   13.53    4.74   0 
   8   6   0    2.13    3.60   0 
   9  -1  -7    0.16    4.42   0 
   9   0  -5    0.55    4.54   0 
   9   3  -2    1.58    4.46   0 
  10  -1  -9    4.78    4.64   0 
  10   0  -7    5.43    4.48   0 
  -7   2 -14   16.63    3.79   0 
  -7   2 -12   -0.01    4.60   0 
  -7   3 -10   19.53    4.81   0 
  -7   4  -9    9.94    4.86   0 
  -7   5  -8   -0.39    5.04   0 
  -6   0 -14  151.86    4.53   0 
  -6   0 -13    0.70    4.69   0 
  -6   2  -7   18.28    3.85   0 
  -6   7  -5    3.72    5.51   0 
  -5  -1 -11    5.31    4.83   0 
  -5   1  -5   17.61    4.75   0 
  -5   6  -2   70.00    6.54   0 
  -5   8  -3   14.80    6.13   0 
  -4  -2 -11   19.16    4.80   0 
  -4   5   0   40.33    6.47   0 
  -3  -3 -13   71.64    4.97   0 
   0   4   3   18.09    8.22   0 
   0   6   3    3.24    8.90   0 
   1  -5 -19   15.91    7.50   0 
   2   3   3   51.39    5.36   0 
   2   7   3   96.20    6.84   0 
   4   1   1   27.68    4.72   0 
   4   5   3   88.75    5.61   0 
   4   8   2    3.75    5.79   0 
   5   3   2   97.88    4.58   0 
   5   7   2    2.91    4.94   0 
   6  -4 -12   55.42    6.67   0 
   6  -2  -5   31.03    4.88   0 
   6  -1  -3    0.10    4.89   0 
   7  -4 -14    9.30    6.07   0 
   7  -1  -4   52.84    4.43   0 
   8  -2  -8  137.91    6.06   0 
   8   3  -1    2.11    4.35   0 
   9  -2 -10   -1.31    4.73   0 
   9   2  -3    7.65    4.38   0 
  -7   2 -11   48.99    4.74   0 
  -7   3  -9   16.14    4.87   0 
  -7   4  -8   50.43    4.70   0 
  -7   6  -8    7.49    4.44   0 
  -6   0 -12  111.50    4.30   0 
  -6   0 -11   -0.36    4.37   0 
  -6   1  -8  414.38    6.09   0 
  -6   2  -6   11.03    4.68   0 
  -6   3  -5   44.63    5.06   0 
  -6   6  -4    0.37    5.51   0 
  -5   0  -7    3.06    4.58   0 
  -5   7  -2   -1.15    6.31   0 
  -4   6   0   66.64    6.67   0 
  -4   8  -1   32.82    6.98   0 
  -4   9  -2    1.76    7.37   0 
  -3  -3 -12   31.00    4.83   0 
  -3   2   0  287.42    7.34   0 
  -3   7   1   22.10    8.14   0 
  -2  -4 -19   -2.14    5.41   0 
  -2  -3  -9    3.61    5.55   0 
  -1  -4 -12   85.13    6.81   0 
   1  -5 -18    0.26    6.93   0 
   1  -5 -17   71.65    7.84   0 
   2  -5 -15    0.16   11.42   0 
   3   4   3   58.91    5.32   0 
   3   6   3   21.93    5.74   0 
   4  -4 -10  126.08    8.77   0 
   4   9   1    8.06    5.46   0 
   5  -3  -7   53.46    5.61   0 
   5   6   2   47.45    5.53   0 
   6  -3  -8   13.37    5.49   0 
   6   3   1   15.37    4.85   0 
   6   7   1    8.92    4.68   0 
   7   3   0    6.91    4.58   0 
   7   7   0    2.99    4.59   0 
   8  -1  -6  110.27    5.47   0 
   8   1  -3    0.74    4.67   0 
   8   2  -2    6.38    4.13   0 
   9   5  -2    4.96    3.61   0 
  10  -1 -10    7.33    4.49   0 
  10   4  -4    6.27    3.65   0 
  -7   1 -14   34.52    4.60   0 
  -7   1 -13    2.02    4.50   0 
  -7   2 -10   28.88    4.79   0 
  -7   5  -7   10.13    4.76   0 
  -7   6  -7   12.51    4.68   0 
  -6   4  -4    9.29    4.60   0 
  -6   7  -4    5.43    5.82   0 
  -5  -2 -17    8.15    4.66   0 
  -5  -2 -16   -0.94    4.58   0 
  -4  -2 -10   16.26    4.99   0 
  -4   0  -4   66.84    4.77   0 
  -3  -2  -7   34.82    5.27   0 
  -3   1  -1  169.82    5.97   0 
  -2  -4 -16   45.67    5.09   0 
  -2  -4 -15   61.03    5.81   0 
  -2   1   0   15.09    5.67   0 
  -2   2   1   33.80    6.25   0 
   0  -4 -10   97.96    7.96   0 
   0   8   2    2.84    9.16   0 
   0  10   0    2.96    9.51   0 
   3  -3  -6  851.20   13.12   0 
   3   0   0    6.35    4.91   0 
   3   2   2  315.97    6.32   0 
   3   5   3  126.14    5.58   0 
   3   8   2   -2.32    5.53   0 
   5  -4 -11   64.73    6.96   0 
   5   0  -1    7.84    4.13   0 
   5   2   1  165.15    4.61   0 
   5   5   2   14.29    4.92   0 
   5   8   1   11.06    5.51   0 
   6   0  -2  605.76    7.85   0 
   6   4   1    2.00    4.62   0 
   7  -4 -15   11.66    6.33   0 
   7  -3 -10   64.71    6.29   0 
   7  -2  -7   -0.14    5.22   0 
   7   0  -3    2.28    3.86   0 
   7   2  -1   11.56    4.63   0 
   7   4   0    0.95    4.52   0 
   8  -3 -12    3.12    4.63   0 
   8   5  -1    5.55    4.55   0 
   8   6  -1   11.99    3.63   0 
   9  -2 -11    8.47    4.64   0 
   9   1  -5    4.03    4.54   0 
  10  -1 -11    1.62    4.42   0 
  10   1  -7    1.20    4.53   0 
  10   3  -5   -2.46    4.18   0 
  -7   1 -12   37.48    4.52   0 
  -7   2  -9   -0.59    4.65   0 
  -7   5  -6    3.48    5.67   0 
  -6  -1 -16    2.45    4.63   0 
  -6  -1 -15   -0.80    4.66   0 
  -6   1  -7    0.85    3.74   0 
  -5  -2 -14   23.09    4.67   0 
  -5  -1  -9  132.39    4.48   0 
  -5   1  -4   13.60    5.01   0 
  -4  -3 -18    2.29    4.71   0 
  -4  -3 -17   30.39    5.09   0 
  -4  -3 -16   27.53    4.92   0 
  -4   2  -1    6.67    5.08   0 
  -4   7   0    8.89    6.83   0 
  -2  -4 -14    3.95    5.80   0 
  -1  -3  -7   87.07    6.39   0 
   0  -3  -6  266.44    9.73   0 
   0   5   3  451.54   11.61   0 
   1   4   3  380.35    9.03   0 
   1   6   3  145.88    8.22   0 
   2   4   3  196.80    6.84   0 
   2   6   3  163.80    6.76   0 
   3   1   1  159.48    5.76   0 
   3   9   1    8.56    6.11   0 
   4  -1  -2  444.20    6.95   0 
   4   3   2  230.09    6.30   0 
   4   7   2    2.12    5.15   0 
   5   9   0   -1.58    4.77   0 
   6  -4 -13   28.08    6.93   0 
   6   5   1   17.99    4.89   0 
   6   8   0   -0.35    4.77   0 
   7  -1  -5   15.30    5.04   0 
   7   5   0   11.10    4.77   0 
   8  -2  -9    5.57    4.72   0 
  -7   1 -11    1.77    3.70   0 
  -7   2  -8  145.49    5.28   0 
  -7   3  -7   31.80    4.80   0 
  -7   4  -6   45.36    4.85   0 
  -6  -1 -14   15.34    3.71   0 
  -6   0  -9   -0.43    3.68   0 
  -6   6  -3   39.48    5.87   0 
  -5  -2 -13   13.41    4.94   0 
  -5   5  -1  112.54    6.15   0 
  -5   6  -1  105.60    6.85   0 
  -4  -3 -15   38.38    4.84   0 
  -4  -3 -14   87.85    5.95   0 
  -3   0  -2   13.40    4.76   0 
  -3   3   1   35.60    5.76   0 
  -2  -2  -5   14.22    5.01   0 
  -1  -4 -11   38.50    5.87   0 
  -1  -2  -4  778.51   10.21   0 
  -1  -1  -2 2829.78   19.22   0 
   1  -4  -9  240.80   12.29   0 
   1   8   2    3.32    7.49   0 
   2   5   3   84.31    5.70   0 
   2   8   2    9.59    6.21   0 
   5  -2  -5  102.65    5.96   0 
   5   3   1   80.63    5.44   0 
   5   7   1   32.69    5.96   0 
   6  -3  -9   25.34    5.59   0 
   6  -2  -6  243.93    6.09   0 
   6  -1  -4   23.85    5.08   0 
   7  -4 -16    2.17    6.13   0 
   7   7  -1   22.15    4.85   0 
   8  -3 -13    4.07    5.56   0 
   8  -1  -7   -0.44    4.88   0 
   8   2  -3   16.12    4.59   0 
   8   6  -2    1.88    4.52   0 
   9  -2 -12    2.30    4.65   0 
   9  -1  -9    5.10    4.72   0 
  10   1  -8   12.38    4.71   0 
  10   3  -6   17.62    4.49   0 
  -8   3 -11    6.72    4.65   0 
  -7   0 -14   10.88    4.75   0 
  -7   0 -13   -0.65    4.67   0 
  -7   1 -10  114.47    4.33   0 
  -7   5  -5   63.27    6.02   0 
  -6  -1 -12   54.32    4.91   0 
  -6   0  -8   65.56    4.87   0 
  -6   1  -6  401.68    5.50   0 
  -6   8  -4   -1.80    5.59   0 
  -5  -2 -12  165.27    5.60   0 
  -5   0  -5   -2.07    4.59   0 
  -5   4  -1   11.30    5.17   0 
  -5   8  -2   -2.62    6.16   0 
  -4  -3 -13    9.47    4.78   0 
  -4  -2  -8    1.26    5.16   0 
  -4   3   0   18.22    5.25   0 
  -2  -4 -13  244.73    7.06   0 
  -2   0  -1   -0.55    5.70   0 
   0  -5 -18   19.72    6.44   0 
   0   9   1   24.87    9.15   0 
   1  -5 -15   81.91    9.05   0 
   1   2   2  307.59    8.75   0 
   1   5   3   95.07    6.97   0 
   1  10   0    1.53    7.55   0 
   2   0   0   60.46    6.48   0 
   2   9   1   35.90    6.61   0 
   4   2   1    5.38    4.57   0 
   4   4   2  140.69    5.92   0 
   4   5   2   33.04    5.43   0 
   4   6   2   31.02    5.35   0 
   4   8   1   30.21    5.81   0 
   6   7   0    2.68    4.84   0 
   7  -4 -17    1.20    6.56   0 
   7  -3 -11   21.62    5.89   0 
   7  -2  -8   11.44    5.30   0 
   8  -2 -10   94.78    6.17   0 
   8   5  -2    8.86    4.92   0 
   9   4  -4    0.27    4.20   0 
  10   0 -10   17.82    4.55   0 
  10   2  -7    3.09    3.85   0 
  -8   2 -12   11.05    4.88   0 
  -8   3 -10    2.47    4.75   0 
  -7   0 -12   54.08    4.77   0 
  -7   1  -9   -2.51    4.73   0 
  -7   2  -7   -0.04    4.69   0 
  -7   4  -5   23.89    4.92   0 
  -7   6  -5    6.49    4.85   0 
  -6  -1 -11   12.49    4.62   0 
  -6   2  -4    1.24    5.07   0 
  -6   3  -3   23.40    5.40   0 
  -6   7  -3    8.31    4.87   0 
  -5  -1  -7   -0.87    4.62   0 
  -4  -3 -12   91.01    5.44   0 
  -4  -1  -5    0.20    4.90   0 
  -4   0  -3   -0.77    4.66   0 
  -3  -4 -18    5.31    5.73   0 
  -3  -4 -17   17.48    5.91   0 
  -3  -4 -16   38.39    5.84   0 
  -3  -3  -9  189.89    6.46   0 
  -2  -4 -12   18.43    5.81   0 
   0  -5 -16   26.02    6.81   0 
   1   9   1    2.84    7.26   0 
   2   1   1   29.01    5.95   0 
   3   3   2  502.90    7.28   0 
   3   7   2   24.46    6.23   0 
   4  -3  -7  294.48    8.07   0 
   4   0  -1    5.04    3.85   0 
   4   1   0  255.89    5.82   0 
   4   9   0    6.23    5.50   0 
   5  -4 -12    7.77    6.71   0 
   5  -3  -8  336.56    7.31   0 
   5   4   1    9.59    5.06   0 
   5   6   1   75.67    4.86   0 
   5   8   0    7.95    5.58   0 
   6  -4 -14   25.66    6.79   0 
   6   0  -3    6.92    5.07   0 
   6   2  -1    9.34    4.66   0 
   6   8  -1   16.00    5.65   0 
   7  -1  -6  198.51    6.38   0 
   7   1  -3    6.92    4.38   0 
   7   4  -1    4.18    3.85   0 
   8  -3 -14    3.56    5.56   0 
   9  -2 -13    2.87    4.78   0 
   9  -1 -10   52.05    5.19   0 
  10   1  -9    1.76    4.63   0 
  -8   2 -11    6.17    4.59   0 
  -7   1  -8   86.40    4.78   0 
  -7   2  -6  296.53    6.07   0 
  -7   7  -5   28.69    5.29   0 
  -6  -2 -16   39.64    4.87   0 
  -6  -1 -10  143.30    5.42   0 
  -6   0  -7    0.20    3.98   0 
  -6   1  -5    6.03    4.50   0 
  -6   5  -2   29.03    5.15   0 
  -6   6  -2   17.08    5.58   0 
  -5  -2 -10  337.52    6.37   0 
  -5   3  -1  110.83    5.64   0 
  -3  -4 -15   97.43    5.98   0 
  -1  -4 -10  301.54    7.80   0 
   2  -3  -6  166.52   12.33   0 
   3  -1  -2 1283.07   11.10   0 
   5   0  -2  166.59    5.15   0 
   5   1  -1   62.00    5.02   0 
   8  -3 -15    0.92    5.60   0 
   8  -1  -8   11.40    5.06   0 
   8   1  -5    4.46    4.64   0 
   8   6  -3   23.09    4.28   0 
   9  -2 -14    1.88    5.48   0 
   9   1  -7    0.81    4.73   0 
   9   3  -5   -0.03    3.53   0 
  10   0 -11    0.89    4.60   0 
  -8   5  -7   -2.44    4.67   0 
  -7   5  -4    8.83    5.01   0 
  -6  -2 -15    1.80    4.52   0 
  -6  -2 -14   80.20    5.16   0 
  -6  -1  -9   14.23    4.80   0 
  -6   8  -3   13.24    6.09   0 
  -5  -3 -16   58.96    5.01   0 
  -4  -3 -11   19.23    4.91   0 
  -4  -2  -7  471.75    6.81   0 
  -4   5   1  141.80    6.57   0 
  -4   6   1   88.50    7.70   0 
  -4   8   0    1.45    7.29   0 
  -4   9  -1    3.76    8.20   0 
  -3  -4 -14   65.64    5.84   0 
  -2  -4 -11  141.43    6.57   0 
  -2   3   2  395.32   11.06   0 
  -1  -5 -19   -1.33    5.93   0 
  -1  -5 -18    9.11    6.15   0 
   0  -5 -15    8.10    6.83   0 
   0  -4  -9  456.12   10.07   0 
   1  -5 -14    4.98    8.69   0 
   2   7   2    4.84    6.27   0 
   3  -4 -10  137.18   11.54   0 
   3   4   2  156.26    5.96   0 
   3   6   2    9.00    5.71   0 
   3   8   1   46.77    5.96   0 
   4  -4 -11   58.99    8.54   0 
   4   7   1   38.33    5.79   0 
   6  -3 -10    1.63    5.62   0 
   6  -2  -7   -3.65    4.85   0 
   6  -1  -5   79.05    5.32   0 
   7  -3 -12   75.25    5.68   0 
   7  -2  -9   16.36    5.83   0 
   7   0  -5   -5.42    4.89   0 
   7   7  -2   -0.34    4.74   0 
   8  -2 -11   -1.37    4.82   0 
   8   5  -3   21.29    3.88   0 
   9  -1 -11    3.97    4.70   0 
   9   0  -9    1.79    4.45   0 
   9   4  -5    5.56    4.48   0 
   9   5  -5   13.76    4.57   0 
  10   0 -12   19.28    5.16   0 
  -8   1 -12    3.72    3.60   0 
  -8   1 -11    6.97    4.49   0 
  -8   2  -9    6.38    4.63   0 
  -8   4  -7    6.12    3.78   0 
  -7  -1 -13    1.78    4.67   0 
  -7   0  -9   -0.50    4.50   0 
  -7   1  -7    8.45    3.83   0 
  -7   2  -5    5.50    4.71   0 
  -6  -2 -13    5.58    4.68   0 
  -6   1  -4  353.00    5.96   0 
  -6   2  -3  348.39    5.83   0 
  -6   7  -2    2.32    5.63   0 
  -5  -3 -15   10.66    4.66   0 
  -5  -3 -14   38.74    4.84   0 
  -5  -2  -9    0.57    3.94   0 
  -5  -1  -6    3.47    3.72   0 
  -5   5   0   84.56    5.50   0 
  -5   6   0    7.01    6.11   0 
  -4  -3 -10  240.63    5.96   0 
  -4   1  -1   31.54    5.22   0 
  -4   4   1   54.22    4.90   0 
  -3  -4 -13   28.40    5.83   0 
  -3  -3  -8    7.22    5.68   0 
  -3   5   2  247.02    9.03   0 
  -3   8   1   36.03   13.10   0 
  -1  -5 -17    6.68    6.16   0 
  -1  -3  -6  404.53    7.94   0 
   1   1   1    0.63    6.65   0 
   2   3   2   21.90    5.81   0 
   3   2   1    5.70    4.60   0 
   3   5   2   34.05    5.01   0 
   3   9   0    0.63    5.29   0 
   4  -1  -3    2.88    4.92   0 
   5  -2  -6   14.83    5.41   0 
   5  -1  -4  667.28    7.98   0 
   5   7   0    1.66    4.61   0 
   6   3  -1    6.54    4.43   0 
   6   7  -1    9.76    4.61   0 
   7  -1  -7    0.97    4.81   0 
   7   6  -2   18.74    4.54   0 
   8  -3 -16    3.89    5.78   0 
   8  -1  -9    5.96    4.69   0 
   8   0  -7   -3.20    4.67   0 
   9  -2 -15   -4.56    4.75   0 
  10   2  -9    1.60    3.70   0 
  -8   1 -10    4.06    4.63   0 
  -8   2  -8  110.38    5.26   0 
  -8   3  -7   11.27    3.90   0 
  -8   4  -6   34.56    5.08   0 
  -8   5  -6   28.76    4.85   0 
  -7  -1 -12   32.97    4.80   0 
  -7   0  -8  141.70    5.23   0 
  -7   1  -6   15.44    4.96   0 
  -7   3  -4    0.65    3.81   0 
  -7   5  -3   90.15    5.47   0 
  -6  -2 -12  115.34    5.17   0 
  -6   5  -1   24.85    6.07   0 
  -5  -3 -13   -1.93    4.81   0 
  -5  -2  -8  187.20    5.81   0 
  -5   1  -2   29.39    5.37   0 
  -5   2  -1  231.33    6.20   0 
  -5   8  -1   21.42    6.54   0 
  -4  -4 -17    0.58    5.62   0 
  -3   1   0 1049.28    9.24   0 
  -3   4   2    3.13    7.27   0 
  -3   6   2   13.38    9.67   0 
  -2  -2  -4  362.69    7.10   0 
  -1  -5 -16    1.53    5.95   0 
  -1   1   1   22.05    8.86   0 
   0  -5 -14   21.56    7.67   0 
   3   0  -1   -1.37    4.95   0 
   4  -2  -5   -0.34    4.85   0 
   4   4   1  349.31    7.00   0 
   4   6   1   30.24    4.84   0 
   4   8   0    6.58    5.34   0 
   5  -4 -13    6.72    6.79   0 
   5   6   0    7.42    4.76   0 
   5   8  -1   17.22    5.56   0 
   6   0  -4  651.98    8.08   0 
   6   8  -2   -0.11    4.47   0 
   7  -3 -13    1.99    5.80   0 
   8  -2 -12   59.19    5.01   0 
   8   2  -5    4.63    4.45   0 
   8   4  -4   -0.48    4.40   0 
   8   6  -4    2.68    4.54   0 
   9  -1 -12   13.03    4.94   0 
   9   0 -10   -0.88    4.43   0 
   9   2  -7   10.15    3.81   0 
  10   1 -11    3.20    4.58   0 
  10   2 -10    8.32    4.70   0 
  -8   0 -12   62.94    4.95   0 
  -8   3  -6   75.84    5.25   0 
  -7  -1 -11   -1.01    4.80   0 
  -7   4  -3   -4.94    4.80   0 
  -7   6  -3    6.23    5.04   0 
  -6  -2 -11    2.76    4.75   0 
  -6  -1  -7    1.34    4.68   0 
  -6   0  -5   -1.24    4.69   0 
  -6   4  -1    2.69    4.75   0 
  -6   6  -1  134.30    6.61   0 
  -5  -3 -12   43.04    5.15   0 
  -5  -1  -5   17.36    4.80   0 
  -5   7   0    5.81    7.00   0 
  -4  -4 -16   26.19    5.20   0 
  -4  -3  -9  176.73    6.12   0 
  -4  -2  -6   -0.95    4.22   0 
  -4   3   1  173.35    6.74   0 
  -4   7   1  108.48    9.25   0 
  -3  -4 -12  123.15    5.87   0 
  -3   0  -1    0.45    4.94   0 
  -2  -4 -10   36.70    5.65   0 
  -1  -5 -15   28.01    6.61   0 
  -1  -4  -9    9.00    6.32   0 
   1   7   2    3.61    6.30   0 
   2   6   2    4.94    5.50   0 
   2   8   1    5.79    6.25   0 
   3   1   0  967.31    9.50   0 
   4   5   1  147.68    5.81   0 
   4   9  -1   29.81    5.13   0 
   5  -3  -9    1.30    5.59   0 
   5   9  -2    5.84    4.89   0 
   6  -4 -16   -0.84    6.73   0 
   6  -3 -11   47.37    6.07   0 
   6  -2  -8  315.04    7.44   0 
   6   1  -3    3.91    4.83   0 
   7  -2 -10    1.56    5.32   0 
   7   7  -3   14.90    4.80   0 
   8   0  -8  239.75    6.35   0 
   9  -1 -13   -0.81    5.47   0 
  10   1 -12   -4.52    4.57   0 
  -8   1  -8   36.46    5.00   0 
  -8   4  -5    8.80    5.08   0 
  -7   0  -7   -4.32    4.35   0 
  -7   2  -4  185.77    5.01   0 
  -7   3  -3   25.92    5.09   0 
  -6  -2 -10   98.44    5.37   0 
  -6   1  -3   13.77    4.94   0 
  -6   2  -2    9.39    5.02   0 
  -6   8  -2    7.15    6.49   0 
  -5  -3 -11   30.63    5.17   0 
  -5   0  -3   -1.67    3.53   0 
  -4  -4 -14   34.32    5.72   0 
  -2  -5 -18   17.14    6.00   0 
  -2  -5 -17   53.98    5.86   0 
  -1   7   2   17.58   10.67   0 
   2   4   2  158.98    6.81   0 
   2   9   0    2.69    6.10   0 
   3   7   1   65.44    6.43   0 
   4  -3  -8  132.51    7.30   0 
   4   0  -2  433.38    6.81   0 
   5   0  -3   -2.29    4.12   0 
   6  -1  -6   11.75    4.84   0 
   6   7  -2    1.87    4.72   0 
   7  -3 -14   42.30    5.93   0 
   7  -1  -8  170.30    5.98   0 
   7   0  -6   33.83    4.10   0 
   7   4  -3    7.41    4.56   0 
   8  -2 -13   -2.04    4.69   0 
   8  -1 -10    2.35    4.72   0 
   9   0 -11    1.79    4.52   0 
   9   1  -9    0.75    4.00   0 
   9   2  -8    2.88    4.70   0 
   9   4  -7    3.94    4.43   0 
  10   2 -11    7.12    4.67   0 
  -8   0 -10  101.28    5.19   0 
  -8   2  -6   57.05    5.31   0 
  -8   3  -5   11.59    4.94   0 
  -7  -2 -14   14.95    4.93   0 
  -6  -3 -15   14.25    4.65   0 
  -6  -2  -9   51.12    5.22   0 
  -6  -1  -6  384.32    6.31   0 
  -6   0  -4   31.83    4.84   0 
  -6   3  -1   21.71    5.46   0 
  -6   7  -1    3.31    6.40   0 
  -5  -2  -7   54.46    4.46   0 
  -4  -4 -13    5.76    5.67   0 
  -3  -4 -11   -0.80    4.86   0 
  -2  -5 -16   25.95    5.68   0 
  -2  -3  -6  571.44    7.87   0 
  -1  -5 -14   -0.60    6.17   0 
   0   7   2    3.47    7.68   0 
   1   3   2  469.60    9.14   0 
   2   5   2   49.79    5.17   0 
   3  -3  -7   -0.07    7.72   0 
   3   3   1  533.93    7.62   0 
   4   7   0    9.52    4.90   0 
   5   7  -1   12.62    5.12   0 
   6  -4 -17    4.54    7.03   0 
   6   6  -2   20.53    4.89   0 
   6   8  -3   13.75    4.80   0 
   7   1  -5   12.06    3.91   0 
   7   7  -4    6.18    4.85   0 
   8   1  -7   -1.48    3.71   0 
   8   6  -5   -0.06    3.83   0 
   9   5  -7    7.56    3.61   0 
  -9   2  -9    2.12    4.83   0 
  -8   1  -7    3.49    4.76   0 
  -8   4  -4   -0.18    4.78   0 
  -8   5  -4   31.27    5.25   0 
  -8   6  -4    0.84    6.02   0 
  -7  -2 -13    2.04    3.90   0 
  -7  -1  -8   74.95    5.03   0 
  -7   0  -6  195.76    5.61   0 
  -7   1  -4    4.81    4.66   0 
  -7   2  -3   10.56    5.07   0 
  -7   4  -2   72.56    5.07   0 
  -6  -3 -14    8.39    4.78   0 
  -6  -3 -13   30.16    5.02   0 
  -5  -3 -10   39.44    5.18   0 
  -5  -1  -4   17.74    4.77   0 
  -5   1  -1    3.98    5.14   0 
  -5   5   1   23.80    6.77   0 
  -4  -3  -8  329.21    5.93   0 
  -4  -2  -5  233.23    6.28   0 
  -2  -5 -15   56.75    6.12   0 
  -2  -4  -9   12.56    6.01   0 
   0  -5 -13    3.95    7.09   0 
   0  -2  -3   39.32    9.12   0 
   1  -5 -13   84.72   10.83   0 
   1   8   1   55.94    7.35   0 
   1  10  -1   14.54    6.40   0 
   3   6   1   44.17    5.96   0 
   3   9  -1    4.71    5.73   0 
   4  -4 -12   14.41    8.23   0 
   4   3   0   15.84    5.14   0 
   4   8  -1    7.71    5.60   0 
   5  -4 -14   60.81    7.82   0 
   5  -2  -7   66.63    5.81   0 
   5  -1  -5    0.76    5.08   0 
   5   8  -2    1.08    4.78   0 
   6  -3 -12   45.55    6.73   0 
   6   5  -2   19.63    4.75   0 
   7  -3 -15    5.26    5.80   0 
   7  -2 -11   18.35    5.24   0 
   8  -2 -14   27.06    5.42   0 
   8  -1 -11    0.83    4.85   0 
   8   0  -9    1.95    5.10   0 
   9  -1 -15    1.21    5.69   0 
   9   0 -12    5.49    4.77   0 
   9   1 -10   48.78    4.48   0 
   9   2  -9    8.75    4.93   0 
   9   4  -8    3.19    4.59   0 
  -9   3  -7    4.74    4.85   0 
  -8  -1 -12   -3.44    3.82   0 
  -8   0  -8   90.04    5.23   0 
  -8   1  -6  167.26    5.79   0 
  -8   2  -5   33.33    4.91   0 
  -8   3  -4   76.41    5.16   0 
  -7  -2 -11   44.78    5.11   0 
  -7   3  -2    2.00    4.95   0 
  -6  -3 -12   59.80    5.12   0 
  -6  -2  -8   30.99    4.94   0 
  -6   4   0   30.66    6.06   0 
  -6   5   0   97.12    6.43   0 
  -5  -4 -16   11.37    5.19   0 
  -5  -4 -15   28.75    4.86   0 
  -5  -3  -9   96.34    5.46   0 
  -4  -4 -12   33.92    4.88   0 
  -3  -4 -10  218.75    6.40   0 
  -2   1   1   22.09    6.86   0 
  -1  -5 -13  147.40    7.13   0 
   1   6   2   33.25    6.60   0 
   1   9   0    3.81    6.72   0 
   3   4   1  379.89    7.14   0 
   3   5   1   55.92    6.12   0 
   4  -1  -4    1.42    5.87   0 
   4   6   0   51.49    5.30   0 
   4   9  -2   -0.39    4.93   0 
   5   6  -1   29.31    4.97   0 
   6  -4 -18   -0.20    6.39   0 
   6  -2  -9    3.72    4.78   0 
   6   1  -4   24.33    4.70   0 
   6   7  -3   16.16    4.87   0 
   7  -1  -9   -1.25    4.70   0 
   7   0  -7    2.78    4.97   0 
   7   6  -4   -2.23    4.64   0 
   8  -2 -15    0.38    5.65   0 
   8   1  -8    6.38    4.78   0 
   8   2  -7    0.17    4.53   0 
   8   5  -6    5.34    4.64   0 
   8   6  -6    8.97    4.77   0 
   9   1 -11    6.89    4.84   0 
   9   5  -8    6.96    3.70   0 
  -9   1  -9    3.11    4.77   0 
  -9   4  -6   27.25    5.13   0 
  -8  -1 -11    8.37    3.96   0 
  -8   4  -3   58.31    5.18   0 
  -8   5  -3    3.44    4.92   0 
  -7  -2 -10   26.23    5.05   0 
  -7  -1  -7    8.53    4.83   0 
  -7   7  -2   10.16    5.76   0 
  -6  -1  -5    0.33    3.86   0 
  -6   0  -3    5.68    4.69   0 
  -6   6   0   19.58    5.96   0 
  -5  -4 -14    7.50    4.75   0 
  -5   8   0    1.72    7.67   0 
  -4  -4 -11   62.22    5.37   0 
  -4  -3  -7   25.62    5.16   0 
  -4   0  -1   13.83    3.93   0 
  -4   2   1   21.85    5.14   0 
  -4   5   2    8.94    7.07   0 
  -3  -5 -17    1.49    4.80   0 
  -3  -5 -16   17.88    5.56   0 
  -2  -5 -14   38.65    5.03   0 
  -2   0   0   58.87    6.60   0 
  -1  -4  -8  230.92    7.66   0 
   0  -4  -8  112.54    8.21   0 
   0  10  -1    1.69    7.62   0 
   2  -2  -4  529.80   11.73   0 
   2   7   1  166.49    7.04   0 
   4  -2  -6  567.90    8.84   0 
   4   5   0   29.58    5.17   0 
   5   0  -4    3.23    4.84   0 
   6   3  -3   28.81    4.56   0 
   6   8  -4   -4.77    4.74   0 
   7  -3 -16   12.93    5.70   0 
   7  -2 -12   10.06    5.68   0 
   7   1  -6  154.61    5.06   0 
   7   7  -5    9.45    4.49   0 
   8  -1 -12    1.86    4.99   0 
   8   0 -10   68.73    5.29   0 
   9   0 -13    6.58    4.80   0 
   9   2 -10    0.98    4.69   0 
  -9   1  -8   30.14    5.07   0 
  -9   2  -7   19.53    4.12   0 
  -9   3  -6    7.20    4.08   0 
  -8  -1 -10    4.76    3.83   0 
  -8   0  -7    3.72    4.62   0 
  -8   2  -4    7.31    4.85   0 
  -8   3  -3    3.87    4.80   0 
  -8   6  -3   42.71    5.34   0 
  -7   1  -3    2.95    4.76   0 
  -7   2  -2   94.79    5.49   0 
  -7   4  -1   39.80    5.26   0 
  -7   6  -1    1.47    5.73   0 
  -6  -2  -7   14.92    4.99   0 
  -6   8  -1   24.74    6.60   0 
  -5  -4 -13    9.31    4.92   0 
  -5  -3  -8    3.15    4.95   0 
  -5  -1  -3    7.19    4.65   0 
  -5   3   1    8.31    5.02   0 
  -4   4   2  182.60    6.84   0 
  -3  -5 -15   12.49    5.61   0 
  -3  -4  -9   37.43    5.09   0 
  -2  -5 -13   29.40    5.89   0 
  -2  -2  -3   17.98    5.46   0 
  -1  -3  -5  598.78    9.34   0 
  -1  10  -1    8.14    8.82   0 
   0  -5 -12  221.03    9.85   0 
   0  -3  -5  683.60   13.72   0 
   0   8   1    8.24    7.97   0 
   1   4   2    1.68    5.53   0 
   1   5   2  174.83    7.88   0 
   2   0  -1    0.44    6.01   0 
   2   1   0   12.57    5.95   0 
   3  -2  -5  259.83    7.91   0 
   3   2   0  259.94    6.33   0 
   3   7   0   35.85    6.10   0 
   4   2  -1   20.75    4.73   0 
   4   7  -1   73.03    6.16   0 
   5  -4 -15    3.31    6.74   0 
   5   1  -3   33.17    4.86   0 
   5   7  -2    7.19    4.87   0 
   6  -3 -13   10.23    6.31   0 
   6   6  -3    6.13    4.87   0 
   7  -3 -17    9.63    6.44   0 
   7   3  -5    5.91    4.56   0 
   8  -2 -16    7.66    5.00   0 
   8   1  -9    5.58    4.84   0 
   8   6  -7    4.88    4.66   0 
   9   0 -14    3.19    4.74   0 
   9   1 -12   26.42    4.90   0 
   9   3 -10   21.80    4.93   0 
  -9   2  -6   31.47    5.16   0 
  -9   3  -5    9.96    4.90   0 
  -8   0  -6   13.30    4.78   0 
  -7  -3 -13    6.51    4.72   0 
  -7  -2  -9    2.77    3.91   0 
  -7  -1  -6    7.11    4.77   0 
  -7   0  -4  131.85    5.31   0 
  -7   3  -1  201.63    5.95   0 
  -6  -3 -10   94.95    5.37   0 
  -6  -1  -4  328.57    6.09   0 
  -6   7   0    4.71    6.30   0 
  -5  -4 -12   52.73    5.37   0 
  -5  -2  -5    4.90    4.02   0 
  -4  -4 -10    0.58    4.83   0 
  -4   6   2   15.45    7.77   0 
  -3   1   1    6.08    5.38   0 
  -2  -4  -8    3.89    5.22   0 
  -2  -3  -5   70.17    5.43   0 
   0   9   0    1.88    7.48   0 
   2   8   0    1.84    5.37   0 
   2   9  -1   29.13    6.20   0 
   3  -5 -17   25.56   12.42   0 
   5  -2  -8   35.13    5.88   0 
   5   6  -2    9.00    5.57   0 
   5   8  -3   21.75    4.91   0 
   5   9  -4    2.07    4.78   0 
   6   0  -6  123.94    5.50   0 
   6   7  -4    3.69    4.79   0 
   7  -1 -10  128.13    5.69   0 
   7   0  -8    5.59    4.70   0 
   7   5  -5   10.45    4.55   0 
   7   6  -5   26.81    4.11   0 
   8  -2 -17    0.70    5.53   0 
   8  -1 -13    6.05    4.90   0 
   8   0 -11    1.87    4.80   0 
   9   4 -10    6.93    4.48   0 
  -9   0  -9    1.22    4.57   0 
  -9   1  -7    3.60    4.00   0 
  -9   4  -4   28.59    4.98   0 
  -8  -1  -8   28.88    4.90   0 
  -8   1  -4  226.41    6.19   0 
  -8   2  -3    6.85    4.94   0 
  -8   5  -2   24.58    4.95   0 
  -7  -3 -12   29.69    4.66   0 
  -7  -2  -8  119.85    5.32   0 
  -6  -3  -9   11.05    5.17   0 
  -6  -2  -6    8.05    4.70   0 
  -6   0  -2   54.04    4.97   0 
  -6   1  -1    1.34    5.22   0 
  -6   2   0  378.12    6.72   0 
  -5   0  -1   11.37    4.84   0 
  -5   1   0  167.58    5.79   0 
  -5   7   1   24.00    7.49   0 
  -4  -5 -16    6.36    5.93   0 
  -4  -3  -6  311.12    6.46   0 
  -4   3   2    2.56    5.72   0 
  -4   8   1    9.12    9.37   0 
  -3  -5 -13   45.20    6.67   0 
  -3  -2  -3    1.02    4.88   0 
  -3   0   0    4.51    4.25   0 
  -2  -5 -12   51.85    6.23   0 
  -2  -1  -1   30.80    5.82   0 
  -2   2   2  843.11   12.97   0 
  -1  -1  -1    1.16    7.85   0 
   0   3   2  740.59   15.56   0 
   0   6   2  211.19    9.93   0 
   2   3   1  487.84    8.08   0 
   2   6   1  112.76    6.53   0 
   3   0  -2  243.59    6.65   0 
   3   1  -1   10.05    4.88   0 
   3   8  -1   26.01    5.62   0 
   3   9  -2   -0.35    5.56   0 
   4   8  -2    3.00    4.78   0 
   4   9  -3   18.09    5.01   0 
   5  -3 -11   11.77    6.26   0 
   5  -1  -6  432.45    7.30   0 
   6  -1  -8    0.77    4.93   0 
   6   8  -5    3.76    4.70   0 
   7  -2 -13    3.97    4.98   0 
   7   1  -7    2.19    3.86   0 
   7   7  -6    0.82    4.52   0 
   8  -1 -14   12.98    5.58   0 
   8   3  -8   -0.10    4.52   0 
   8   6  -8    9.23    4.65   0 
   9   1 -13    5.02    4.63   0 
   9   2 -12    3.76    4.66   0 
   9   3 -11    6.24    4.74   0 
  -9   1  -6   27.24    4.96   0 
  -9   2  -5    1.49    4.74   0 
  -9   3  -4    5.39    4.72   0 
  -8  -2 -11    1.29    3.97   0 
  -8  -1  -7    2.05    4.57   0 
  -8   0  -5   -0.85    4.60   0 
  -8   3  -2  101.00    5.41   0 
  -8   6  -2   -0.71    5.00   0 
  -7  -3 -11    6.83    4.83   0 
  -7   1  -2   20.86    4.91   0 
  -7   2  -1    4.01    5.06   0 
  -7   5   0    9.72    5.73   0 
  -6   4   1  145.69    6.69   0 
  -6   5   1   30.49    6.19   0 
  -5   2   1   41.00    5.19   0 
  -4  -5 -15    5.67    5.68   0 
  -3  -4  -8   93.58    6.07   0 
  -3  -3  -5  138.08    5.76   0 
  -1   8   1  108.61   10.69   0 
   1   7   1    5.61    6.16   0 
   3  -4 -11   41.80    9.00   0 
   3   6   0    2.08    4.90   0 
   4  -4 -13   28.06    7.34   0 
   4   6  -1   55.26    5.09   0 
   5  -4 -16   24.93    6.93   0 
   5   7  -3   11.29    4.70   0 
   6   3  -4   -0.55    4.33   0 
   6   6  -4   17.09    4.76   0 
   7  -1 -11    2.50    5.23   0 
   7   0  -9    0.09    4.76   0 
   7   6  -6    3.95    4.74   0 
   8   0 -12   60.79    4.90   0 
   8   1 -10    0.24    3.73   0 
   8   2  -9    7.42    4.51   0 
   8   4  -8   28.20    4.78   0 
   8   5  -8    6.62    4.48   0 
   9   1 -14   20.08    4.81   0 
   9   4 -11   13.35    4.54   0 
  -9   0  -7    7.43    4.75   0 
  -7  -3 -10   19.35    4.71   0 
  -7  -2  -7    5.42    4.74   0 
  -7   0  -3    0.01    3.69   0 
  -7   4   0    4.02    4.91   0 
  -7   6   0   10.04    5.74   0 
  -6  -4 -13    2.71    4.80   0 
  -6  -3  -8   69.67    5.37   0 
  -6  -2  -5    5.69    4.65   0 
  -6  -1  -3   12.48    4.69   0 
  -6   3   1    7.10    6.02   0 
  -6   6   1   49.54    6.48   0 
  -5  -4 -10   55.78    5.07   0 
  -5  -2  -4  652.83    7.66   0 
  -5  -1  -2   29.79    4.68   0 
  -5   4   2   50.86    5.93   0 
  -5   5   2   29.36    6.72   0 
  -4  -5 -14   41.94    5.92   0 
  -4  -2  -3   65.04    5.26   0 
  -4   0   0 1096.82    8.95   0 
  -3  -5 -12    5.16    5.73   0 
  -3  -1  -1  163.44    5.91   0 
  -3   2   2  226.04    7.14   0 
  -1  -5 -11  173.81    8.31   0 
  -1   9   0    4.69    8.80   0 
   1  10  -2   -0.04    6.16   0 
   2   4   1    1.49    4.87   0 
   2   5   1   99.95    5.50   0 
   4   4  -1   48.84    5.38   0 
   5   0  -5    1.22    4.84   0 
   5   8  -4    0.82    4.73   0 
   6  -2 -11    1.79    5.52   0 
   6   0  -7   -0.32    4.84   0 
   6   7  -5   25.34    4.88   0 
   7  -2 -14   19.27    4.95   0 
   7   1  -8  138.98    5.42   0 
   7   2  -7    3.44    4.47   0 
   7   5  -6   21.39    4.63   0 
   7   7  -7   -1.93    4.74   0 
   8  -1 -15    6.07    4.83   0 
   8   3  -9    4.18    4.47   0 
   8   6  -9    7.26    4.64   0 
   9   2 -13    4.97    4.78   0 
   9   3 -12   10.84    4.68   0 
  -9  -1  -9    2.22    4.76   0 
  -9   2  -4   77.44    4.68   0 
  -9   3  -3   11.56    4.81   0 
  -9   4  -3   10.25    4.84   0 
  -8   0  -4   14.61    4.66   0 
  -8   1  -3   -4.31    3.89   0 
  -8   2  -2    7.22    4.99   0 
  -8   4  -1   64.22    5.40   0 
  -8   5  -1    7.21    5.07   0 
  -7   3   0    7.15    4.77   0 
  -6  -4 -12   24.33    5.08   0 
  -5  -3  -6   18.72    5.32   0 
  -4  -5 -13   41.26    6.09   0 
  -4  -4  -8   33.36    5.73   0 
  -4  -3  -5    2.38    5.31   0 
  -2  -5 -11    3.45    5.54   0 
  -2  -4  -7  361.97    7.57   0 
  -1  -4  -7   49.07    6.66   0 
   1   2   1   66.00    6.98   0 
   1   9  -1   -0.58    5.86   0 
   2   7   0    9.84    5.77   0 
   3   4   0   47.01    5.43   0 
   4  -2  -7    3.50    5.55   0 
   4  -1  -5    5.86    4.88   0 
   4   7  -2    6.87    4.62   0 
   4   9  -4    3.95    5.62   0 
   5  -4 -17    0.29    6.94   0 
   5   6  -3   24.87    4.86   0 
   6  -3 -15    3.97    5.53   0 
   6  -1  -9   -1.05    5.74   0 
   6   1  -6   14.84    4.70   0 
   6   8  -6    4.84    4.70   0 
   7  -2 -15   -0.31    5.45   0 
   8   0 -13   -0.92    4.75   0 
   8   1 -11   10.32    4.86   0 
   8   2 -10   81.22    5.21   0 
   8   5  -9   14.24    4.55   0 
   9   1 -15    0.67    4.86   0 
   9   3 -13    3.62    4.69   0 
   9   4 -12    1.73    3.80   0 
  -9  -1  -8   25.31    4.85   0 
  -9   0  -6   40.79    5.07   0 
  -8   3  -1   -0.81    5.01   0 
  -8   6  -1   40.40    6.06   0 
  -7  -3  -9   13.23    4.80   0 
  -7   0  -2  388.28    6.45   0 
  -7   1  -1   17.70    4.97   0 
  -6  -4 -11    5.16    4.91   0 
  -6  -3  -7    0.46    5.03   0 
  -6   1   0  333.35    6.52   0 
  -6   8   0   -1.28    6.76   0 
  -5  -5 -15    9.81    5.12   0 
  -5  -4  -9   47.14    5.01   0 
  -5   6   2    6.17    6.50   0 
  -4  -1  -1   31.80    4.79   0 
  -4   2   2  513.37    8.31   0 
  -3  -5 -11   72.98    6.49   0 
  -3  -4  -7   26.94    5.83   0 
   0  -5 -11    4.63    8.17   0 
   0   5   2    4.32    7.47   0 
   3  -3  -8  585.18   11.02   0 
   3   7  -1   13.87    4.98   0 
   3   9  -3   -0.19    6.00   0 
   4   8  -3    6.73    4.93   0 
   5  -3 -12  120.74    6.56   0 
   5  -1  -7    9.03    5.08   0 
   5   5  -3    6.98    4.79   0 
   6   3  -5   42.70    4.42   0 
   6   6  -5   23.07    4.82   0 
   7  -1 -12   85.58    5.41   0 
   7   0 -10    3.23    4.82   0 
   7   3  -7    3.70    4.32   0 
   7   5  -7    0.71    4.64   0 
   7   6  -7   23.89    4.07   0 
   8   3 -10    3.35    4.68   0 
  -9   1  -4   15.63    4.96   0 
  -9   5  -2    6.45    5.10   0 
  -8  -3 -11    4.36    4.68   0 
  -8  -1  -5   11.19    4.73   0 
  -8   1  -2  162.64    5.71   0 
  -8   2  -1    7.10    5.00   0 
  -7   2   0  255.15    6.25   0 
  -7   7   0   -1.69    5.68   0 
  -6  -2  -4    0.70    4.60   0 
  -6  -1  -2  616.34    7.42   0 
  -6   2   1    9.21    5.10   0 
  -6   7   1    4.86    6.04   0 
  -5  -5 -14    9.20    4.93   0 
  -5  -2  -3   33.32    5.22   0 
  -4  -5 -12   31.63    4.95   0 
  -4   7   2    8.65    9.68   0 
  -2  -3  -4   93.95    6.43   0 
   0  10  -2    7.60    6.98   0 
   2   8  -1    7.89    5.54   0 
   2   9  -2    5.40    5.41   0 
   3  -1  -4 1270.15   12.05   0 
   3   8  -2    2.49    4.86   0 
   4   0  -4  388.18    6.87   0 
   4   1  -3    9.80    4.55   0 
   5  -4 -18   16.38    6.94   0 
   5   7  -4    5.47    4.76   0 
   5   8  -5   13.13    4.72   0 
   6  -3 -16   38.91    6.26   0 
   6   7  -6    1.17    4.67   0 
   6   8  -7    6.36    4.64   0 
   7  -2 -16   15.06    5.69   0 
   7   1  -9    1.85    4.85   0 
   7   2  -8    1.51    4.58   0 
   7   4  -7   43.73    4.04   0 
   8  -1 -17    2.62    4.84   0 
   8   0 -14   27.28    4.95   0 
   8   1 -12    1.82    3.98   0 
   8   2 -11   -3.69    4.68   0 
   8   4 -10   31.34    4.69   0 
   8   5 -10    3.52    4.50   0 
   9   2 -15   10.41    4.03   0 
  -9  -1  -7    4.56    3.81   0 
  -9   0  -5   -1.60    3.81   0 
  -8  -2  -7   -0.75    3.90   0 
  -8   0  -3    5.18    3.97   0 
  -8   4   0    9.97    5.08   0 
  -8   5   0   18.53    5.75   0 
  -7  -4 -12   11.21    4.74   0 
  -7  -2  -5    3.55    4.68   0 
  -7  -1  -3    1.10    3.89   0 
  -7   3   1   16.05    5.48   0 
  -7   4   1    6.93    5.12   0 
  -7   5   1   92.82    5.78   0 
  -6   4   2  158.31    6.73   0 
  -5  -5 -13    9.49    5.00   0 
  -5  -4  -8  141.05    5.67   0 
  -5  -3  -5  240.83    6.22   0 
  -5  -1  -1    2.27    4.43   0 
  -5   8   1   20.65    9.06   0 
  -3  -3  -4  602.53    7.80   0 
  -3  -2  -2  318.21    6.50   0 
  -2  -5 -10    5.67    5.50   0 
  -2  -2  -2  663.51    8.89   0 
  -1  -6 -17   14.48    7.06   0 
   2   2   0 1627.64   12.79   0 
   4  -4 -14   21.83    6.99   0 
   4   3  -2    1.07    4.83   0 
   4   5  -2    7.91    4.93   0 
   4   9  -5   15.13    5.71   0 
   5   0  -6    1.51    4.97   0 
   5   2  -4   41.83    4.50   0 
   6   0  -8  136.27    5.62   0 
   6   1  -7   13.93    4.74   0 
   6   2  -6  140.51    5.31   0 
   7  -2 -17    6.40    5.73   0 
   7   0 -11    5.00    4.80   0 
   7   3  -8   23.39    4.51   0 
   7   6  -8   -3.53    4.67   0 
   7   7  -9   -1.64    4.83   0 
   8   0 -15   -0.07    4.76   0 
   8   1 -13    2.51    4.79   0 
   8   3 -11   26.87    4.73   0 
 -10   2  -4   21.53    4.86   0 
  -9   0  -4  102.26    5.24   0 
  -9   1  -3    1.89    4.80   0 
  -9   2  -2   92.15    5.32   0 
  -8  -3  -9    7.23    4.76   0 
  -8   3   0   50.75    5.26   0 
  -7  -3  -7   23.47    4.85   0 
  -7   0  -1    6.04    4.73   0 
  -7   1   0   42.12    5.19   0 
  -7   6   1   18.82    5.91   0 
  -6  -4  -9   21.11    4.98   0 
  -6   3   2   94.28    6.33   0 
  -6   5   2   12.98    5.86   0 
  -5  -5 -12   17.91    4.80   0 
  -5   2   2  288.97    6.46   0 
  -4  -3  -4  427.12    7.09   0 
  -4  -2  -2  200.32    6.03   0 
  -3  -5 -10    0.77    5.62   0 
  -3   4   3   62.77    7.57   0 
  -2  -6 -17    5.77    5.64   0 
  -1  -5 -10   25.09    6.65   0 
  -1  -3  -4   91.13    6.17   0 
   0  -4  -7  211.64    9.82   0 
   1  10  -3    8.80    6.33   0 
   2   6   0    5.26    5.44   0 
   4   7  -3   86.27    5.23   0 
   5  -4 -19    4.07    6.25   0 
   5  -3 -13   50.12    6.00   0 
   5   1  -5    0.17    4.60   0 
   5   6  -4   -0.06    4.75   0 
   6  -2 -13   18.34    6.49   0 
   6   6  -6    8.20    4.68   0 
   6   7  -7   44.13    5.15   0 
   6   8  -8   -2.12    4.77   0 
   7  -2 -18   10.39    5.88   0 
   7   1 -10  118.69    5.43   0 
   7   2  -9   15.52    4.62   0 
   7   4  -8    0.01    4.42   0 
   7   5  -8   14.60    3.79   0 
   8   0 -16   17.24    5.16   0 
   8   2 -12   51.08    4.61   0 
  -9  -2  -8   12.45    4.72   0 
  -9   3  -1   23.25    5.00   0 
  -9   4  -1    6.62    4.88   0 
  -9   5  -1   27.91    5.23   0 
  -8   0  -2   13.25    4.81   0 
  -8   1  -1    8.23    4.91   0 
  -8   2   0    7.03    5.09   0 
  -8   6   0    2.43    4.99   0 
  -7  -4 -10   11.20    5.07   0 
  -7  -1  -2   23.42    4.75   0 
  -7   2   1   12.73    5.05   0 
  -6  -3  -5   33.97    4.93   0 
  -6   0   0  135.04    5.62   0 
  -6   1   1   17.56    5.21   0 
  -6   6   2   29.51    6.46   0 
  -5  -4  -7    3.58    4.87   0 
  -4  -5 -10   52.85    6.17   0 
  -4   0   1    0.93    4.69   0 
  -4   4   3   10.68    6.18   0 
  -4   5   3  111.93    8.72   0 
  -3   0   1    0.67    5.15   0 
  -2  -6 -16   -0.15    5.65   0 
  -1  -6 -16    9.00    7.00   0 
   0   9  -1   18.54    7.13   0 
   2  -1  -3  298.89    8.95   0 
   3   0  -3   -0.32    4.96   0 
   3   5  -1   21.46    5.00   0 
   3   7  -2    3.55    5.53   0 
   5   7  -5    8.01    4.79   0 
   5   8  -6    4.47    5.00   0 
   6  -3 -18   11.94    5.87   0 
   6   3  -6    6.88    3.52   0 
   6   4  -6   61.10    4.88   0 
   6   5  -6    1.90    4.59   0 
   7  -1 -14   78.56    5.51   0 
   7   0 -12    2.26    5.08   0 
   7   6  -9   35.56    4.87   0 
   8   1 -14   15.17    4.79   0 
   8   2 -13    2.05    4.85   0 
   8   3 -12    7.65    4.37   0 
   8   4 -12   13.91    4.75   0 
   8   5 -12    7.72    4.44   0 
 -10   1  -4   12.94    4.83   0 
 -10   2  -3    8.27    4.95   0 
  -9  -2  -7   19.68    4.93   0 
  -9   0  -3    1.28    4.82   0 
  -9   1  -2   -0.89    4.87   0 
  -9   2  -1   -2.33    4.81   0 
  -8  -3  -8   31.08    4.92   0 
  -8  -1  -3   -1.49    4.45   0 
  -7  -3  -6    8.28    4.73   0 
  -6  -5 -13   14.65    5.20   0 
  -6  -4  -8   11.52    4.02   0 
  -6  -1  -1    1.52    3.86   0 
  -5  -5 -11    4.26    4.86   0 
  -5  -3  -4   12.22    4.95   0 
  -4  -4  -6    9.19    5.09   0 
  -4  -1   0  290.21    5.87   0 
  -4   1   2  423.01    7.07   0 
  -4   3   3  264.25    8.29   0 
  -3  -6 -16    7.71    5.69   0 
  -3  -6 -15   22.18    6.73   0 
  -3  -1   0 1044.07    9.63   0 
  -3   1   2 1195.26   11.03   0 
  -3   3   3  122.20    7.94   0 
  -2  -6 -15   19.52    6.69   0 
  -1  -2  -2  275.36    7.88   0 
   0   8   0   -0.40    6.75   0 
   1  -1  -2 2996.13   31.59   0 
   1   3   1   13.34    5.92   0 
   1   7   0   16.47    6.42   0 
   2   9  -3   22.38    5.81   0 
   3   8  -3   34.26    5.79   0 
   4   2  -3   35.52    4.81   0 
   4   6  -3   25.52    4.83   0 
   4   9  -6    3.57    5.73   0 
   6  -3 -19    1.32    5.77   0 
   6   0  -9   -1.65    4.99   0 
   6   1  -8    2.45    4.49   0 
   6   2  -7   -2.90    4.29   0 
   6   6  -7    0.88    4.70   0 
   7  -1 -15    6.35    4.94   0 
   7   1 -11    2.28    4.71   0 
   7   2 -10   -1.40    4.85   0 
   7   3  -9    2.86    3.71   0 
   7   4  -9   59.57    4.85   0 
   8   0 -17    2.37    4.77   0 
   8   1 -15    5.88    4.78   0 
 -10   0  -5    0.04    3.80   0 
  -9   4   0   40.80    5.96   0 
  -8   4   1   63.19    5.54   0 
  -8   5   1    4.42    6.07   0 
  -7  -4  -9    7.90    3.76   0 
  -7   4   2  104.36    6.67   0 
  -7   5   2    3.66    5.69   0 
  -7   7   1   36.00    6.64   0 
  -6  -5 -12   11.20    4.85   0 
  -6   2   2  311.00    6.57   0 
  -5  -5 -10    3.46    5.03   0 
  -5   4   3  137.95    6.81   0 
  -4  -5  -9   24.91    5.89   0 
  -2  -5  -9    8.66    5.86   0 
  -2   0   1    1.43    5.01   0 
  -1  -4  -6  296.58    9.11   0 
   1   1   0  981.35   14.26   0 
   1   4   1   19.12    5.67   0 
   2   1  -1   16.97    4.77   0 
   4   7  -4    3.13    5.47   0 
   5  -3 -14   24.06    5.99   0 
   5   0  -7    0.32    4.94   0 
   5   8  -7   18.93    4.87   0 
   6   3  -7   89.67    5.13   0 
   6   5  -7   51.21    5.12   0 
   6   7  -8    5.20    4.69   0 
   7   0 -13    2.19    4.95   0 
   7   6 -10   -0.77    3.94   0 
   8   1 -16    7.53    4.90   0 
   8   2 -14   29.12    4.11   0 
   8   4 -13   -0.16    3.90   0 
 -10   0  -4    9.59    4.98   0 
 -10   1  -3    6.35    4.90   0 
  -9  -2  -6   21.42    4.23   0 
  -9  -1  -4    9.11    3.75   0 
  -9   1  -1   18.99    4.92   0 
  -9   3   0   10.08    4.88   0 
  -9   5   0    3.71    5.21   0 
  -8  -2  -4    3.48    4.68   0 
  -8   0  -1    0.80    4.04   0 
  -8   6   1   11.95    5.87   0 
  -7  -1  -1   13.51    4.81   0 
  -7   0   0  318.63    5.56   0 
  -7   1   1    1.97    5.30   0 
  -7   3   2   69.67    5.54   0 
  -6  -5 -11    6.05    5.10   0 
  -6  -2  -2    5.27    3.89   0 
  -5  -4  -6  100.82    5.66   0 
  -5  -1   0  133.54    4.68   0 
  -5   1   2 1068.96    9.50   0 
  -5   3   3  104.23    6.42   0 
  -4  -6 -15    4.10    5.68   0 
  -4  -3  -3   23.28    5.47   0 
  -3  -6 -14   12.28    5.74   0 
  -3  -3  -3   33.28    5.43   0 
  -2  -1   0   14.37    5.93   0 
   3   6  -2    8.98    5.85   0 
   4   0  -5   -0.22    4.39   0 
   4   1  -4    1.48    3.75   0 
   4   4  -3    6.75    5.10   0 
   5  -2 -11    7.66    5.95   0 
   5   5  -5   10.21    4.75   0 
   5   7  -6   -1.50    4.58   0 
   6  -1 -12    8.75    5.66   0 
   6   4  -7    5.33    4.62   0 
   7  -1 -16   15.99    5.13   0 
   7   1 -12   82.46    5.55   0 
   7   2 -11   10.23    4.91   0 
   7   3 -10   46.32    4.12   0 
   7   4 -10    1.85    4.71   0 
   7   5 -10   16.89    3.90   0 
   7   6 -11   24.19    4.90   0 
   8   1 -17    3.66    4.90   0 
   8   2 -15    2.35    4.80   0 
   8   3 -14    1.87    4.09   0 
   8   4 -14    6.34    4.93   0 
 -10  -1  -5   -2.75    4.75   0 
  -9  -1  -3    0.57    4.63   0 
  -9   2   0   66.58    5.11   0 
  -8  -3  -6   61.01    5.32   0 
  -7   2   2  103.19    6.10   0 
  -6  -4  -6   -0.65    4.92   0 
  -6  -1   0  287.20    6.25   0 
  -6   0   1    6.80    5.29   0 
  -6   1   2  245.76    6.44   0 
  -5  -3  -3   72.07    5.58   0 
  -4  -4  -5    9.78    4.97   0 
  -4  -2  -1    8.78    5.46   0 
  -3  -2  -1    3.57    4.93   0 
  -2  -3  -3   46.04    5.61   0 
   3   9  -5    2.59    5.08   0 
   4   9  -7   10.04    4.93   0 
   5  -1  -9    3.28    4.98   0 
   5   4  -5  143.29    5.50   0 
   6   1  -9    2.17    4.69   0 
   6   2  -8  219.20    5.63   0 
   6   6  -8    0.74    3.99   0 
   7  -1 -17    5.20    4.83   0 
   7   0 -14    8.76    4.92   0 
   7   5 -11   -0.46    4.70   0 
   8   3 -15    2.81    5.08   0 
   8   4 -15    5.45    4.82   0 
  -5  -2  -1  172.17    4.82   0 
   7   3 -11   12.82    3.93   0 
  -8  -2  -8  125.79    5.96   0 
  -8   0  -8   99.24    4.58   0 
  -8   2 -10   46.15    3.75   0 
  -7   1  -6   15.10    4.17   0 
  -7   2  -7    2.04    3.53   0 
  -6   2  -5   10.51    3.67   0 
  -6   3  -6  206.53    4.25   0 
  -6   4  -8    7.12    3.04   0 
  -6   5 -10   48.65    3.28   0 
  -5  -5  -5  156.58    5.86   0 
  -5   4  -6  111.26    3.43   0 
  -5   5  -8    4.52    2.96   0 
  -5   6 -11   28.33    2.48   0 
  -4  -8  -9   29.13    3.29   0 
  -4  -7  -7    0.92    4.02   0 
  -4  -6  -5  217.56    4.72   0 
  -4   6  -9   54.59    2.63   0 
  -4   7 -12   10.38    2.72   0 
  -3  -8  -8   -0.03    3.58   0 
  -3  -6  -4    3.52    3.06   0 
  -2  -8  -7   28.63    3.22   0 
  -2  -7  -5   11.42    3.43   0 
  -2   3  -2   22.93    2.97   0 
  -1  -6  -3  139.67    3.76   0 
  -1  -4  -1   19.51    3.23   0 
  -1   2  -1   59.22    3.03   0 
  -1   6  -6   16.03    3.02   0 
  -1   8 -12    5.03    2.77   0 
   0  -8  -6    9.59    2.46   0 
   0  -6  -3    5.47    3.24   0 
   0  -4  -1    6.19    3.29   0 
   0   6  -6    5.10    3.16   0 
   1  -6  -3  107.33    3.56   0 
   1  -5  -2   18.67    3.32   0 
   1   6  -6   58.58    3.43   0 
   2  -9  -9    6.37    2.97   0 
   2   8 -12    2.87    2.69   0 
   3  -8  -7   26.94    2.80   0 
   3  -6  -4   16.21    3.03   0 
   3  -4  -2    1.05    2.73   0 
   3  -2  -1  325.34    4.45   0 
   3   6  -7   17.76    3.02   0 
   4   5  -6   -2.69    2.84   0 
   5  -8  -9   12.20    2.38   0 
   5   6  -9   18.54    3.20   0 
   6  -6  -7    0.35    2.78   0 
   7   5 -10    9.74    4.02   0 
   8  -2  -7   -3.19    3.46   0 
   8   5 -12    1.96    5.32   0 
   9  -1  -9    1.61    3.73   0 
  -8   3 -11    9.55    3.31   0 
  -7   3  -8   24.03    3.00   0 
  -7   4 -10   22.53    3.13   0 
  -6   1  -4  346.18    4.94   0 
  -5  -4  -4   16.72    5.92   0 
  -5   6 -10   10.21    2.86   0 
  -4   5  -6   10.00    2.96   0 
  -4   6  -8    0.98    2.75   0 
  -4   7 -11   12.99    2.83   0 
  -3  -7  -6    0.41    3.65   0 
  -3  -5  -3  126.35    4.08   0 
  -3   1  -1  151.70    4.50   0 
  -3   6  -7    5.39    2.80   0 
  -3   7 -10   -1.48    2.20   0 
  -2   4  -3  178.47    3.52   0 
  -2   7  -9    6.31    2.35   0 
  -2   8 -12    0.83    2.76   0 
  -1  -8  -7   13.96    3.67   0 
  -1   5  -4  199.66    3.89   0 
  -1   7  -8    3.31    2.89   0 
   0  -9  -9    0.35    2.93   0 
   0  -5  -2    4.18    3.34   0 
   0   7  -8   15.86    3.19   0 
   0   8 -11   21.57    2.90   0 
   1  -9  -9    9.32    2.48   0 
   1   7  -8   15.80    2.98   0 
   2  -7  -5   70.29    2.99   0 
   2   4  -3    5.43    3.56   0 
   2   6  -6   84.63    3.34   0 
   3  -1  -1    6.42    3.24   0 
   3   5  -5    8.80    2.72   0 
   3   8 -12    0.98    2.69   0 
   4  -6  -5   -0.10    2.90   0 
   4  -4  -3    4.21    3.05   0 
   4   7 -10    2.77    2.70   0 
   5  -6  -6    1.26    3.02   0 
   5   7 -11    6.63    3.16   0 
   6  -7  -9   25.19    3.06   0 
   6  -5  -6    4.54    2.95   0 
   6   5  -8    1.48    4.39   0 
   6   6 -10   12.59    3.62   0 
   7   6 -12   -0.13    3.90   0 
   8  -1  -7    1.69    3.56   0 
  10   0 -12   23.94    4.12   0 
  -8   1  -8   46.42    3.78   0 
  -8   2  -9    4.04    3.44   0 
  -6  -5  -7    6.54    5.78   0 
  -6   4  -7   98.99    3.63   0 
  -6   5  -9   34.94    3.19   0 
  -5  -7  -9   19.56    4.14   0 
  -5   3  -4    9.28    3.22   0 
  -4  -5  -4  123.54    4.85   0 
  -4   3  -3   23.34    3.36   0 
  -4   4  -4    6.79    3.03   0 
  -3   7  -9   13.12    2.96   0 
  -2   2  -1  547.69    5.23   0 
  -2   5  -4   61.63    3.13   0 
  -2   6  -6   21.02    2.44   0 
  -1  -9 -10    3.44    3.01   0 
  -1  -7  -5   93.17    3.49   0 
  -1   8 -11    0.88    2.30   0 
   0  -8  -7   18.80    3.05   0 
   0  -7  -5  140.86    3.77   0 
   1  -9 -10   -1.95    2.99   0 
   1  -8  -7   23.13    2.97   0 
   1  -7  -5    1.49    3.11   0 
   2  -9 -10    4.62    3.04   0 
   2  -6  -4   60.68    3.28   0 
   2   7  -8    8.38    2.87   0 
   2   8 -11   11.49    2.83   0 
   3  -8  -8    0.10    2.90   0 
   3  -7  -6    6.95    3.01   0 
   4  -7  -7   16.61    2.98   0 
   4  -5  -4    3.86    2.88   0 
   5  -8 -10    2.15    2.28   0 
   5  -5  -5    4.35    2.87   0 
   5  -2  -3    3.91    3.05   0 
   7  -5  -8   13.06    2.81   0 
   8  -5 -10    0.20    2.69   0 
   8  -3  -8    1.83    2.85   0 
   9  -3 -10   17.12    2.78   0 
  10  -1 -12    1.18    3.30   0 
  -8   3 -10    2.32    3.02   0 
  -7  -1  -5   72.55    4.65   0 
  -7   0  -5    2.31    3.98   0 
  -7   2  -6  253.88    5.03   0 
  -7   3  -7   31.71    3.66   0 
  -7   4  -9    5.46    3.02   0 
  -6   6 -11    4.27    2.92   0 
  -5  -6  -7   -1.84    4.19   0 
  -5   2  -3   32.98    3.43   0 
  -5   4  -5   82.47    3.38   0 
  -5   6  -9   12.08    2.35   0 
  -4   2  -2  215.88    4.03   0 
  -4   7 -10    3.68    2.81   0 
  -3  -8  -9   -2.17    3.70   0 
  -3  -2  -1    5.81    7.37   0 
  -3   3  -2  498.93    4.58   0 
  -3   4  -3   62.97    3.13   0 
  -2  -8  -8    6.05    3.09   0 
  -2  -6  -4   65.01    3.48   0 
  -2  -3  -1  475.20    6.20   0 
  -2   7  -8    1.87    2.38   0 
  -2   8 -11   32.96    3.01   0 
  -1   8 -10    4.56    2.91   0 
   0  -9 -10    3.31    2.93   0 
   0   7  -7   89.64    3.22   0 
   0   8 -10    2.92    2.82   0 
   2  -5  -3  309.99    4.37   0 
   2   5  -4   11.45    3.03   0 
   4   6  -7   32.38    3.36   0 
   4   8 -12    5.95    3.31   0 
   5  -1  -3   30.52    3.66   0 
   5   0  -3    0.07    3.87   0 
   6  -7 -10    2.66    2.81   0 
   6  -6  -8    2.35    2.91   0 
   6   2  -5   19.57    6.57   0 
   7  -6 -10    2.44    2.78   0 
   8  -4  -9   -0.05    2.78   0 
   9  -2 -10   -1.76    3.29   0 
   9   1 -10   40.62    4.39   0 
  -8   0  -7    0.11    3.85   0 
  -6   2  -4    4.16    3.78   0 
  -6   3  -5   39.40    3.31   0 
  -6   4  -6   -6.11    3.02   0 
  -6   5  -8   37.68    3.27   0 
  -5   0  -2  446.39    6.14   0 
  -5   5  -6    1.16    3.01   0 
  -5   6  -8    9.29    3.05   0 
  -4  -7  -8    5.29    4.07   0 
  -4   5  -5   11.60    2.99   0 
  -3   6  -6   83.58    2.75   0 
  -3   7  -8    1.24    2.78   0 
  -3   8 -11    4.30    2.73   0 
  -2  -7  -6    5.80    3.12   0 
  -2   8 -10    3.12    2.84   0 
  -1  -8  -8    7.46    3.08   0 
  -1  -6  -4    4.28    3.28   0 
  -1   6  -5   16.73    2.59   0 
  -1   7  -7   85.27    3.30   0 
   0  -6  -4    4.24    3.78   0 
   1  -8  -8    0.43    2.91   0 
   1  -6  -4   43.11    3.45   0 
   1  -3  -1  116.57    3.54   0 
   1   7  -7   70.59    3.17   0 
   2  -7  -6   -2.55    2.33   0 
   2   8 -10    2.79    2.81   0 
   3  -8  -9   10.84    2.96   0 
   3  -6  -5   25.32    3.12   0 
   3  -3  -2  349.30    4.50   0 
   3   6  -6    4.13    2.95   0 
   3   7  -8    4.88    2.82   0 
   4  -8 -10    0.47    2.84   0 
   4  -6  -6   39.29    3.20   0 
   4   7  -9   31.26    2.93   0 
   5  -7  -9    6.42    2.79   0 
   5  -6  -7   69.72    3.45   0 
   5   4  -5  143.26    6.36   0 
   5   6  -8    6.27    3.59   0 
   6  -5  -7   40.65    3.29   0 
   6  -4  -6   53.54    3.41   0 
   6  -3  -5   41.42    3.48   0 
   6   7 -12    2.52    3.22   0 
   9  -4 -12    3.78    2.78   0 
   9  -3 -11    2.28    3.41   0 
  -8  -1  -7    1.52    4.03   0 
  -8   1  -7    2.33    3.57   0 
  -8   2  -8   99.61    3.73   0 
  -8   3  -9   12.03    3.07   0 
  -7   1  -5   72.39    3.45   0 
  -7   4  -8   35.54    3.14   0 
  -7   5 -10    7.58    2.86   0 
  -6   6 -10    1.57    2.31   0 
  -5  -7 -10    0.77    4.31   0 
  -5  -1  -2   28.55    4.78   0 
  -4  -6  -6    7.16    3.99   0 
  -3   2  -1    6.12    3.11   0 
  -2  -4  -2  157.64    4.54   0 
  -2   6  -5   50.99    2.48   0 
  -2   7  -7   11.65    2.39   0 
  -1   4  -2    0.96    2.39   0 
  -1   5  -3   91.05    3.65   0 
  -1   8  -9    4.75    2.89   0 
   0  -7  -6    1.31    3.13   0 
   0   5  -3  414.17    4.59   0 
   0   8  -9   34.72    2.95   0 
   1  -7  -6   -3.13    3.12   0 
   1  -5  -3    9.98    3.45   0 
   1   8  -9   13.45    2.79   0 
   2  -2  -1   30.28    3.29   0 
   2   6  -5    7.12    3.52   0 
   2   7  -7   52.02    3.04   0 
   3  -7  -7    3.39    2.34   0 
   4  -7  -8    1.48    2.34   0 
   5  -3  -4  102.51    3.74   0 
   5   7 -10    3.35    3.11   0 
   6  -7 -11    3.71    2.73   0 
   6  -6  -9    3.14    2.93   0 
   7  -5  -9    2.88    2.82   0 
   7  -4  -8    3.80    2.88   0 
   7  -3  -7    0.66    2.80   0 
   8  -3  -9    8.16    3.43   0 
   8   1  -8    7.42    4.02   0 
   9  -1 -10   40.18    3.66   0 
   9   0 -10    3.50    3.71   0 
  -7   3  -6    8.08    3.09   0 
  -6   0  -3    0.73    3.53   0 
  -6   5  -7   10.02    2.96   0 
  -5   1  -2   28.01    3.15   0 
  -5   3  -3   70.77    3.41   0 
  -5   4  -4   18.26    3.01   0 
  -5   6  -7    2.75    2.96   0 
  -5   7 -10    0.91    2.18   0 
  -4   0  -1    5.34    3.61   0 
  -4   4  -3  403.43    4.40   0 
  -4   6  -6   12.49    3.02   0 
  -4   7  -8    2.79    2.67   0 
  -3  -8 -10    0.40    3.04   0 
  -3   8 -10    3.20    2.78   0 
  -2   8  -9   48.81    3.12   0 
  -1  -5  -3   99.63    4.11   0 
  -1  -3  -1   14.57    3.40   0 
  -1   3  -1   12.56    2.49   0 
  -1   7  -6   20.99    3.14   0 
   0  -5  -3  456.37    4.92   0 
   0  -3  -1  196.60    4.24   0 
   0   7  -6    3.02    3.02   0 
   1  -4  -2   32.52    2.99   0 
   1   4  -2   27.62    3.27   0 
   1   5  -3   10.26    3.12   0 
   2  -7  -7   49.25    3.29   0 
   2  -6  -5    4.14    2.90   0 
   2   8  -9   11.20    2.79   0 
   3  -8 -10    0.78    2.86   0 
   3   8 -10    1.88    2.84   0 
   4  -8 -11    9.53    2.43   0 
   4  -5  -5  148.84    3.10   0 
   5  -7 -10    1.50    2.73   0 
   5  -6  -8    5.95    2.79   0 
   5  -4  -5  143.03    3.34   0 
   5   5  -6   76.30    4.93   0 
   6  -2  -5   17.17    3.59   0 
   7   6 -11   16.96    4.54   0 
   8  -5 -12    4.36    2.81   0 
   9  -2 -11    4.44    3.48   0 
   9   2 -11    4.95    4.86   0 
  -8   2  -7    0.14    3.59   0 
  -8   3  -8   38.81    3.26   0 
  -7  -2  -5    4.25    6.37   0 
  -7   2  -5    3.58    3.11   0 
  -6  -1  -3   12.72    4.65   0 
  -6   1  -3   13.56    3.19   0 
  -6   3  -4  231.75    4.34   0 
  -6   4  -5  115.11    3.67   0 
  -5   5  -5  160.83    3.90   0 
  -5   7  -9   20.84    3.03   0 
  -4   1  -1   26.80    3.81   0 
  -4   3  -2  236.59    4.17   0 
  -4   5  -4  127.76    3.31   0 
  -3   8  -9    3.58    2.90   0 
  -2  -7  -7   10.68    3.60   0 
  -2  -6  -5   62.18    3.89   0 
  -2   3  -1  518.56    4.84   0 
  -2   7  -6    2.65    3.04   0 
  -1  -8  -9    5.44    3.05   0 
  -1  -4  -2    2.09    3.60   0 
  -1   6  -4   10.88    2.96   0 
  -1   8  -8    4.88    2.89   0 
   0  -8  -9   26.35    3.25   0 
   0  -4  -2 1000.61    6.55   0 
   0   6  -4    3.73    3.11   0 
   0   8  -8    3.98    2.80   0 
   1  -8  -9   10.33    2.34   0 
   1   7  -6    0.57    2.88   0 
   1   8  -8   -0.92    2.79   0 
   2   2  -1   26.15    5.25   0 
   3  -7  -8    3.94    2.85   0 
   3  -6  -6    0.44    2.86   0 
   3   5  -4   93.47    3.75   0 
   3   7  -7    4.16    3.32   0 
   4  -8 -12    3.88    2.70   0 
   4  -7  -9   21.64    2.99   0 
   4  -6  -7   19.49    3.01   0 
   4   7  -8    0.01    3.27   0 
   6  -7 -12    3.96    2.26   0 
   6  -6 -10    9.15    3.05   0 
   6  -5  -8    1.27    3.02   0 
   6   6  -9    1.64    3.87   0 
   6   7 -11    4.62    3.65   0 
   7  -6 -12    2.20    2.90   0 
   7  -5 -10   13.05    3.06   0 
   9  -3 -12    3.66    2.89   0 
   9   3 -12    5.88    5.49   0 
  -9   0  -9   -0.93    3.35   0 
  -9   1  -9    3.36    3.56   0 
  -8  -2  -7    3.48    5.79   0 
  -8   0  -6   14.52    3.99   0 
  -8   4  -9    8.63    2.95   0 
  -7   5  -8    6.36    3.00   0 
  -6   2  -3  341.99    5.10   0 
  -6   5  -6   39.51    3.17   0 
  -6   6  -8    4.50    2.88   0 
  -5  -6  -8   10.94    4.49   0 
  -5   2  -2  511.72    4.99   0 
  -4  -7  -9    0.07    3.48   0 
  -4  -1  -1   29.01    5.94   0 
  -4   6  -5  224.61    3.97   0 
  -4   7  -7    2.59    2.88   0 
  -3  -8 -11    2.66    3.58   0 
  -3  -7  -8    3.63    3.52   0 
  -3  -5  -4  102.57    4.07   0 
  -3   4  -2  172.35    3.05   0 
  -3   5  -3  137.66    3.41   0 
  -2  -8 -10    1.42    3.06   0 
  -2   0   0   56.07    5.14   0 
  -2   6  -4   66.52    2.52   0 
  -2   8  -8    2.20    2.73   0 
   0  -7  -7   79.16    3.58   0 
   1  -7  -7   78.32    3.54   0 
   1  -6  -5  636.01    4.93   0 
   1   3  -1  111.18    4.41   0 
   1   6  -4   38.61    3.29   0 
   2  -5  -4   13.23    2.52   0 
   2  -3  -2  374.13    4.50   0 
   2   7  -6   -1.45    3.47   0 
   3  -8 -11    7.37    3.02   0 
   3  -2  -2  197.85    4.07   0 
   3   8  -9    8.57    3.40   0 
   4   6  -6   64.62    4.07   0 
   5  -7 -11    6.82    2.87   0 
   5  -2  -4   44.03    3.38   0 
   6  -4  -7    3.52    3.14   0 
   6  -3  -6    3.36    3.26   0 
   7  -2  -7    2.03    2.74   0 
   8  -5 -13    4.35    2.97   0 
   8  -4 -11    0.03    2.83   0 
   8  -3 -10    0.64    3.44   0 
   8  -2  -9    1.29    2.85   0 
   9  -1 -11    4.66    3.33   0 
  -9  -1  -9    2.81    4.36   0 
  -9   2  -9   -2.96    3.48   0 
  -8   1  -6  175.59    4.53   0 
  -8   3  -7   10.05    3.12   0 
  -7  -5 -10    3.81    5.95   0 
  -7   1  -4   -1.14    3.76   0 
  -7   3  -5   44.42    3.31   0 
  -7   4  -6   42.17    3.19   0 
  -6  -6 -10    1.16    4.29   0 
  -5  -5  -6    3.83    4.66   0 
  -5   6  -6   15.04    2.54   0 
  -5   7  -8    1.53    2.38   0 
  -4   2  -1    7.75    3.44   0 
  -4   8  -9   30.03    2.95   0 
  -3   3  -1  558.48    4.85   0 
  -3   6  -4    1.27    3.08   0 
  -3   7  -6    2.35    2.29   0 
  -3   8  -8   -1.27    2.84   0 
  -2   1   0   15.63    3.57   0 
  -1  -8 -10    6.37    3.01   0 
  -1  -6  -5   21.53    3.47   0 
  -1   7  -5   98.59    3.38   0 
  -1   8  -7   16.08    2.96   0 
   0   7  -5  124.96    3.53   0 
   0   8  -7   26.32    2.98   0 
   0   9 -10    5.14    2.68   0 
   1  -8 -10    4.93    2.44   0 
   1   9 -10   -2.05    2.67   0 
   2  -8 -11    8.41    2.97   0 
   2  -7  -8    6.89    3.11   0 
   2  -6  -6   82.40    3.59   0 
   2  -4  -3    8.62    2.50   0 
   2  -1  -1   18.56    3.69   0 
   2   5  -3  313.58    4.65   0 
   2   8  -8    1.23    2.90   0 
   3  -7  -9   -1.74    3.03   0 
   3  -5  -5   11.51    2.98   0 
   3   3  -2  360.17    7.32   0 
   3   6  -5   27.67    3.63   0 
   4  -7 -10    1.35    2.82   0 
   4  -5  -6   -0.06    2.95   0 
   4  -2  -3   29.53    3.43   0 
   4   8 -10   -0.44    2.73   0 
   5  -6  -9   13.63    2.98   0 
   5  -4  -6    4.29    3.16   0 
   5   7  -9    9.29    3.26   0 
   6  -6 -11   16.90    2.92   0 
   7  -6 -13    1.52    2.86   0 
   7  -5 -11    2.47    2.95   0 
   7  -3  -8   24.92    3.17   0 
   9  -3 -13    4.06    3.02   0 
   9  -2 -12    3.21    3.36   0 
   9   0 -11    5.06    3.69   0 
   9   1 -11    2.67    3.74   0 
  -8   2  -6   61.31    3.77   0 
  -8   4  -8   10.34    3.08   0 
  -7   2  -4  179.23    4.66   0 
  -6   4  -4   10.39    3.15   0 
  -6   5  -5    5.04    3.16   0 
  -6   6  -7   52.04    2.68   0 
  -5   4  -3    1.25    2.77   0 
  -5   5  -4    1.16    3.14   0 
  -4  -6  -7  117.07    4.22   0 
  -4  -5  -5   14.43    4.33   0 
  -4   4  -2  154.39    3.89   0 
  -4   5  -3   79.68    3.14   0 
  -4   7  -6    8.45    2.88   0 
  -2  -7  -8    2.43    3.62   0 
  -2   5  -2   50.53    3.27   0 
  -2   7  -5   13.91    3.08   0 
  -2   8  -7   37.30    3.15   0 
  -1   2   0  488.65    5.67   0 
  -1   5  -2  190.46    3.92   0 
   0   5  -2    4.45    3.27   0 
   1  -5  -4  285.19    4.25   0 
   1  -2  -1 1039.15    7.16   0 
   1   7  -5    2.75    2.87   0 
   1   8  -7   26.63    3.04   0 
   2   6  -4   62.36    3.71   0 
   2   9 -10    1.70    3.26   0 
   3  -6  -7   14.13    3.12   0 
   3  -4  -4   11.47    2.90   0 
   4  -6  -8   14.85    2.51   0 
   4  -4  -5    2.63    3.00   0 
   5  -7 -12   -3.08    2.82   0 
   5  -3  -5   19.72    2.77   0 
   5   6  -7  107.37    4.57   0 
   6   0  -5    0.86    3.66   0 
   6   1  -5   67.46    4.88   0 
   7  -1  -7    2.07    3.49   0 
   8  -4 -12    9.82    3.00   0 
   8  -1  -9    0.63    3.51   0 
   8   2  -9    4.61    4.50   0 
  -9   0  -8   75.58    4.67   0 
  -9   1  -8   31.18    3.85   0 
  -7  -1  -4    1.66    4.96   0 
  -7   6  -8    8.43    3.03   0 
  -6  -4  -6    0.31    6.59   0 
  -6   3  -3   19.11    3.54   0 
  -5   3  -2  109.74    3.68   0 
  -5   6  -5    1.45    2.83   0 
  -5   7  -7   99.57    2.99   0 
  -4  -7 -10    3.26    3.51   0 
  -4   6  -4   18.88    3.12   0 
  -4   8  -8    1.49    2.74   0 
  -3  -4  -3   66.07    4.22   0 
  -3   7  -5   91.74    3.33   0 
  -3   8  -7    4.59    2.86   0 
  -2  -5  -4   67.81    3.45   0 
  -2   4  -1    4.07    3.04   0 
  -2   6  -3  168.47    3.43   0 
  -1  -8 -11    2.73    3.07   0 
  -1  -7  -8    6.09    3.16   0 
  -1   4  -1   23.05    2.58   0 
  -1   6  -3  145.82    3.71   0 
  -1   9  -9   13.96    2.82   0 
   0  -8 -11   16.29    2.98   0 
   0  -7  -8   11.67    3.05   0 
   0  -5  -4   66.40    3.69   0 
   0   4  -1    3.82    3.30   0 
   0   6  -3    2.25    3.15   0 
   0   9  -9   -0.10    2.80   0 
   1  -8 -11    0.54    2.36   0 
   1  -6  -6   56.02    3.74   0 
   1  -4  -3  667.20    5.67   0 
   1   9  -9    5.37    2.88   0 
   2  -8 -12    3.94    2.90   0 
   2  -7  -9   22.02    3.24   0 
   3  -8 -13    3.49    2.93   0 
   3   7  -6    5.52    3.57   0 
   3   8  -8    2.98    3.41   0 
   5  -7 -13    4.08    2.76   0 
   5  -6 -10    1.03    2.88   0 
   6  -6 -12   11.51    2.92   0 
   6   5  -7   55.54    6.41   0 
   7  -4 -10    3.45    2.89   0 
   7   2  -7    4.57    4.90   0 
   8  -2 -10   40.05    3.80   0 
  -9   2  -8   11.47    3.69   0 
  -8   1  -5    8.83    4.23   0 
  -8   3  -6   62.59    3.55   0 
  -8   4  -7    7.88    3.17   0 
  -8   5  -8    5.92    3.45   0 
  -7  -4  -8   45.12    8.06   0 
  -7   3  -4    3.27    3.05   0 
  -7   4  -5   16.21    3.23   0 
  -7   5  -6    3.97    3.15   0 
  -6  -5  -8   40.90    5.09   0 
  -6   6  -6    2.84    3.13   0 
  -6   7  -8   14.94    2.42   0 
  -4   3  -1  150.83    3.82   0 
  -3   1   0 1105.73    7.63   0 
  -3   4  -1  402.37    4.37   0 
  -3   5  -2   35.77    3.16   0 
  -3   6  -3   21.18    3.12   0 
  -2  -6  -6   22.94    3.36   0 
  -2   8  -6    1.41    3.01   0 
  -1  -6  -6    7.58    3.90   0 
  -1  -5  -4  217.87    3.98   0 
  -1   7  -4   31.53    3.32   0 
  -1   8  -6    2.17    2.93   0 
   0  -6  -6    4.56    3.51   0 
   0   8  -6   14.00    2.93   0 
   1  -8 -12    4.07    2.89   0 
   1  -3  -2  950.78    6.27   0 
   1   5  -2   16.79    3.23   0 
   2  -6  -7   10.07    3.17   0 
   2  -5  -5  233.08    3.56   0 
   2   7  -5   67.07    3.91   0 
   2   8  -7   28.76    2.98   0 
   3  -7 -10   -2.62    2.42   0 
   3  -5  -6   22.61    3.11   0 
   3  -1  -2 1108.63    8.08   0 
   4  -6  -9    3.21    2.68   0 
   4   7  -7   20.78    3.49   0 
   4   8  -9    8.27    3.20   0 
   6  -5 -10    0.03    2.94   0 
   6  -3  -7   76.90    3.75   0 
   6   7 -10   -0.21    4.19   0 
   7  -3  -9    3.26    3.00   0 
   7  -2  -8    2.68    2.78   0 
   7   0  -7    0.37    3.92   0 
   8  -4 -13    1.09    2.81   0 
   8   0  -9    0.78    3.36   0 
   8   1  -9    4.94    3.62   0 
   9  -2 -13    2.36    2.83   0 
   9  -1 -12   12.70    3.34   0 
  -9  -1  -8   39.31    5.09   0 
  -8   0  -5    0.74    4.40   0 
  -8   2  -5   29.24    3.90   0 
  -6  -6 -11    5.31    4.11   0 
  -6   2  -2    7.84    3.83   0 
  -6   4  -3   95.74    3.67   0 
  -6   5  -4   58.62    3.55   0 
  -5  -6  -9    8.40    3.91   0 
  -5   1  -1    3.19    3.74   0 
  -5   4  -2  406.46    4.76   0 
  -5   5  -3  120.05    3.65   0 
  -5   7  -6    7.43    2.89   0 
  -4   7  -5    0.93    2.87   0 
  -4   8  -7   19.34    3.10   0 
  -3   8  -6    0.34    3.01   0 
  -2  -7  -9    1.39    3.37   0 
  -2   7  -4   19.88    3.17   0 
  -2   9  -8   -0.79    2.85   0 
  -1  -8 -12    3.02    3.04   0 
   0  -8 -12    3.84    3.01   0 
   0  -4  -3   23.52    3.72   0 
   0   7  -4    8.26    3.19   0 
   0   9  -8    2.57    2.87   0 
   1  -7  -9  106.07    3.77   0 
   1   6  -3   94.42    3.43   0 
   1   8  -6    2.43    2.97   0 
   2  -8 -13   10.80    2.58   0 
   2   9  -9    6.19    2.90   0 
   3  -7 -11   16.51    3.19   0 
   4  -7 -12    3.13    2.38   0 
   4  -1  -3    3.86    3.29   0 
   5  -7 -14    3.55    2.76   0 
   5  -6 -11    8.33    3.04   0 
   5   7  -8   11.78    3.91   0 
   5   8 -10    1.82    3.58   0 
   6  -6 -13    1.85    2.91   0 
   7   1  -7    1.49    3.86   0 
   7   6 -10    0.70    6.16   0 
   9   0 -12    5.30    3.58   0 
   9   2 -12    1.47    4.36   0 
  -9  -2  -9    1.19    5.01   0 
  -9   1  -7    0.68    3.47   0 
  -9   2  -7   21.26    3.84   0 
  -8   4  -6   29.48    3.28   0 
  -8   5  -7    2.05    2.92   0 
  -7   1  -3    1.52    3.95   0 
  -7   2  -3   11.91    3.92   0 
  -7   5  -5   43.54    3.36   0 
  -6   6  -5   48.73    3.45   0 
  -5   2  -1  214.76    4.22   0 
  -5   6  -4   22.76    2.56   0 
  -4  -6  -8    2.43    3.58   0 
  -4  -4  -4   11.60    4.86   0 
  -4   5  -2   37.04    3.07   0 
  -4   6  -3  106.22    3.60   0 
  -3  -7 -10    3.97    3.23   0 
  -3  -6  -7    4.91    3.50   0 
  -3  -5  -5  239.89    4.89   0 
  -3   0   0    7.09    3.91   0 
  -3   7  -4   -1.88    3.08   0 
  -1  -8 -13    0.60    3.08   0 
  -1  -7  -9   88.76    3.78   0 
  -1   3   0 1608.99    7.45   0 
   0  -8 -13   11.70    3.08   0 
   0  -2  -1  346.13    5.15   0 
   1  -8 -13    1.38    2.45   0 
   1  -6  -7  118.78    3.80   0 
   1  -5  -5  138.28    3.90   0 
   1   4  -1  501.28    5.29   0 
   1   7  -4   11.24    3.00   0 
   1   9  -8    3.51    2.94   0 
   2  -8 -14    2.78    2.92   0 
   2  -7 -10    3.65    2.58   0 
   2  -4  -4  117.55    3.02   0 
   2  -2  -2  833.85    6.48   0 
   2   0  -1   -0.56    4.76   0 
   3  -4  -5  155.98    3.66   0 
   3   6  -4   16.90    4.09   0 
   4  -6 -10   14.02    3.00   0 
   4   5  -4    4.46    4.30   0 
   5  -2  -5   71.20    3.79   0 
   5   0  -4    2.66    3.63   0 
   6  -6 -14    3.37    2.90   0 
   6  -4  -9    4.44    3.07   0 
   6  -1  -6   10.63    3.57   0 
   6   6  -8    2.43    4.68   0 
   8  -4 -14    2.42    2.98   0 
   8  -3 -12    4.01    3.10   0 
   8  -2 -11    3.33    3.58   0 
   8  -1 -10    0.67    3.49   0 
   9  -2 -14    4.90    3.04   0 
   9  -1 -13    2.35    3.54   0 
   9   1 -12   15.53    3.99   0 
  -9   0  -7    2.65    4.03   0 
  -9   3  -7   -0.90    3.64   0 
  -8   3  -5    9.89    3.28   0 
  -7   0  -3    2.51    4.36   0 
  -7   6  -6    3.96    2.80   0 
  -6   3  -2  291.78    4.67   0 
  -6   7  -6    2.17    3.07   0 
  -5   3  -1  109.80    3.86   0 
  -5   7  -5   28.08    3.18   0 
  -5   8  -7    7.16    2.72   0 
  -4   4  -1  454.53    4.32   0 
  -4   7  -4    5.82    2.94   0 
  -4   8  -6   -0.04    2.92   0 
  -3   3   0  159.05    3.76   0 
  -2  -6  -7   73.73    4.22   0 
  -2   5  -1  127.85    3.50   0 
  -2   6  -2    3.36    3.02   0 
  -2   8  -5   35.12    3.22   0 
  -2   9  -7    2.54    2.99   0 
  -1   5  -1  216.54    4.12   0 
  -1   6  -2   37.27    3.42   0 
  -1   9  -7   29.50    3.07   0 
   0  -6  -7  167.43    4.02   0 
   0   3   0    2.76    3.36   0 
   0   8  -5    9.78    3.12   0 
   0   9  -7   15.20    2.96   0 
   1  -8 -14    0.72    3.15   0 
   1  -7 -10    4.19    3.28   0 
   2  -7 -11   13.82    3.19   0 
   2  -6  -8    2.80    3.15   0 
   2  -5  -6    7.56    3.19   0 
   2  -3  -3  667.45    5.00   0 
   2   9  -8    6.16    3.31   0 
   3  -7 -12    4.02    2.98   0 
   3  -6  -9   73.55    4.05   0 
   3   8  -7   32.82    3.63   0 
   3   9  -9    1.67    3.06   0 
   4  -3  -5   50.11    3.55   0 
   4  -2  -4  953.64    6.86   0 
   4   6  -5    2.35    3.73   0 
   7  -5 -14    3.83    2.98   0 
   8  -4 -15    0.41    3.05   0 
  -8   4  -5    4.06    3.65   0 
  -8   5  -6   24.48    3.22   0 
  -7   3  -3   24.63    3.38   0 
  -6   5  -3    2.62    3.11   0 
  -6   6  -4    3.25    3.15   0 
  -5  -6 -10    6.59    4.14   0 
  -5   5  -2   11.26    3.23   0 
  -5   6  -3   38.65    3.32   0 
  -4  -7 -12    6.15    3.80   0 
  -4  -5  -6   10.76    4.29   0 
  -4   1   0  327.17    5.39   0 
  -3   6  -2    8.75    3.15   0 
  -3   8  -5    3.06    2.34   0 
  -3   9  -7   16.73    2.99   0 
  -2  -7 -10    0.24    3.34   0 
  -2  -3  -2   25.99    4.17   0 
  -2   7  -3  110.02    3.59   0 
  -1  -6  -7   23.49    3.53   0 
  -1  -5  -5   95.10    4.20   0 
  -1   7  -3   60.28    3.38   0 
   0  -7 -10    9.25    3.25   0 
   0  -5  -5   75.32    3.70   0 
   0   5  -1  243.25    4.28   0 
   0   6  -2  215.28    3.99   0 
   0   7  -3  143.51    4.17   0 
   1   9  -7   13.03    3.41   0 
   2   5  -2    2.99    3.48   0 
   3  -5  -7   20.18    2.48   0 
   3  -3  -4  903.22    5.72   0 
   3  -2  -3   12.47    2.60   0 
   3   7  -5   12.16    3.80   0 
   4  -6 -11    7.50    3.00   0 
   5  -6 -13   10.94    2.95   0 
   5  -4  -8   -0.57    3.06   0 
   5   1  -4  559.24    8.10   0 
   5   2  -4   50.40    6.12   0 
   6  -2  -7    3.59    3.21   0 
   7  -5 -15    1.61    2.96   0 
   8  -3 -13    5.11    3.03   0 
   8   0 -10   43.74    4.04   0 
   8   3 -10    1.49    5.26   0 
   9   0 -13   -1.96    3.45   0 
   9   3 -13    0.76    4.98   0 
  -9   1  -6   25.97    3.92   0 
  -9   2  -6   37.44    3.90   0 
  -8  -1  -5   11.60    5.27   0 
  -8   1  -4  219.97    5.01   0 
  -8   2  -4    4.48    3.19   0 
  -7   5  -4    0.63    3.01   0 
  -7   6  -5    5.04    3.05   0 
  -6   4  -2   29.79    3.33   0 
  -5   4  -1   10.00    3.44   0 
  -5   7  -4    5.07    3.05   0 
  -5   8  -6    6.11    2.82   0 
  -4   3   0   18.44    3.48   0 
  -4   8  -5   49.89    3.26   0 
  -3  -6  -8   48.44    4.32   0 
  -3   7  -3   85.15    3.09   0 
  -2   8  -4    7.60    3.03   0 
  -2   9  -6    4.70    3.04   0 
  -1   4   0   74.83    3.58   0 
  -1   8  -4    2.92    3.04   0 
  -1   9  -6    3.78    2.92   0 
   1  -7 -11   46.18    3.35   0 
   1  -6  -8    2.29    3.23   0 
   2  -7 -12    2.24    3.26   0 
   2   7  -4    1.85    3.03   0 
   3  -7 -13   31.28    2.77   0 
   3  -6 -10   44.53    3.53   0 
   3   4  -2    1.94    4.52   0 
   4  -7 -15    4.91    2.80   0 
   4   0  -3   -1.10    3.45   0 
   4   7  -6    2.90    3.31   0 
   5   5  -5    5.12    5.03   0 
   5   6  -6    4.44    4.01   0 
   8  -2 -12   35.46    3.50   0 
   8  -1 -11    5.95    3.36   0 
   9  -1 -14   10.02    3.10   0 
  -9   3  -6   12.89    3.18   0 
  -8  -2  -6   57.81    7.49   0 
  -6  -5  -9   35.17    5.12   0 
  -6   2  -1   60.67    4.11   0 
  -6   7  -5    1.73    2.49   0 
  -4  -6  -9   58.20    3.94   0 
  -4   5  -1  160.88    3.19   0 
  -4   7  -3   25.03    2.97   0 
  -3  -7 -12    6.73    3.69   0 
  -3   4   0   48.32    2.73   0 
  -3   8  -4    0.87    3.02   0 
  -3   9  -6    1.40    2.95   0 
   0  -6  -8   42.86    3.47   0 
   0   8  -4    4.85    3.05   0 
   0   9  -6    8.25    2.90   0 
   1  -5  -6   44.03    3.59   0 
   1  -1  -1   21.50    4.14   0 
   1   6  -2    0.97    3.08   0 
   1   7  -3    4.06    3.36   0 
   2  -6  -9  179.08    3.58   0 
   2  -4  -5  121.15    3.58   0 
   3  -7 -14    2.36    3.03   0 
   3  -4  -6   44.03    3.18   0 
   3   0  -2  235.25    5.46   0 
   3   9  -8    3.15    3.29   0 
   4  -6 -12    1.35    2.94   0 
   4  -5  -9   89.42    2.98   0 
   4  -4  -7    0.34    2.49   0 
   4   4  -3    7.31    4.95   0 
   5  -6 -14   15.43    3.11   0 
   5  -1  -5    2.53    3.11   0 
   5   8  -9   11.70    3.78   0 
   6   7  -9   27.68    4.88   0 
   7   0  -8    1.25    3.53   0 
   8  -3 -14    4.06    3.05   0 
   8   1 -10    3.19    3.81   0 
   8   2 -10   50.17    5.11   0 
   9   1 -13    2.34    3.56   0 
   9   2 -13    6.56    4.30   0 
  -9  -1  -7    1.95    4.41   0 
  -9   0  -6   50.42    4.68   0 
  -9   4  -6   20.70    3.22   0 
  -8   0  -4   14.18    4.11   0 
  -8   4  -4   -2.00    3.21   0 
  -8   5  -5    5.51    3.25   0 
  -7   1  -2   20.02    3.89   0 
  -7   2  -2   93.08    3.84   0 
  -7   3  -2    4.62    3.09   0 
  -6   1  -1    0.67    3.59   0 
  -6   3  -1   22.27    3.56   0 
  -6   6  -3   22.54    3.20   0 
  -5   8  -5    2.48    2.89   0 
  -4   0   0 1099.44    9.00   0 
  -4   4   0  209.85    4.23   0 
  -4   8  -4    6.22    2.90   0 
  -3  -5  -6   45.83    4.49   0 
  -3   6  -1   49.98    3.31   0 
  -2  -6  -8    9.45    3.39   0 
  -2   6  -1  140.95    3.47   0 
  -2   7  -2    4.41    3.21   0 
  -1  -6  -8    5.72    3.16   0 
  -1   6  -1  651.26    5.24   0 
  -1   7  -2    4.92    3.15   0 
   0  -4  -4  387.79    4.80   0 
   0   4   0  181.11    4.04   0 
   1  -3  -3    1.52    3.07   0 
   1   2   0  490.14    7.12   0 
   1   5  -1   23.67    3.32   0 
   1   9  -6   -0.26    2.83   0 
   2  -7 -13    2.08    2.50   0 
   2  -5  -7  209.28    3.84   0 
   2   8  -5   21.97    3.21   0 
   3  -7 -15   14.82    3.05   0 
   3  -6 -11   24.82    3.22   0 
   3  -5  -8  181.73    3.24   0 
   3   8  -6    3.22    2.93   0 
   5  -6 -15    0.11    2.77   0 
   5  -2  -6   12.55    3.36   0 
   5   7  -7    1.34    3.98   0 
   6  -5 -14    3.11    2.92   0 
   6  -4 -11    2.41    3.01   0 
   7  -2 -10    3.13    3.06   0 
   7  -1  -9    1.85    3.64   0 
   8  -3 -15    4.11    2.94   0 
   8  -2 -13    2.98    3.56   0 
   9  -1 -15    2.85    3.07   0 
   9   0 -14    0.23    3.40   0 
  -9   2  -5    3.54    3.79   0 
  -7  -1  -3    1.00    5.08   0 
  -7   5  -3   64.32    2.92   0 
  -7   6  -4    8.65    2.55   0 
  -7   7  -5   10.69    3.11   0 
  -6   4  -1    2.42    3.30   0 
  -6   7  -4   -2.89    2.43   0 
  -5   2   0  462.99    5.17   0 
  -5   3   0  374.74    4.91   0 
  -5   5  -1   95.73    3.01   0 
  -5   7  -3   38.05    3.30   0 
  -3  -6  -9   12.09    3.98   0 
  -3   5   0  194.94    3.87   0 
  -3   7  -2   20.93    2.81   0 
  -3   9  -5    1.38    2.99   0 
  -2   5   0   32.27    3.21   0 
  -2   8  -3   16.13    3.19   0 
  -2   9  -5    5.54    3.06   0 
  -1  -7 -12    1.39    3.18   0 
  -1   5   0  235.36    4.23   0 
   0  -7 -12    5.29    2.87   0 
   0  -5  -6  121.90    3.93   0 
   0   6  -1   18.04    3.33   0 
   0   7  -2    0.29    3.12   0 
   0   9  -5   22.19    3.03   0 
   1  -7 -13   19.63    3.30   0 
   1  -6  -9    4.83    3.18   0 
   1  -2  -2  198.09    4.49   0 
   1   3   0 1536.68    9.36   0 
   1   8  -4    1.69    3.14   0 
   2  -7 -14    1.64    2.92   0 
   2  -6 -10    3.46    3.14   0 
   3  -7 -16   -0.07    2.92   0 
   4  -6 -13   71.32    3.54   0 
   4  -5 -10   -1.28    2.98   0 
   4  -3  -6   25.45    2.83   0 
   4   8  -7    1.08    3.21   0 
   5  -6 -16   -2.02    2.74   0 
   8  -1 -12    6.54    3.54   0 
   8   0 -11    2.65    3.41   0 
  -9   1  -5    3.34    3.61   0 
  -9   3  -5    7.98    3.10   0 
  -9   4  -5    5.77    3.61   0 
  -8   1  -3    2.22    3.89   0 
  -8   2  -3   10.13    3.35   0 
  -8   3  -3   -1.87    3.20   0 
  -8   5  -4   18.09    3.23   0 
  -7   4  -2   54.28    3.47   0 
  -5  -5  -8    4.82    4.47   0 
  -5  -1  -1    2.69    5.75   0 
  -5   4   0  166.93    4.12   0 
  -5   8  -4    0.43    3.04   0 
  -4  -6 -10   -1.10    3.87   0 
  -4  -5  -7   23.95    4.38   0 
  -4  -3  -3   26.35    5.38   0 
  -4   5   0   35.29    3.23   0 
  -4   6  -1   36.36    2.71   0 
  -4   7  -2    4.03    2.96   0 
  -4   9  -5   -1.69    3.05   0 
  -3   3   1   41.25    3.30   0 
  -3   8  -3   24.11    3.29   0 
  -2  -7 -13   -0.42    3.53   0 
  -2  -5  -6   86.74    4.31   0 
  -1  -5  -6   50.04    3.55   0 
  -1  -4  -4   69.37    3.66   0 
   0  -7 -13    1.63    3.16   0 
   1  -5  -7  202.19    4.09   0 
   2  -7 -15   -1.31    3.00   0 
   2  -3  -4   25.08    3.01   0 
   2   7  -3   58.06    3.91   0 
   2   9  -6    5.29    3.23   0 
   3  -6 -12    4.30    3.03   0 
   3  -3  -5    5.65    3.14   0 
   3   7  -4   17.57    3.99   0 
   4  -2  -5    0.86    3.37   0 
   4  -1  -4    0.92    3.29   0 
   6  -5 -15    9.77    2.54   0 
   6  -3 -10    3.80    3.08   0 
   7   3  -8   21.32    5.91   0 
   8  -3 -16    5.87    2.91   0 
   8   4 -11   -0.08    6.13   0 
   9   1 -14   13.46    3.57   0 
  -8   4  -3   51.84    3.74   0 
  -7   0  -2  412.05    6.97   0 
  -7   5  -2    6.60    3.20   0 
  -7   6  -3    1.54    3.20   0 
  -7   7  -4    1.12    3.10   0 
  -6   0  -1   -0.58    4.02   0 
  -6   5  -1   16.80    3.34   0 
  -6   6  -2    8.10    2.70   0 
  -6   7  -3    3.15    3.06   0 
  -5  -6 -12   -1.57    4.04   0 
  -5   6  -1   70.05    3.58   0 
  -5   7  -2    2.94    3.09   0 
  -4   8  -3   41.76    2.86   0 
  -3  -7 -14    4.92    3.30   0 
  -3   9  -4    4.71    3.04   0 
  -2  -6  -9  188.46    4.81   0 
  -2   9  -4    4.51    3.01   0 
  -1  -7 -13   10.66    3.37   0 
  -1  -6  -9   37.41    3.35   0 
  -1   9  -4    4.90    3.06   0 
   0   5   0    2.60    3.44   0 
   0   8  -3    7.31    2.66   0 
   1  -7 -14   -1.11    2.69   0 
   1   9  -5    9.48    2.92   0 
   2  -7 -16    2.31    3.02   0 
   2  -6 -11   47.43    3.57   0 
   2  -5  -8   38.57    3.24   0 
   2  -4  -6  490.56    4.69   0 
   3  -2  -4   75.10    3.47   0 
   3  -1  -3   66.79    4.30   0 
   3   9  -7    1.17    2.92   0 
   4  -6 -15   17.02    3.22   0 
   4   1  -3    5.76    4.64   0 
   4   7  -5   75.94    4.34   0 
   5   8  -8    0.89    3.86   0 
   6  -5 -16   11.37    3.14   0 
   6   3  -6    4.22    6.62   0 
   7  -4 -16    2.51    3.01   0 
   7  -3 -13    4.94    3.11   0 
   7  -2 -11    7.99    2.97   0 
   7   2  -8    4.64    4.30   0 
   9   0 -15    0.21    3.19   0 
   9   2 -14    0.34    3.85   0 
  -9   2  -4   80.26    4.34   0 
  -9   3  -4    2.35    3.85   0 
  -8   5  -3    5.56    3.18   0 
  -8   6  -4    6.12    3.12   0 
  -7   2  -1    3.76    3.91   0 
  -7   3  -1  187.32    4.20   0 
  -6  -4  -7  109.70    6.54   0 
  -6   3   0  396.60    5.13   0 
  -6   8  -4   -0.13    3.01   0 
  -5   5   0   79.53    3.71   0 
  -5   8  -3    8.83    3.08   0 
  -4   2   1   16.45    3.38   0 
  -4   3   1  175.43    4.11   0 
  -4   9  -4    2.54    2.91   0 
  -3  -6 -10   20.20    4.03   0 
  -3   1   1    8.30    4.13   0 
  -3   6   0    3.79    3.12   0 
  -3   7  -1   77.89    3.61   0 
  -2  -7 -14    4.63    3.20   0 
  -2   1   1   24.47    3.83   0 
  -2   4   1   34.55    2.78   0 
  -2   6   0    5.15    3.10   0 
  -2   7  -1  169.71    3.59   0 
  -2   8  -2    2.69    3.19   0 
  -1  -7 -14    3.38    3.15   0 
  -1   7  -1    3.60    3.19   0 
   0  -7 -14    6.15    3.24   0 
   0  -6 -10   15.29    3.38   0 
   0  -5  -7   80.85    3.74   0 
   0  -3  -3  133.75    4.14   0 
   0   9  -4    4.30    2.92   0 
   1  -7 -15   17.43    3.15   0 
   1   4   0   69.24    3.66   0 
   1   6  -1   76.56    3.55   0 
   1   7  -2   15.40    3.02   0 
   1   8  -3   94.97    4.01   0 
   2  -2  -3  147.26    3.51   0 
   2   8  -4   -1.54    2.88   0 
   3  -6 -13    6.11    2.58   0 
   3   8  -5   38.87    3.28   0 
   5  -5 -14    5.53    3.04   0 
   5   0  -5    1.51    3.64   0 
   6  -5 -17    5.66    2.36   0 
   6  -2  -9    3.79    3.34   0 
   7  -4 -17    2.76    2.85   0 
   7  -1 -10   85.96    4.16   0 
   7   0  -9   -0.24    3.61   0 
   8  -2 -15    1.67    3.19   0 
   8  -1 -13    5.25    3.16   0 
   8   0 -12   35.09    4.14   0 
  -9  -1  -6   31.28    6.14   0 
  -9   0  -5    0.02    4.05   0 
  -9   4  -4   20.56    3.40   0 
  -8  -1  -4  231.66    8.16   0 
  -8   0  -3    1.40    4.41   0 
  -8   2  -2    8.66    4.02   0 
  -8   3  -2   98.51    4.55   0 
  -6   4   0   31.10    3.44   0 
  -6   7  -2    7.89    3.04   0 
  -4  -4  -5   11.94    4.48   0 
  -4   6   0   61.90    3.33   0 
  -4   7  -1   41.75    2.74   0 
  -4   8  -2    5.14    3.05   0 
  -3  -5  -7  141.49    4.61   0 
  -3   8  -2    1.64    2.58   0 
  -2  -6 -10    1.91    3.74   0 
  -1  -6 -10   50.39    3.58   0 
  -1   6   0   44.02    3.03   0 
  -1   8  -2   -0.16    3.15   0 
   0  -7 -15    2.07    3.03   0 
   1  -7 -16    2.27    3.14   0 
   1  -6 -11    5.12    3.19   0 
   2  -6 -12   20.37    2.67   0 
   2   5  -1  508.20    5.32   0 
   3  -6 -14    6.92    3.11   0 
   3  -5 -10   10.23    2.49   0 
   4  -6 -17   11.86    2.87   0 
   4  -5 -12   16.51    3.10   0 
   4  -4  -9   57.25    2.68   0 
   4   8  -6    0.53    3.32   0 
   5  -3  -9    0.95    3.20   0 
   5  -1  -6  381.77    5.12   0 
   6  -3 -11   47.05    2.79   0 
   6  -1  -8    0.34    3.64   0 
   6   0  -7    0.24    3.34   0 
   6   6  -7    5.14    5.54   0 
   7  -3 -14   27.06    2.65   0 
   7  -2 -12    8.68    3.12   0 
   8   2 -11   -1.50    4.21   0 
   9   1 -15    1.12    3.60   0 
  -9   1  -4   11.13    3.84   0 
  -8   4  -2    5.11    3.40   0 
  -8   6  -3   26.05    3.37   0 
  -7  -4  -9    2.54    5.82   0 
  -7   1  -1   15.48    3.95   0 
  -7   5  -1   66.18    3.65   0 
  -7   6  -2    6.28    2.68   0 
  -7   7  -3   46.58    3.43   0 
  -6   8  -3    3.99    3.01   0 
  -5  -4  -6  125.57    6.06   0 
  -5   3   1    3.37    3.53   0 
  -5   7  -1   25.55    3.24   0 
  -3   9  -3   20.10    3.23   0 
  -2  -5  -7   52.53    3.98   0 
  -2   5   1  557.19    4.66   0 
  -2   9  -3   20.03    2.56   0 
  -1  -5  -7  140.67    3.89   0 
  -1   9  -3   14.27    3.13   0 
   0  -7 -16    4.79    2.89   0 
   0  -4  -5    3.77    3.43   0 
   0   3   1  192.31    4.28   0 
   0   6   0   82.70    3.65   0 
   0   7  -1   48.08    3.42   0 
   0   8  -2   -1.55    3.12   0 
   1  -5  -8   73.60    3.01   0 
   1   9  -4   -1.74    2.89   0 
   2  -6 -13   20.04    3.22   0 
   2  -5  -9    2.27    2.43   0 
   2   9  -5   11.79    3.06   0 
   3  -3  -6  672.00    5.59   0 
   3   9  -6    3.01    3.44   0 
   5  -5 -15   22.14    2.66   0 
   5   7  -6    1.34    4.01   0 
   6   7  -8    2.02    5.03   0 
   7  -3 -15    1.87    3.02   0 
   8  -2 -16    8.71    3.15   0 
   8  -1 -14   14.17    3.30   0 
   8   3 -11   17.02    4.60   0 
  -9   3  -3   15.58    4.17   0 
  -8   1  -2  151.51    5.26   0 
  -8   5  -2   24.76    3.31   0 
  -6   5   0   86.43    3.66   0 
  -5   2   1   42.65    3.69   0 
  -5   4   1  115.32    3.87   0 
  -5   6   0    0.94    2.64   0 
  -5   8  -2   -0.46    2.40   0 
  -4  -5  -8   99.79    4.40   0 
  -4   5   1  135.59    3.16   0 
  -4   9  -3    6.94    2.47   0 
  -3  -6 -11    1.94    3.20   0 
  -3   7   0   38.93    3.27   0 
  -3   8  -1   33.57    3.36   0 
  -2   7   0    5.43    3.38   0 
  -2   8  -1    7.90    3.12   0 
  -1  -6 -11    2.57    3.84   0 
  -1  -3  -3   26.50    3.61   0 
  -1   1   1   23.72    4.20   0 
  -1   5   1   25.98    3.68   0 
   0  -6 -11   67.54    2.96   0 
   0   4   1    6.16    3.42   0 
   1  -6 -12    2.37    3.30   0 
   1  -4  -6   26.48    3.43   0 
   1  -3  -4 1077.57    6.18   0 
   2  -4  -7   86.42    3.47   0 
   2  -3  -5   95.12    3.50   0 
   2   7  -2    2.43    3.61   0 
   3  -6 -16    8.18    3.01   0 
   3  -5 -11   71.64    2.91   0 
   3   7  -3    1.02    3.53   0 
   4  -2  -6  474.23    5.32   0 
   5  -5 -16    3.81    2.42   0 
   7  -3 -16   11.11    2.94   0 
   7  -2 -13    4.36    3.24   0 
   7  -1 -11    4.66    3.04   0 
   7   1  -9   -1.38    3.93   0 
   8  -2 -17    5.12    3.03   0 
   8   0 -13    2.77    3.54   0 
   8   1 -12    2.78    4.12   0 
   8   5 -12    3.13    6.78   0 
  -9   2  -3    0.88    3.91   0 
  -9   4  -3   12.16    3.32   0 
  -7   3   0    7.55    3.82   0 
  -7   6  -1   -3.73    3.29   0 
  -7   7  -2    8.00    3.14   0 
  -6  -5 -11    4.58    4.29   0 
  -6  -3  -5   38.86    7.76   0 
  -6   7  -1    6.57    3.18   0 
  -6   8  -2    3.48    2.99   0 
  -5  -3  -4    9.16    6.47   0 
  -5   5   1   27.91    3.42   0 
  -4   7   0    2.00    2.98   0 
  -3  -4  -5   14.30    3.77   0 
  -3  -3  -3   36.76    4.75   0 
  -3   6   1  218.04    3.80   0 
  -3   9  -2   -2.87    3.06   0 
  -2  -6 -11  133.16    4.09   0 
  -2  -3  -3   52.39    4.39   0 
  -2   9  -2    2.06    3.12   0 
  -1  -4  -5  498.93    5.37   0 
  -1   7   0   19.42    3.25   0 
   0  -5  -8   67.06    3.63   0 
   1  -6 -13    7.36    3.15   0 
   1  -5  -9  140.55    3.93   0 
   1   7  -1   -0.46    2.99   0 
   1   8  -2   -0.15    3.08   0 
   2  -5 -10   58.28    3.40   0 
   2   8  -3    1.79    2.94   0 
   3  -6 -17   -0.21    3.01   0 
   3   8  -4    0.90    3.39   0 
   4   9  -7    2.18    3.46   0 
   5  -5 -18    2.45    2.98   0 
   5  -5 -17    1.14    2.43   0 
   5  -4 -13    7.86    3.11   0 
   6  -4 -16   -0.15    2.97   0 
   7   0 -10    2.91    3.66   0 
  -9   5  -3    7.34    3.19   0 
  -8   3  -1    5.20    3.43   0 
  -8   6  -2   -0.41    3.21   0 
  -7   4   0    4.00    3.46   0 
  -6   3   1    5.86    3.63   0 
  -6   4   1  138.73    3.98   0 
  -6   6   0   16.16    2.66   0 
  -5   7   0    1.94    3.00   0 
  -5   8  -1   13.77    3.07   0 
  -4  -6 -13   12.34    3.32   0 
  -4   6   1   62.80    2.86   0 
  -4   9  -2    3.68    2.90   0 
  -3  -5  -8   12.96    4.06   0 
  -3   4   2    6.21    3.13   0 
  -2  -6 -12    2.05    3.81   0 
  -2  -4  -5  574.61    5.70   0 
  -1  -6 -12   29.18    3.35   0 
  -1  -5  -8   37.36    3.64   0 
  -1   6   1   75.89    3.75   0 
  -1   9  -2    5.01    3.05   0 
   0   5   1  244.92    4.39   0 
   0  10  -4    2.35    3.02   0 
   1   9  -3    1.66    3.04   0 
   2  -6 -15   25.26    3.44   0 
   2   6  -1    4.17    3.07   0 
   3  -6 -18   -7.70    3.00   0 
   3  -5 -12    8.55    2.47   0 
   3  -2  -5  244.78    4.24   0 
   3   1  -2 1107.93   13.79   0 
   3   6  -2   10.36    3.59   0 
   4  -5 -15    3.40    2.97   0 
   4  -1  -5    3.86    3.21   0 
   4   0  -4  365.96    5.64   0 
   4   7  -4    0.65    3.74   0 
   6  -4 -17    1.04    3.11   0 
   6  -3 -13    6.93    3.26   0 
   6  -1  -9    1.50    3.34   0 
   8  -1 -16    7.16    3.58   0 
   8   0 -14   28.22    4.05   0 
  -9   0  -4   97.89    5.63   0 
  -9   1  -3    0.58    4.38   0 
  -9   4  -2   23.09    3.72   0 
  -8   2  -1    5.35    3.47   0 
  -8   5  -1    4.00    3.21   0 
  -7   5   0    8.05    2.83   0 
  -7   7  -1    9.06    3.20   0 
  -6  -5 -12    5.80    4.24   0 
  -6   2   1    7.06    3.87   0 
  -6   5   1   23.84    3.57   0 
  -5  -5 -10    4.78    4.37   0 
  -5   6   1   32.45    3.45   0 
  -4  -6 -14    1.88    3.74   0 
  -4  -5  -9   26.21    4.56   0 
  -4   3   2    3.69    3.40   0 
  -3   5   2  245.12    4.12   0 
  -3   8   0    8.51    3.12   0 
  -2  -5  -8  225.87    4.26   0 
  -2   4   2  534.84    4.64   0 
  -2   8   0   -1.54    3.28   0 
   0  -6 -13   57.30    3.53   0 
   0  -5  -9   67.90    3.72   0 
   0  -4  -6  112.08    3.87   0 
   0   7   0    3.17    3.28   0 
   0   8  -1   13.66    3.32   0 
   0   9  -2    1.55    2.96   0 
   1  -6 -14   12.28    2.57   0 
   1   6   0   36.49    3.51   0 
   2  -6 -17   18.32    3.25   0 
   2  -4  -8  155.30    3.86   0 
   3  -5 -13   26.75    3.32   0 
   3  -3  -7    0.12    3.09   0 
   3   9  -5   -2.37    2.93   0 
   4  -5 -16    9.52    2.98   0 
   4   8  -5    0.30    3.50   0 
   5  -1  -7   12.58    3.29   0 
   5   1  -5   -0.08    4.13   0 
   6  -4 -18   -0.07    2.51   0 
   6  -2 -11    4.18    3.17   0 
   6   0  -8  131.99    4.49   0 
   7  -1 -12   57.51    3.65   0 
   7   2  -9   10.97    4.30   0 
   8   1 -13    2.42    3.82   0 
   8   2 -12   42.79    4.59   0 
 -10   1  -5    2.25    4.05   0 
  -9   3  -2    4.40    3.28   0 
  -9   5  -2    5.73    3.20   0 
  -8   6  -1   25.06    3.23   0 
  -7   0  -1    1.44    4.42   0 
  -7   6   0    4.88    3.29   0 
  -6   7   0    3.37    2.59   0 
  -6   8  -1   20.53    3.22   0 
  -5   4   2   53.39    3.74   0 
  -4   2   2  593.75    5.51   0 
  -4   5   2    7.60    2.58   0 
  -4   7   1   89.09    3.48   0 
  -4   8   0    2.20    2.48   0 
  -4   9  -1    6.58    3.03   0 
  -3   7   1   15.62    2.72   0 
  -3   9  -1    9.09    3.11   0 
  -2   5   2    1.56    2.71   0 
  -2   7   1  256.95    4.30   0 
  -1   4   2   35.26    3.70   0 
  -1   8   0    1.06    3.32   0 
  -1  10  -3    8.91    2.48   0 
   0  -6 -14    1.32    3.06   0 
   0   6   1   17.61    3.42   0 
   1  -6 -15   -2.46    3.18   0 
   1  -5 -10   43.19    2.92   0 
   1  -4  -7  232.19    4.41   0 
   2  -6 -18    3.01    3.01   0 
   2   3   0  413.34    6.62   0 
   2   4   0  284.97    5.51   0 
   3  -5 -14    4.19    3.02   0 
   4  -5 -17    0.13    2.98   0 
   4  -4 -12   11.66    3.04   0 
   4  -2  -7   -0.57    3.32   0 
   4   6  -3   18.09    4.09   0 
   4   9  -6    1.93    3.80   0 
   5  -4 -15    4.32    3.11   0 
   5   0  -6    0.12    3.51   0 
   7  -2 -15    1.29    3.08   0 
   7   0 -11   -0.37    3.96   0 
   8  -1 -17    1.07    3.16   0 
   8   0 -15    4.56    3.75   0 
 -10   2  -4   16.41    4.06   0 
  -9   2  -2  103.69    4.52   0 
  -8   0  -2   12.52    4.65   0 
  -8   1  -1    9.16    4.41   0 
  -8   4   0    3.81    3.36   0 
  -7  -4 -10   12.94    5.16   0 
  -7  -1  -2   19.94    6.07   0 
  -7   3   1   17.53    3.92   0 
  -7   4   1    7.28    3.24   0 
  -6  -4  -8    4.46    5.04   0 
  -6   6   1   40.76    2.83   0 
  -5   5   2   29.98    3.41   0 
  -5   7   1   22.82    3.32   0 
  -5   8   0    2.27    2.42   0 
  -4  -4  -6    4.95    3.87   0 
  -4   6   2    9.88    3.11   0 
  -3  -5  -9  135.82    4.83   0 
  -3   6   2    9.51    3.20   0 
  -2  -6 -14   -0.31    3.12   0 
  -2   6   2  184.19    3.98   0 
  -1  -5  -9  178.68    4.56   0 
  -1  -4  -6  361.21    5.32   0 
  -1   7   1    0.19    3.22   0 
  -1   9  -1   -0.34    3.11   0 
   0  10  -3    3.28    2.89   0 
   1  -6 -16    5.07    2.58   0 
   1  -3  -5  212.59    4.08   0 
   1   4   1   21.82    3.94   0 
   2  -5 -12   44.54    2.79   0 
   2  -3  -6  156.76    3.27   0 
   2   5   0   24.37    3.72   0 
   2   8  -2    1.84    3.00   0 
   2   9  -3   22.13    3.66   0 
   3  -4 -10  102.31    3.08   0 
   3   3  -1   33.87    5.98   0 
   3   8  -3   34.30    3.60   0 
   4  -5 -19    2.11    2.90   0 
   5  -3 -12  128.44    3.91   0 
   6  -3 -15    1.77    2.47   0 
   6  -1 -10   31.60    3.95   0 
   7  -2 -16   14.95    3.21   0 
   7  -1 -13    1.19    3.17   0 
   7   1 -10   84.37    4.58   0 
   8   3 -12   -0.10    3.92   0 
   8   4 -12   11.32    5.13   0 
  -9  -1  -5    0.67    6.25   0 
  -9   4  -1    2.57    3.66   0 
  -8   3   0   60.57    3.82   0 
  -7   5   1   91.71    3.65   0 
  -6  -5 -13   13.93    3.84   0 
  -6   1   1   23.88    3.82   0 
  -6   4   2  161.14    4.06   0 
  -6   8   0    5.48    3.02   0 
  -5  -5 -11    3.34    3.83   0 
  -5  -4  -7    3.52    4.54   0 
  -5   6   2    4.47    3.13   0 
  -4  -5 -10   51.48    4.30   0 
  -3  -6 -15   15.71    3.26   0 
  -3   0   1    0.99    4.40   0 
  -3   8   1   25.33    3.29   0 
  -2  -5  -9    9.58    3.38   0 
  -1  -6 -15    5.66    3.08   0 
  -1  10  -2    3.70    2.87   0 
   0  -6 -16    3.75    2.92   0 
   0  -5 -10   56.19    3.62   0 
   0   8   0    4.87    3.18   0 
   1  -6 -18    4.44    2.94   0 
   1  -5 -11  116.51    3.12   0 
   1   3   1   15.16    4.05   0 
   1   5   1  178.92    4.17   0 
   2  -5 -13    5.92    3.18   0 
   2  -4  -9   14.39    3.11   0 
   3  -5 -16    1.70    2.94   0 
   3  -5 -15   46.05    2.86   0 
   3   5  -1   22.80    3.88   0 
   3   7  -2    1.58    3.53   0 
   3   9  -4    2.11    3.44   0 
   4  -4 -13   19.42    2.77   0 
   5  -4 -17    3.23    2.99   0 
   5   7  -5    2.38    4.56   0 
   7  -2 -17    6.25    3.03   0 
   7   3  -9   -0.49    4.71   0 
   8   0 -16   15.80    3.37   0 
   8   1 -14   11.09    3.82   0 
   8   2 -13    2.25    4.12   0 
  -9   5  -1   27.21    3.36   0 
  -8   2   0    3.18    4.20   0 
  -8   6   0    4.54    2.86   0 
  -7   2   1   12.05    4.01   0 
  -7   6   1   16.22    3.32   0 
  -6  -1  -1    1.25    5.83   0 
  -6   5   2   19.43    3.34   0 
  -6   7   1    6.73    2.55   0 
  -5   8   1   15.62    2.98   0 
  -4   0   1    2.63    4.21   0 
  -4   8   1    6.58    2.64   0 
  -3  -4  -6  491.66    5.87   0 
  -3   7   2    1.28    3.24   0 
  -3   9   0    2.55    2.46   0 
  -2  -4  -6  172.99    4.09   0 
  -2   8   1    3.30    2.46   0 
  -2   9   0    5.67    3.09   0 
  -1  -6 -17    6.61    3.07   0 
  -1  -6 -16    6.96    3.26   0 
  -1  -5 -10   21.11    3.52   0 
  -1   6   2    1.25    3.42   0 
   0  -6 -18    6.96    3.09   0 
   0  -4  -7  227.84    4.44   0 
   0   7   1   47.40    3.48   0 
   1  -5 -12    8.09    3.38   0 
   1  -4  -8   48.77    3.78   0 
   2  -5 -14   26.07    3.06   0 
   3  -5 -17   15.42    3.17   0 
   3  -4 -11   42.32    2.68   0 
   3  -3  -8  631.48    4.77   0 
   3  -2  -6  129.85    3.98   0 
   3   0  -3    0.86    3.27   0 
   4  -3 -10   84.60    2.98   0 
   4  -1  -6   67.95    3.94   0 
   4   2  -3   33.05    7.07   0 
   5  -4 -19   -1.31    2.94   0 
   5  -4 -18   14.39    2.70   0 
   5  -1  -8  348.60    4.85   0 
   5   8  -6    2.29    3.78   0 
   6  -3 -18    9.23    3.06   0 
   6  -3 -17    2.20    2.50   0 
   6   0  -9    2.00    3.75   0 
   6   7  -7   27.72    6.46   0 
   7  -2 -18   12.00    3.16   0 
   7  -1 -14   70.50    3.71   0 
   7   0 -12    1.76    3.86   0 
   8   0 -17    2.48    3.70   0 
 -10   1  -4   10.39    3.84   0 
 -10   2  -3    6.81    3.80   0 
  -9   1  -2    1.70    3.92   0 
  -8  -3  -9    6.65    6.57   0 
  -8  -1  -3   -0.02    6.51   0 
  -6   6   2   24.75    3.28   0 
  -5  -5 -12   11.75    3.80   0 
  -5   7   2    7.13    3.13   0 
  -4   4   3   10.90    2.85   0 
  -4   5   3  123.88    3.60   0 
  -3  -5 -10    5.76    3.34   0 
  -3   5   3   41.69    3.33   0 
  -2  -5 -10    8.81    3.12   0 
  -2   4   3    9.74    3.18   0 
  -2   7   2    3.63    2.64   0 
  -1   8   1  106.57    3.87   0 
  -1   9   0    5.26    3.20   0 
   0  -5 -11    1.29    3.28   0 
   0   4   2 1004.83    6.53   0 
   0   5   2    6.28    3.50   0 
   0  10  -2    4.25    2.81   0 
   2  -5 -15    1.49    3.10   0 
   2  -4 -10  107.86    3.50   0 
   2   6   0    5.01    3.20   0 
   3  -5 -19    8.40    3.02   0 
   3  -5 -18    2.55    2.37   0 
   4  -2  -8  180.04    4.11   0 
   4   7  -3   64.28    4.39   0 
   4   8  -4    1.55    3.41   0 
   6  -3 -19    4.47    3.07   0 
   6  -2 -14   53.67    3.55   0 
   6  -1 -11   23.70    3.39   0 
   6   2  -7   -0.67    4.24   0 
   6   8  -8   -1.02    5.00   0 
   7  -1 -15    2.69    3.43   0 
   7   4  -9   37.86    6.81   0 
   8   1 -15    5.58    3.95   0 
 -10   0  -5    0.74    4.98   0 
 -10   3  -2   16.56    3.85   0 
  -9   0  -3    0.49    4.51   0 
  -9   2  -1    2.39    3.34   0 
  -9   4   0   44.33    4.02   0 
  -8   3   1    3.51    3.86   0 
  -8   4   1   71.28    3.73   0 
  -8   5   1    2.21    3.27   0 
  -7   4   2  122.48    3.80   0 
  -7   5   2    4.91    3.36   0 
  -7   7   1   25.14    2.85   0 
  -6   7   2    8.46    3.11   0 
  -6   8   1   13.35    2.56   0 
  -5   5   3   11.24    3.30   0 
  -4   6   3   34.44    3.33   0 
  -4   9   1   17.73    3.30   0 
  -3   6   3  462.78    4.75   0 
  -3   8   2    1.70    3.16   0 
  -3   9   1    0.56    3.06   0 
  -2   0   1    0.91    4.91   0 
  -2   5   3  357.44    4.11   0 
  -1  -5 -11  162.60    4.09   0 
  -1  -4  -7   48.50    3.84   0 
  -1   7   2   16.45    3.37   0 
   0  -5 -12  184.95    4.15   0 
   0   3   2  759.66    6.43   0 
   0   6   2  191.91    4.22   0 
   1  -5 -13   80.25    3.47   0 
   1   8   0    1.81    3.00   0 
   1   9  -1    2.24    3.08   0 
   2  -5 -16   41.54    3.58   0 
   2  -3  -7   46.27    2.78   0 
   2   8  -1    3.43    3.62   0 
   2   9  -2    2.99    3.54   0 
   5  -3 -14   30.81    2.78   0 
   5  -2 -11    3.51    3.34   0 
   6   1  -8    3.08    3.68   0 
   7  -1 -16   14.97    3.83   0 
   7   0 -13    5.69    3.75   0 
   7   1 -11    0.26    3.85   0 
   7   2 -10    2.11    3.85   0 
   8   1 -16    4.41    3.74   0 
   8   2 -14   31.92    4.16   0 
   8   3 -13    5.56    4.12   0 
  -7   3   2   84.88    3.65   0 
  -7   6   2   10.54    3.40   0 
  -6   4   3  169.17    4.14   0 
  -6   5   3   47.26    3.57   0 
  -5  -5 -13    8.27    3.97   0 
  -5   0   1    6.19    4.48   0 
  -5   6   3   39.81    2.89   0 
  -5   8   2    6.31    2.98   0 
  -4  -5 -12   28.80    3.87   0 
  -4  -4  -7  172.79    5.02   0 
  -4   8   2    6.00    2.64   0 
  -3  -5 -11   64.31    3.82   0 
  -2  -5 -11    5.63    3.41   0 
  -2   6   3   79.67    3.53   0 
  -2   8   2    1.15    3.13   0 
  -2   9   1   24.42    3.37   0 
  -2  10   0    3.42    2.88   0 
   0  -4  -8  100.26    3.86   0 
   0  -3  -5  716.03    5.80   0 
   0   9   0    1.32    2.99   0 
   0  10  -1    1.94    3.40   0 
   1  -4  -9  217.50    4.18   0 
   1  -3  -6   92.23    3.54   0 
   1   7   1   -0.31    3.52   0 
   1  10  -2   -0.31    3.14   0 
   2  -5 -18    7.26    3.13   0 
   2  -5 -17    9.31    3.01   0 
   2  -4 -11  121.85    3.46   0 
   2  -2  -5    1.83    3.04   0 
   2   7   0    4.67    3.62   0 
   3  -4 -13   77.80    3.47   0 
   3  -3  -9  124.59    3.11   0 
   3   8  -2   -1.52    3.51   0 
   3   9  -3    2.98    3.38   0 
   4  -4 -18    0.21    2.99   0 
   4   0  -5    1.06    3.64   0 
   4   5  -2    5.28    4.47   0 
   5   0  -7    0.45    2.97   0 
   5   6  -4   -0.68    5.12   0 
   6  -1 -12    6.67    3.59   0 
   7  -1 -17    1.48    3.73   0 
   8   4 -13    0.76    4.89   0 
   8   5 -13    7.51    5.42   0 
 -10   1  -3    1.33    4.64   0 
 -10   2  -2    4.91    3.71   0 
  -8   1   0  158.60    5.00   0 
  -7  -4 -12    8.96    4.62   0 
  -7  -3  -7   25.53    6.62   0 
  -7   1   1    1.41    3.99   0 
  -7   7   2   -1.40    3.13   0 
  -6   3   3   40.93    4.26   0 
  -6   6   3   10.87    3.21   0 
  -6   8   2    2.25    3.04   0 
  -5  -5 -14    5.74    3.88   0 
  -5  -4  -8  147.97    5.31   0 
  -5   7   3   19.37    3.25   0 
  -4   2   3   53.32    3.81   0 
  -4   7   3  104.66    3.29   0 
  -3  -4  -7   28.36    3.93   0 
  -3   2   3   16.77    3.33   0 
  -3   7   3   -0.55    2.69   0 
  -2  -4  -7  352.42    5.06   0 
  -2   7   3   56.06    3.64   0 
  -1  -5 -12    9.30    3.32   0 
  -1   4   3  698.25    5.96   0 
  -1   5   3   13.05    3.12   0 
  -1   6   3   95.76    3.89   0 
  -1   9   1    5.85    3.15   0 
   0  -5 -13    6.64    3.29   0 
   0  -2  -3   37.10    3.86   0 
   0   7   2    2.89    3.82   0 
   1  -5 -15   43.58    3.45   0 
   1  -2  -4    5.33    3.34   0 
   2   0  -2   93.27    5.01   0 
   4  -3 -12   90.00    2.98   0 
   4  -2  -9   17.92    3.36   0 
   5  -3 -17   14.56    3.27   0 
   5  -3 -16    4.69    2.57   0 
   5  -2 -12   52.15    3.51   0 
   5  -1  -9   -0.08    3.27   0 
   5   2  -5   67.14    5.19   0 
   6  -2 -16   15.66    3.11   0 
   6   0 -10  165.11    4.52   0 
   7  -1 -18    0.48    3.18   0 
   7   0 -14    2.13    3.77   0 
   8   1 -17   -0.22    3.31   0 
   8   2 -15    3.25    3.80   0 
 -10   3  -1    4.12    3.72   0 
  -9   1  -1   15.59    4.51   0 
  -9   5   1   24.58    3.40   0 
  -8   0  -1    2.50    4.26   0 
  -8   2   1  166.60    4.81   0 
  -8   4   2    8.90    3.37   0 
  -8   6   2    3.76    2.98   0 
  -7   5   3   48.72    3.49   0 
  -6   7   3   15.42    3.19   0 
  -5   2   3    1.76    3.53   0 
  -4  -5 -13   40.98    4.07   0 
  -4   4   4  200.78    4.14   0 
  -4   5   4    4.13    3.13   0 
  -3  -5 -12    0.69    3.31   0 
  -3   5   4  136.50    3.78   0 
  -3   9   2    3.32    3.03   0 
  -1   8   2    3.72    3.26   0 
  -1  10   0    6.51    2.96   0 
   1  -5 -18    3.26    3.17   0 
   1  -5 -16    7.81    2.61   0 
   1  -4 -10  164.01    4.01   0 
   1   2   1   66.53    4.54   0 
   2  -4 -12   29.91    3.24   0 
   2  -3  -8  214.21    3.92   0 
   3  -4 -15    3.85    3.03   0 
   3  -3 -10   48.84    3.23   0 
   3  -1  -5    5.47    3.45   0 
   3   7  -1    8.34    3.41   0 
   4  -1  -7  146.40    3.97   0 
   4   1  -4    1.49    4.01   0 
   5  -3 -18    2.69    3.03   0 
   5   1  -6  372.82    6.10   0 
   6  -2 -18   -0.50    3.07   0 
   6  -2 -17    4.68    3.15   0 
   6  -1 -13    0.02    3.29   0 
   7  -1 -19   -1.09    3.02   0 
   7   1 -12   75.38    4.10   0 
   8   3 -14    3.97    4.07   0 
  -9   2   0   60.53    4.33   0 
  -9   4   1    4.01    3.26   0 
  -7   4   3    8.94    3.43   0 
  -7   6   3   62.51    3.62   0 
  -6  -4 -10   26.51    4.45   0 
  -5   4   4   24.74    3.47   0 
  -5   5   4  107.65    3.75   0 
  -5   6   4    1.07    3.34   0 
  -5   8   3   23.89    3.13   0 
  -5   9   2   -3.31    2.37   0 
  -4   6   4    8.34    3.23   0 
  -4   8   3    1.57    2.53   0 
  -3   6   4   21.32    3.27   0 
  -3   8   3   35.14    3.57   0 
  -2   9   2    3.92    3.16   0 
  -1  -5 -14    1.46    3.25   0 
  -1  -4  -8  202.18    4.40   0 
  -1   3   3    0.71    2.58   0 
  -1   7   3    4.23    3.32   0 
   0  -5 -15    4.81    3.16   0 
   0  -4  -9  412.81    4.96   0 
   1   5   2  168.25    4.01   0 
   1   9   0    3.12    2.95   0 
   1  10  -1   10.80    3.58   0 
   2  -4 -13  105.10    3.64   0 
   2   2   0 1719.35   16.52   0 
   2   5   1   91.36    4.10   0 
   3  -4 -17    8.07    3.08   0 
   4   8  -3    1.60    3.80   0 
   4   9  -4    1.30    3.74   0 
   5  -3 -20   -1.11    2.44   0 
   5   8  -5    6.10    4.16   0 
   6  -2 -20    1.53    3.02   0 
   7   0 -15    2.02    3.38   0 
   7   2 -11    9.85    4.12   0 
   7   3 -10   46.89    5.12   0 
   8   2 -16    7.61    3.77   0 
  -9   3   1   13.76    3.32   0 
  -7   3   3   97.89    3.94   0 
  -7   7   3   14.55    3.29   0 
  -6   0   1    2.34    4.15   0 
  -6   4   4  146.99    4.03   0 
  -6   5   4   13.72    3.40   0 
  -6   6   4   17.02    3.25   0 
  -5  -3  -5  282.26    7.40   0 
  -5   7   4    8.14    3.25   0 
  -4  -5 -16    3.74    3.81   0 
  -4  -5 -15    4.43    3.21   0 
  -4  -4  -8   36.44    4.23   0 
  -3  -5 -14    7.38    3.37   0 
  -3   7   4   18.72    3.34   0 
  -2  -4  -8    1.65    3.87   0 
  -2   5   4   11.03    2.74   0 
  -2   6   4   73.46    3.58   0 
  -2   8   3   -1.00    2.62   0 
  -1  -3  -5  614.95    5.85   0 
  -1   9   2    8.91    3.14   0 
   0  -5 -19   12.82    3.15   0 
   0  -5 -17    8.52    3.16   0 
   0  -3  -6  249.05    4.44   0 
   0   5   3  423.59    5.22   0 
   0   8   2    7.36    3.16   0 
   0  10   0    2.47    2.94   0 
   1  -4 -11    1.84    3.18   0 
   1  -3  -7   42.45    2.73   0 
   1   4   2    0.84    3.23   0 
   2   4   1    2.96    3.74   0 
   2   8   0    1.51    2.98   0 
   3  -4 -19    6.86    3.09   0 
   3  -4 -18   36.45    3.39   0 
   3  -3 -11    6.09    3.04   0 
   4  -3 -15    1.46    3.14   0 
   4  -2 -10  209.11    4.04   0 
   5  -2 -14   90.39    3.60   0 
   5  -1 -10  547.78    5.21   0 
   5   0  -8   53.60    3.84   0 
   5   7  -4    8.29    4.71   0 
   6   0 -11    0.51    3.16   0 
   6   1  -9    1.13    3.76   0 
   6   3  -7  116.46    6.32   0 
   7   0 -16  121.71    4.43   0 
   7   1 -13    1.02    3.86   0 
   8   2 -17    4.71    3.87   0 
   8   3 -15    1.51    4.09   0 
   8   4 -14    8.70    4.19   0 
 -10   0  -4    9.40    5.13   0 
 -10   2  -1    8.05    3.77   0 
  -9  -1  -4   14.47    8.22   0 
  -9   0  -2  123.98    5.90   0 
  -9   5   2    3.78    3.24   0 
  -8  -3 -10    5.95    5.32   0 
  -8   5   3   22.53    3.37   0 
  -8   6   3   25.16    3.29   0 
  -6  -4 -11    4.88    4.27   0 
  -6  -3  -6  203.01    7.53   0 
  -6   7   4    5.70    3.08   0 
  -5   3   4  192.65    4.25   0 
  -5   9   3    7.09    2.99   0 
  -4   9   3    9.62    3.17   0 
  -3  -5 -17    7.07    3.76   0 
  -3  -5 -15    7.34    3.26   0 
  -3   9   3    1.25    3.02   0 
  -2   7   4    2.42    3.18   0 
  -1  -5 -19    2.78    3.12   0 
  -1  -5 -16    3.23    3.11   0 
  -1  -4  -9    7.64    3.39   0 
  -1   8   3   90.04    3.84   0 
  -1  10   1    9.82    2.50   0 
   0  -4 -10   78.31    3.69   0 
   0   2   2 2321.40   11.31   0 
   0   4   3   17.99    3.59   0 
   0   6   3    1.04    3.34   0 
   1  -4 -12  124.58    3.87   0 
   1   7   2    7.86    3.60   0 
   2  -4 -15   67.31    3.67   0 
   2  -4 -14   12.08    2.69   0 
   2  -3  -9  180.19    3.33   0 
   2  -2  -6  985.99    6.27   0 
   3   9  -2   -2.14    2.96   0 
   4  -3 -16   27.09    3.15   0 
   4   7  -2    3.54    3.71   0 
   6  -1 -15    4.68    3.31   0 
   6   2  -8  238.83    5.88   0 
   6   8  -7    0.15    6.03   0 
   7   0 -17   -1.96    3.16   0 
 -10   1  -2   60.25    4.78   0 
 -10   3   0   17.05    3.46   0 
  -9   4   2   13.72    3.35   0 
  -8   1   1   -2.33    4.35   0 
  -8   2   2    0.32    4.45   0 
  -8   4   3    5.63    3.22   0 
  -7   5   4   53.66    3.43   0 
  -7   6   4   -1.23    3.32   0 
  -6   3   4    2.32    3.56   0 
  -5   8   4    3.75    3.03   0 
  -4   5   5  198.79    3.90   0 
  -4   8   4    1.63    2.56   0 
  -2  -3  -5   69.08    4.25   0 
  -2   9   3   22.10    3.22   0 
  -1   5   4  271.59    4.35   0 
  -1   6   4   37.61    3.63   0 
   1   9   1    8.90    3.42   0 
   1  10   0    3.48    3.62   0 
   2  -4 -17   15.37    3.14   0 
   2  -4 -16   -0.28    2.95   0 
   2  -1  -4  354.28    5.10   0 
   3  -3 -12    2.94    2.28   0 
   3   6   0    2.59    3.51   0 
   4  -3 -21    3.85    3.00   0 
   4  -3 -17   11.55    3.09   0 
   4  -1  -8    7.05    3.32   0 
   5  -2 -15    0.13    2.51   0 
   5  -1 -11    2.89    3.43   0 
   6   0 -12  329.69    4.79   0 
   7   0 -19    0.90    3.10   0 
   7   0 -18   10.36    3.28   0 
   7   1 -14   89.87    4.06   0 
   7   2 -12    8.53    3.81   0 
   8   3 -16   10.13    4.04   0 
   8   4 -15    6.38    4.16   0 
  -9   1   0   12.04    4.45   0 
  -9   2   1    0.03    3.95   0 
  -9   3   2    2.58    3.84   0 
  -8   3   3   48.12    4.30   0 
  -7   4   4   35.70    3.53   0 
  -7   7   4    6.38    3.14   0 
  -6   8   4   -5.05    2.96   0 
  -5   5   5    6.88    2.55   0 
  -5   6   5  111.45    3.80   0 
  -4   1   3    8.04    4.00   0 
  -4   4   5    5.04    3.33   0 
  -4   6   5   -0.23    2.52   0 
  -4   7   5   91.60    3.69   0 
  -3   5   5    8.83    3.26   0 
  -3   6   5   39.82    3.38   0 
  -2  -4  -9    6.53    3.41   0 
  -2   3   4   28.75    2.57   0 
  -2   8   4   -0.66    3.20   0 
  -1  -4 -10  251.60    4.37   0 
  -1   4   4  165.24    4.21   0 
  -1   7   4   10.74    3.40   0 
  -1  10   2   -2.57    3.43   0 
   0  -4 -11  274.34    4.26   0 
   0   9   2    6.14    3.01   0 
   0  10   1    2.79    2.86   0 
   1  -4 -13   16.90    2.67   0 
   1  -3  -8   18.23    3.19   0 
   1  -2  -5    9.90    3.19   0 
   1   3   2  453.69    6.11   0 
   1   8   2    5.95    3.57   0 
   2  -4 -20    6.75    2.95   0 
   2  -3 -10  231.05    3.94   0 
   2  10  -1    0.53    3.41   0 
   3  -1  -6 2120.21    8.91   0 
   3   0  -4  484.10    6.28   0 
   4  -3 -20   23.94    2.83   0 
   4   0  -6  329.44    4.89   0 
   5  -2 -18   49.86    3.61   0 
   5  -2 -17    2.56    3.34   0 
   6  -1 -18   34.56    3.54   0 
   6  -1 -17    1.66    3.11   0 
   6   1 -10   37.03    3.81   0 
   7   1 -15    0.78    3.82   0 
   7   4 -10   -1.36    5.31   0 
  -9   5   3   12.13    3.29   0 
  -8  -3 -11    1.36    5.04   0 
  -8   5   4   24.11    3.31   0 
  -8   6   4    6.47    2.99   0 
  -7  -3  -8   18.52    5.28   0 
  -7  -1  -1   17.21    6.48   0 
  -7   3   4  157.82    4.60   0 
  -6  -4 -13    5.94    4.11   0 
  -6   5   5   86.61    3.77   0 
  -6   6   5   31.24    2.84   0 
  -6   7   5   18.62    3.27   0 
  -5   4   5  240.99    3.94   0 
  -5   7   5    5.32    2.55   0 
  -4  -3  -5    0.46    4.09   0 
  -4   9   4    1.41    2.95   0 
  -3  -3  -5  140.03    4.88   0 
  -3   7   5    9.82    3.33   0 
  -3   9   4   -2.33    3.03   0 
  -2   5   5  218.75    4.17   0 
  -2   6   5    9.78    3.18   0 
  -1  -3  -6  400.54    4.97   0 
  -1   9   3   -1.14    3.18   0 
   0  -4 -12    1.66    3.36   0 
   0  -3  -7   23.87    3.71   0 
   0   3   3  125.87    4.11   0 
   0   8   3    8.10    3.21   0 
   1  -4 -15   15.45    3.32   0 
   1  -4 -14  144.42    3.34   0 
   2   8   1    8.49    3.62   0 
   3  -3 -14   14.21    3.16   0 
   3  -2  -9   46.04    3.45   0 
   4  -2 -12  181.24    3.49   0 
   4   8  -2    2.96    3.71   0 
   4   9  -3    9.22    3.51   0 
   5  -2 -21    4.62    2.95   0 
   5  -2 -20   29.04    3.41   0 
   5  -2 -19    0.13    2.59   0 
   5  -1 -12  108.66    3.93   0 
   5   0  -9   -0.46    3.32   0 
   5   1  -7   10.32    3.64   0 
   6  -1 -19    2.20    2.94   0 
   6   0 -13    1.36    3.19   0 
   7   1 -16   22.20    3.85   0 
   7   3 -11   16.53    4.28   0 
 -10   2   0    3.13    3.70   0 
 -10   3   1    3.98    3.74   0 
  -9   4   3   16.89    3.46   0 
  -8   0   0   39.80    4.83   0 
  -8   4   4    3.78    3.39   0 
  -7   0   1    2.88    4.74   0 
  -7   5   5    8.84    3.33   0 
  -7   6   5   27.62    3.48   0 
  -6   4   5   39.24    3.56   0 
  -5   8   5   10.19    3.09   0 
  -4  -4 -10    0.85    3.92   0 
  -4   8   5    1.67    2.99   0 
  -3   8   5   38.67    3.46   0 
  -2   9   4    6.52    3.03   0 
  -1   8   4    6.68    3.08   0 
   0  -4 -13   15.54    3.22   0 
   0  -2  -4 2263.30    9.86   0 
   1  -4 -18   17.29    3.23   0 
   1  -4 -17    0.64    3.08   0 
   1  -3  -9  315.23    4.30   0 
   2  -3 -11   -0.21    2.46   0 
   2  -2  -7  127.36    3.24   0 
   3  -3 -16    1.56    3.02   0 
   3  -3 -15   69.62    3.34   0 
   3   9  -1    5.26    3.39   0 
   4  -1  -9   10.18    3.43   0 
   5   8  -4    2.26    4.41   0 
   6   0 -14   98.67    3.95   0 
   7   1 -17    0.10    3.50   0 
   7   2 -13    6.16    3.83   0 
   7   5 -10   15.25    5.90   0 
 -10   0  -3   -0.17    5.22   0 
 -10   1  -1    1.66    4.74   0 
 -10   4   2    1.63    3.17   0 
  -7   4   5  102.64    3.94   0 
  -6   1   3    0.57    3.54   0 
  -6   2   4  372.17    4.80   0 
  -6   8   5    5.72    2.39   0 
  -5   6   6    4.64    3.25   0 
  -4   3   5   59.61    3.15   0 
  -4   6   6   52.71    3.50   0 
  -2   4   5  149.73    3.75   0 
  -1   3   4 1086.44    6.53   0 
   0   5   4   61.53    3.59   0 
   0   6   4    7.41    3.38   0 
   0  10   2    5.71    2.97   0 
   1  -1  -3  122.09    4.44   0 
   1   9   2    0.35    3.12   0 
   1  10   1    7.28    2.94   0 
   2  -3 -12  132.20    3.72   0 
   2   6   2    4.38    3.59   0 
   3  -3 -20    9.88    3.07   0 
   3  -3 -18    0.95    3.03   0 
   3  -3 -17   25.35    3.28   0 
   3  -2 -10  298.27    4.51   0 
   3   8   0    0.41    3.42   0 
   4  -2 -14   23.45    3.29   0 
   6   0 -15   -1.41    3.70   0 
   6   1 -11   26.46    3.87   0 
   6   2  -9    2.59    4.19   0 
   7   1 -19    1.03    3.36   0 
   7   1 -18   -0.17    3.23   0 
   7   2 -14   28.13    3.91   0 
   7   6 -10    1.34    6.39   0 
  -9   0  -1    0.10    5.19   0 
  -9   2   2   30.64    4.04   0 
  -9   3   3   54.59    4.13   0 
  -8   2   3   20.56    3.95   0 
  -8   3   4  143.58    4.84   0 
  -8   5   5   26.58    3.38   0 
  -8   6   5    1.83    3.09   0 
  -6  -3  -7    0.58    4.79   0 
  -6   5   6   -1.24    3.33   0 
  -6   6   6   15.81    3.23   0 
  -6   7   6    5.22    2.92   0 
  -5  -3  -6   22.06    4.85   0 
  -5   5   6  101.43    3.36   0 
  -5   7   6    0.62    3.12   0 
  -4   5   6    0.36    2.56   0 
  -4   7   6    4.90    3.09   0 
  -4   9   5   11.92    2.57   0 
  -3  -4 -11    4.10    3.24   0 
  -3   3   5    8.74    2.67   0 
  -3   5   6   27.75    3.27   0 
  -3   6   6    2.98    3.12   0 
  -3   9   5    1.54    3.06   0 
  -2  -3  -6  528.65    5.98   0 
  -2   8   5   21.63    2.63   0 
  -1  -4 -13    2.57    3.34   0 
  -1  -1  -1    0.43    5.28   0 
  -1   6   5  568.60    5.41   0 
  -1   7   5    2.70    3.27   0 
   0  -4 -16    7.06    3.16   0 
   0  -4 -15   22.57    2.65   0 
   0  -3  -8  144.67    3.92   0 
   1  -3 -10  158.42    3.89   0 
   2  -3 -13    3.33    3.03   0 
   2   7   2    1.00    3.21   0 
   4  -2 -16   17.60    3.26   0 
   4  -2 -15   62.59    3.55   0 
   5  -1 -14  113.27    3.68   0 
   5   0 -10    8.54    3.35   0 
   5   2  -6   11.65    4.56   0 
   6   0 -16    0.17    3.23   0 
   7   3 -12   87.48    4.50   0 
 -10   2   1    4.57    4.17   0 
 -10   3   2   32.09    4.00   0 
  -9  -2  -9    1.21    5.68   0 
  -9   1   1    0.31    4.12   0 
  -9   4   4    4.70    3.79   0 
  -7  -3  -9   12.30    4.66   0 
  -7   6   6    3.55    3.40   0 
  -6   8   6    3.32    2.94   0 
  -5  -4 -16    2.11    3.62   0 
  -5  -4 -14    3.90    3.25   0 
  -5   4   6    8.57    3.29   0 
  -4   8   6   -1.63    3.06   0 
  -3   7   6    3.58    2.64   0 
  -2  -4 -12   15.22    3.29   0 
  -2   9   5   16.29    3.05   0 
  -1  -3  -7   80.65    3.68   0 
   0   8   4    7.07    3.18   0 
   1  -2  -6  287.63    4.24   0 
   2  -3 -14  137.00    3.65   0 
   2  -2  -8 1062.17    6.19   0 
   3  -2 -11   31.66    3.29   0 
   4  -2 -20    1.64    3.11   0 
   4  -2 -19   -3.57    3.04   0 
   4  -2 -17    8.64    3.00   0 
   4  -1 -10  401.29    4.81   0 
   4   0  -7   -0.66    3.27   0 
   4   1  -5    4.05    3.50   0 
   4   9  -2   -2.57    3.73   0 
   5  -1 -16   28.90    3.43   0 
   5  -1 -15    0.46    2.66   0 
   6   0 -20    2.45    3.03   0 
   6   0 -19   -3.89    3.10   0 
   6   0 -18    3.52    3.11   0 
   6   1 -12   10.93    3.87   0 
   6   3  -8   10.12    4.74   0 
   6   4  -7    2.72    5.65   0 
   7   2 -15    3.22    3.22   0 
   7   4 -11   13.50    4.30   0 
 -10   4   3    9.02    3.25   0 
  -8   4   5   21.48    3.38   0 
  -7   1   3    9.29    3.94   0 
  -7   3   5    7.71    3.18   0 
  -7   5   6   15.98    3.22   0 
  -7   7   6   -2.82    2.57   0 
  -6   4   6  124.19    3.87   0 
  -4  -4 -17    3.71    3.72   0 
  -4  -4 -15    6.85    3.80   0 
  -4  -4 -14   21.53    3.84   0 
  -4  -4 -13    7.52    3.33   0 
  -4  -3  -6  297.72    5.79   0 
  -3  -3  -6  232.61    5.13   0 
  -3   4   6   57.36    3.32   0 
  -3   8   6   -0.14    2.63   0 
  -2  -4 -19   -1.70    2.93   0 
  -2  -4 -18    9.61    2.95   0 
  -2  -4 -14    4.71    3.28   0 
  -2   5   6    8.10    3.15   0 
  -2   6   6   86.39    3.17   0 
  -2   7   6    3.26    3.18   0 
  -1   4   5  113.21    3.88   0 
   0  -3  -9   10.36    3.46   0 
   0  -1  -2 1222.82   10.18   0 
   0  10   3    0.31    2.76   0 
   1  -3 -11  103.43    3.61   0 
   1  10   2    2.60    3.02   0 
   2  -3 -21   13.43    2.42   0 
   2  -3 -19    5.31    2.94   0 
   2  -3 -17    7.88    3.04   0 
   2  -3 -15    6.14    2.73   0 
   2  -1  -5   42.85    2.87   0 
   2   8   2    2.89    3.11   0 
   3  -2 -12  400.97    4.66   0 
   3   9   0    2.14    3.30   0 
   5  -1 -21    5.31    2.46   0 
   5  -1 -20   -1.28    3.06   0 
   5  -1 -19    0.81    3.26   0 
   5  -1 -18    3.36    3.12   0 
   5  -1 -17    2.94    2.51   0 
   5   0 -11    2.95    3.41   0 
   5   1  -8  392.27    4.96   0 
   5   7  -3   10.36    4.84   0 
   7   2 -17    6.24    4.01   0 
   7   2 -16   25.51    3.43   0 
   7   3 -13    2.31    3.82   0 
  -9   5   5   15.92    3.23   0 
  -8   6   6   14.05    3.08   0 
  -7  -3 -10   16.36    4.72   0 
  -7   4   6   -0.88    3.51   0 
  -6   7   7   43.87    3.40   0 
  -5   5   7   10.61    3.25   0 
  -5   7   7    0.13    3.05   0 
  -4   2   5    3.78    3.50   0 
  -4   6   7   44.94    3.35   0 
  -4   9   6    4.50    2.53   0 
  -3  -4 -18    3.14    3.06   0 
  -3   9   6    1.50    3.06   0 
  -2  -4 -17    2.34    3.16   0 
  -2  -2  -3   19.67    3.93   0 
  -2   8   6    2.31    3.15   0 
   0  -2  -5  485.76    5.33   0 
   1  -3 -12   67.95    3.36   0 
   1   6   4    8.26    3.93   0 
   2  -2  -9  120.86    3.56   0 
   3  -2 -13    2.04    2.98   0 
   4  -1 -11    1.20    2.80   0 
   4   8  -1    4.12    3.70   0 
   5   3  -5   29.51    5.85   0 
   6   1 -13    1.16    3.34   0 
   6   2 -10  206.70    4.88   0 
   7   2 -19    0.76    3.20   0 
   7   2 -18    9.71    3.43   0 
 -10   1   0   64.91    4.86   0 
  -9   2   3    2.45    3.87   0 
  -9   3   4   14.58    3.34   0 
  -8   2   4  111.85    4.95   0 
  -8   3   5   12.32    3.53   0 
  -8   5   6    3.97    3.18   0 
  -7   6   7   23.84    3.48   0 
  -6  -3  -8   72.11    4.83   0 
  -6   3   6    2.81    3.67   0 
  -6   5   7   99.40    3.71   0 
  -6   8   7    7.04    2.89   0 
  -5  -3  -7   48.18    4.65   0 
  -5   3   6  260.11    3.84   0 
  -5   8   7   24.57    3.18   0 
  -4   1   4    2.64    3.82   0 
  -4   5   7  152.67    3.37   0 
  -4   8   7    0.11    2.91   0 
  -3   7   7    5.22    3.07   0 
  -2  -3  -7   25.28    3.48   0 
  -2   4   6  486.07    4.89   0 
  -2   9   6    5.64    3.02   0 
  -1  -3  -8  259.21    4.44   0 
  -1  -2  -4  785.92    7.20   0 
  -1   7   6   -1.02    3.30   0 
   0  -3 -10  298.90    4.44   0 
   1  -3 -21    4.48    3.09   0 
   1  -3 -20    8.86    3.12   0 
   1  -2  -7  166.85    3.82   0 
   2   0  -3   -2.83    4.09   0 
   2   9   2    0.42    2.97   0 
   3  -2 -14  100.21    3.56   0 
   3   0  -5    1.95    3.31   0 
   3   1  -3   62.10    4.73   0 
   4  -1 -12  121.14    3.79   0 
   4   0  -8 2394.45    9.87   0 
   5   0 -12  804.94    6.16   0 
   5   8  -3   14.88    4.98   0 
   6   1 -14  198.11    4.12   0 
   7   3 -14   45.60    4.19   0 
   7   4 -12    4.21    4.24   0 
   7   5 -11    0.41    4.94   0 
 -10   0  -2    3.79    5.53   0 
 -10   2   2    6.96    4.22   0 
 -10   3   3    2.83    3.24   0 
 -10   4   4    2.10    3.18   0 
  -9   4   5    8.78    3.33   0 
  -8   0   1    0.90    4.36   0 
  -8   4   6   58.98    3.78   0 
  -7  -3 -11    7.90    4.24   0 
  -7   5   7   -0.64    3.12   0 
  -5   4   7   77.34    3.65   0 
  -4   4   7    0.95    3.14   0 
  -4   9   7    7.57    3.03   0 
  -3   3   6  891.70    5.84   0 
  -3   5   7   20.35    2.60   0 
  -3   8   7   36.32    3.54   0 
  -1   8   6    0.81    3.05   0 
   0  -3 -11   10.96    3.43   0 
   0   2   3   35.08    3.73   0 
   0   3   4  728.95    5.88   0 
   1  -3 -19   15.01    3.17   0 
   1  -3 -18    8.62    3.18   0 
   1  -3 -17   31.37    3.17   0 
   1  -3 -14    4.02    2.54   0 
   1   8   4   -0.18    3.03   0 
   1  10   3    8.00    3.42   0 
   2  -2 -10  188.74    3.80   0 
   3  -2 -20   58.47    2.90   0 
   3  -2 -19    1.65    3.17   0 
   3  -2 -18   67.45    3.52   0 
   3  -2 -16  111.28    3.85   0 
   3  -2 -15    1.18    2.51   0 
   5   0 -13   -3.10    3.49   0 
   5   1  -9    3.83    3.80   0 
   6   1 -20   18.06    3.19   0 
   6   1 -16   70.08    3.76   0 
   6   1 -15   -1.11    3.21   0 
   6   2 -11    3.48    3.89   0 
   7   3 -16   12.27    4.07   0 
   7   3 -15    9.80    3.85   0 
  -9   0   0   55.91    5.55   0 
  -9   1   2   15.30    4.41   0 
  -9   5   6    0.36    3.14   0 
  -8   1   3    4.59    3.90   0 
  -8   6   7    6.50    3.10   0 
  -7  -3 -13    0.71    3.85   0 
  -7   3   6  126.87    3.84   0 
  -6  -3  -9   13.99    4.21   0 
  -6   4   7   -1.03    2.75   0 
  -6   7   8    6.49    3.01   0 
  -5   6   8    6.48    3.13   0 
  -5   7   8   15.50    3.04   0 
  -4  -3  -7   19.24    3.67   0 
  -3  -3  -7  137.89    3.94   0 
  -3   9   7    2.83    3.01   0 
  -2  -3  -8  614.51    6.06   0 
  -2   6   7   13.72    2.81   0 
  -2   8   7   25.79    3.26   0 
  -1  -3  -9  121.53    3.98   0 
  -1   2   4    4.36    3.28   0 
  -1   3   5  210.21    4.00   0 
   0  -3 -12  393.78    4.55   0 
   1   3   3   21.79    3.98   0 
   1   9   4    4.73    3.36   0 
   2  -1  -6  400.58    4.72   0 
   3  -1  -9   21.37    3.43   0 
   4  -1 -21    2.70    3.10   0 
   4  -1 -20   45.18    3.54   0 
   4  -1 -15    3.44    3.35   0 
   4  -1 -14  115.29    3.66   0 
   5   0 -15   -0.18    3.30   0 
   5   0 -14   72.20    3.56   0 
   6   1 -19    0.76    3.27   0 
   6   1 -18   56.84    3.64   0 
   6   1 -17    5.08    3.40   0 
   6   3  -9   27.92    4.30   0 
   7   3 -18    3.47    3.64   0 
   7   3 -17    6.56    3.39   0 
   7   4 -13   17.53    4.18   0 
   7   6 -11   29.04    5.54   0 
  -9   3   5   -0.30    3.74   0 
  -8   5   7   23.77    3.42   0 
  -7   4   7   98.38    3.79   0 
  -7   6   8    3.55    3.10   0 
  -7   7   8    4.18    3.03   0 
  -6   5   8    6.40    3.24   0 
  -6   6   8    0.78    2.55   0 
  -6   8   8   -3.40    3.06   0 
  -5  -3  -8    0.88    4.22   0 
  -5   8   8    9.34    2.92   0 
  -4   6   8   26.55    2.74   0 
  -4   7   8    3.09    2.49   0 
  -4   8   8    6.47    2.93   0 
  -3   4   7  170.93    3.34   0 
  -2   5   7  188.47    3.93   0 
  -1  -3 -21   -1.66    2.91   0 
  -1  -3 -10   52.12    3.60   0 
  -1   9   6   -1.54    2.87   0 
   0  -3 -19    4.32    2.99   0 
   0  -3 -13   25.92    3.40   0 
   0  -2  -6  309.82    4.48   0 
   0   4   5    4.36    3.35   0 
   1  -2  -8  533.03    4.94   0 
   1  -1  -4   40.24    3.65   0 
   1   2   2  269.86    5.70   0 
   2  -2 -21   -0.62    2.88   0 
   4  -1 -18  185.01    3.87   0 
   4  -1 -17    1.85    3.25   0 
   4  -1 -16  117.95    3.11   0 
   4   0  -9    0.23    3.50   0 
   4   1  -6   69.37    4.09   0 
   4   7   0    1.92    3.62   0 
   5   0 -20   71.64    3.01   0 
   5   0 -19    0.56    3.15   0 
   5   0 -18  112.73    3.69   0 
   5   0 -17    0.98    3.15   0 
   5   0 -16  125.89    3.85   0 
   5   1 -10  625.55    5.90   0 
   5   2  -7   65.23    3.93   0 
   6   2 -12   97.55    4.30   0 
   7   4 -14   15.20    4.17   0 
   7   5 -12   16.25    4.83   0 
 -10   1   1   -1.21    4.71   0 
  -9   2   4   87.76    4.19   0 
  -9   4   6   18.85    3.22   0 
  -8   2   5    4.30    3.92   0 
  -8   3   6   31.73    3.45   0 
  -7   5   8   15.32    3.20   0 
  -6  -3 -10  101.24    4.73   0 
  -5   2   6   15.25    3.55   0 
  -5   3   7   62.51    3.53   0 
  -4   5   8   31.29    2.74   0 
  -3  -3  -8   11.28    3.67   0 
  -3  -2  -3    0.55    4.42   0 
  -3   6   8   11.90    2.71   0 
  -3   7   8    2.88    2.43   0 
  -3   8   8    3.77    3.19   0 
  -2  -3  -9    0.34    3.88   0 
  -2   2   5   -0.23    3.07   0 
  -2   3   6  162.23    3.72   0 
  -2   9   7   10.21    2.38   0 
  -1  -3 -19    5.39    3.20   0 
  -1  -3 -11  148.28    3.81   0 
  -1   4   6   22.28    2.88   0 
   0  -3 -17   34.96    2.66   0 
   0  -3 -16   80.51    3.52   0 
   0  -3 -15    0.16    3.14   0 
   0  -3 -14  282.19    3.71   0 
   0   6   6    5.88    3.36   0 
   0   7   6    4.40    3.18   0 
   2  -2 -20   33.47    3.13   0 
   2  -2 -19    9.36    3.12   0 
   2  -2 -13    5.50    2.97   0 
   2  -2 -12   71.04    2.83   0 
   3  -1 -10  383.83    4.75   0 
   4   2  -4 1035.60   10.56   0 
   4   8   0    1.88    3.66   0 
   5   9  -3    3.45    4.67   0 
   7   4 -15   10.28    3.66   0 
 -10   2   3    4.82    3.53   0 
  -9   5   7    9.80    3.22   0 
  -8  -2  -7   -0.05    5.81   0 
  -8   4   7    9.78    3.27   0 
  -8   6   8    5.52    3.07   0 
  -6  -3 -15    3.90    3.57   0 
  -6   2   6  306.92    4.42   0 
  -6   3   7  177.78    4.13   0 
  -6   4   8   65.59    3.64   0 
  -5  -2  -3   34.87    6.73   0 
  -5   0   3    1.84    3.88   0 
  -5   4   8    0.98    3.23   0 
  -5   7   9    8.36    3.08   0 
  -3   5   8  201.97    3.86   0 
  -2   0   2   97.40    4.97   0 
  -2   4   7   89.87    3.40   0 
  -2   7   8    5.18    3.11   0 
  -1  -3 -17    8.25    3.12   0 
  -1  -3 -12    4.80    3.34   0 
  -1   1   3  122.51    4.43   0 
   1  -2  -9    7.41    3.09   0 
   2  -2 -18   11.57    2.54   0 
   2  -2 -16    6.04    3.01   0 
   2  -2 -15   18.47    3.18   0 
   2  -2 -14    8.89    2.56   0 
   3  -1 -22   19.91    3.15   0 
   3  -1 -11    4.12    3.46   0 
   3   0  -6   27.47    3.66   0 
   3   8   2    1.39    3.32   0 
   4   0 -10  214.62    4.33   0 
   4   4  -1   46.43    6.83   0 
   5   1 -11    5.59    3.87   0 
   6   2 -20    5.43    3.51   0 
   6   2 -14   73.03    4.00   0 
   6   3 -10    5.89    4.11   0 
   6   4  -8   80.37    5.12   0 
   7   4 -17    4.11    3.64   0 
   7   4 -16    4.98    3.65   0 
   7   5 -13   10.68    4.28   0 
  -8  -1  -1   11.71    8.37   0 
  -8   5   8    3.87    3.13   0 
  -7   2   6   54.59    4.00   0 
  -7   3   7    4.51    3.27   0 
  -7   7   9    1.00    3.00   0 
  -6  -3 -14    8.12    3.70   0 
  -6  -3 -13   27.66    3.92   0 
  -6   0   3    1.62    4.09   0 
  -6   6   9    5.04    3.29   0 
  -6   7   9   33.12    2.90   0 
  -5   1   5    0.92    3.73   0 
  -5   8   9   11.35    2.54   0 
  -4  -3 -18   10.21    3.59   0 
  -4   0   3    1.69    3.56   0 
  -4   4   8  119.93    3.50   0 
  -4   6   9   -1.51    2.79   0 
  -4   7   9   23.91    3.24   0 
  -4   8   9    2.71    3.06   0 
  -3  -3 -19    0.51    2.99   0 
  -3   3   7    0.61    3.12   0 
  -2   6   8    4.53    2.74   0 
  -2   8   8    3.65    3.18   0 
  -1  -3 -16   17.47    3.23   0 
  -1  -3 -15   22.99    3.19   0 
  -1  -3 -14   13.89    3.25   0 
  -1  -2  -5   30.31    3.55   0 
   0   1   2 1320.75   10.64   0 
   0   9   6    5.39    3.00   0 
   1  -2 -21    3.30    3.01   0 
   2  -1  -7    0.71    2.51   0 
   2   3   2   19.53    3.94   0 
   2   8   4    1.28    3.29   0 
   3  -1 -21    1.93    2.52   0 
   3  -1 -20    9.98    2.95   0 
   3   9   2    2.52    3.26   0 
   4   0 -22    7.17    3.08   0 
   5   7  -2    2.78    5.65   0 
   6   2 -19   11.33    3.25   0 
   6   2 -18    0.21    3.12   0 
   6   2 -17    3.27    3.29   0 
   6   2 -16   27.87    3.25   0 
   6   2 -15   14.85    3.37   0 
   6   5  -7   87.10    7.52   0 
   7   6 -12    3.15    4.59   0 
 -10   0  -1    0.01    5.24   0 
 -10   3   5    3.80    3.67   0 
  -9   1   3    5.07    3.85   0 
  -9   3   6   22.63    3.43   0 
  -9   4   7    1.78    3.19   0 
  -8   0   2   26.12    4.57   0 
  -7  -2  -5    3.22    6.40   0 
  -7   6   9   33.79    2.81   0 
  -5  -3 -15    6.55    3.68   0 
  -5  -3 -11   27.52    4.13   0 
  -5   5   9   21.84    3.20   0 
  -4  -2  -3   68.08    5.69   0 
  -4   1   5    5.73    3.29   0 
  -4   5   9   86.74    3.62   0 
  -3  -3 -17   -1.19    3.10   0 
  -3   4   8   67.78    3.40   0 
  -3   6   9  108.94    3.93   0 
  -3   7   9   -3.66    3.12   0 
  -3   8   9   10.80    3.02   0 
   0  -2  -7   47.51    2.72   0 
   1  -2 -20   13.16    2.50   0 
   1  -2 -10  206.64    3.32   0 
   3  -1 -19   -0.62    3.07   0 
   3  -1 -13    7.93    3.16   0 
   4   0 -21   -1.35    3.10   0 
   4   0 -20   12.90    3.22   0 
   4   0 -11    1.39    3.31   0 
   4   9   0    2.99    3.71   0 
   5   1 -21    2.13    2.59   0 
   5   1 -13    9.70    3.67   0 
   5   2  -8   43.11    3.69   0 
   5   8  -2   -0.08    5.15   0 
   6   3 -11   64.56    4.39   0 
   7   5 -15    4.91    3.95   0 
   7   5 -14    2.15    3.64   0 
  -9   0   1   -1.25    5.18   0 
  -9   2   5   12.16    3.76   0 
  -9   5   8   13.91    3.22   0 
  -8   3   7   16.44    3.28   0 
  -8   4   8   38.03    3.58   0 
  -7   5   9   -1.15    3.16   0 
  -5  -3 -13    1.51    3.75   0 
  -5  -3 -12   37.38    3.87   0 
  -3  -3 -11   15.62    3.20   0 
  -3   9   9    4.43    2.92   0 
  -1   3   6   86.96    3.46   0 
  -1   7   8   14.53    3.17   0 
  -1   8   8    3.72    2.92   0 
   0  -2 -21    3.92    2.92   0 
   0   3   5  625.78    5.49   0 
   0   8   7   18.02    3.13   0 
   1  -2 -17    6.19    3.09   0 
   1  -2 -12  384.16    4.48   0 
   1  -2 -11    9.52    2.54   0 
   1  -1  -5   51.18    3.53   0 
   2  -1 -22   17.90    2.92   0 
   2   9   4    3.50    2.97   0 
   3  -1 -17    3.61    2.51   0 
   3  -1 -16    2.98    2.55   0 
   3  -1 -14    3.42    2.49   0 
   4   0 -19    0.49    3.17   0 
   4   0 -18    9.03    3.01   0 
   4   0 -13    1.52    3.37   0 
   4   0 -12   23.61    2.71   0 
   4   1  -7  150.69    4.05   0 
   5   1 -19    5.11    3.25   0 
   5   1 -18    2.41    3.05   0 
   5   1 -17    5.62    3.16   0 
   5   1 -16   43.81    3.42   0 
   5   1 -15    2.21    3.10   0 
   5   1 -14   98.77    3.71   0 
   5   6  -2    3.99    6.95   0 
   7   6 -13    5.25    4.62   0 
 -10   1   2   50.03    4.54   0 
 -10   2   4    6.45    3.77   0 
  -8  -2  -8  118.81    5.89   0 
  -8   2   6  144.01    4.26   0 
  -8   5   9   13.27    3.22   0 
  -7   0   3    1.70    4.18   0 
  -7   1   5   20.10    3.40   0 
  -6   2   7   -0.65    3.96   0 
  -6   3   8   10.07    3.29   0 
  -6   4   9    9.51    3.23   0 
  -6   6  10   17.94    3.20   0 
  -6   7  10    0.94    2.49   0 
  -5  -1   1   68.17    6.28   0 
  -5   3   8  322.93    4.02   0 
  -5   4   9  104.44    3.64   0 
  -5   6  10    0.35    3.08   0 
  -5   7  10    6.58    2.44   0 
  -5   8  10    5.43    2.26   0 
  -4   3   8  124.29    3.95   0 
  -4   8  10    1.93    3.04   0 
  -3   0   3   -0.90    3.77   0 
  -3   5   9   28.74    3.19   0 
  -2   3   7   41.59    3.20   0 
  -2   7   9   22.72    3.26   0 
  -2   8   9    5.65    3.18   0 
  -1  -2  -6  399.64    5.34   0 
  -1   4   7  189.89    4.12   0 
  -1   6   8    4.07    2.60   0 
  -1   9   8    1.79    2.94   0 
   0  -2  -8  129.70    4.00   0 
   0  -1  -3    0.19    3.22   0 
   0   9   7   10.28    3.04   0 
   1  -2 -16  211.28    3.53   0 
   1  -2 -15    5.96    3.00   0 
   1  -2 -14  279.48    3.99   0 
   1  -2 -13   -0.08    2.47   0 
   1   6   6    8.49    3.21   0 
   1   8   6    2.27    3.01   0 
   2  -1 -21    5.70    2.98   0 
   4   0 -17   -1.57    2.65   0 
   4   0 -16   49.61    3.41   0 
   4   0 -15   -0.08    3.31   0 
   4   0 -14   56.87    3.44   0 
   4   7   1   20.55    4.24   0 
   5   3  -6  228.04    6.31   0 
   6   4  -9    5.18    4.35   0 
  -9   3   7   19.95    3.78   0 
  -9   4   8    3.24    3.17   0 
  -7   6  10   -0.38    2.47   0 
  -6  -2  -4    2.37    5.70   0 
  -6   5  10    3.80    3.15   0 
  -5   5  10   17.40    3.23   0 
  -4   2   7    5.15    3.32   0 
  -4   4   9   72.92    3.16   0 
  -4   6  10   18.23    2.56   0 
  -3   1   5    6.34    3.44   0 
  -2   2   6 1005.31    6.24   0 
  -2   4   8  155.57    3.72   0 
  -2   6   9  109.47    3.46   0 
  -2   9   9    7.00    3.07   0 
  -1  -2 -21    5.37    3.09   0 
  -1   2   5    8.10    2.60   0 
  -1   5   8   56.79    3.43   0 
   0  -2 -19    7.39    3.24   0 
   0  -2 -18   23.12    3.17   0 
   0  -2  -9    3.46    3.08   0 
   0   2   4 2159.73    9.78   0 
   1   9   6    2.74    2.94   0 
   2  -1 -20   43.34    3.25   0 
   2   7   5    6.09    3.53   0 
   3   1  -4 1277.52    9.65   0 
   5   2  -9   83.22    3.51   0 
   5   9  -2    0.61    4.65   0 
   6   3 -19    3.73    3.23   0 
   6   3 -18   29.97    3.36   0 
   6   3 -17    7.01    3.63   0 
   6   3 -14   45.08    3.78   0 
   6   3 -13   20.30    3.41   0 
 -10   3   6   14.08    3.26   0 
  -9   1   4   24.08    4.31   0 
  -9   5   9    4.21    3.15   0 
  -8  -2 -11    4.53    4.41   0 
  -8  -2 -10   50.98    4.67   0 
  -8  -2  -9    4.92    4.62   0 
  -8   1   5   -0.80    3.76   0 
  -8   3   8    1.72    3.32   0 
  -8   4   9    3.30    3.13   0 
  -8   6  10   12.26    3.14   0 
  -7   5  10   19.46    3.25   0 
  -6  -1   1   23.45    6.21   0 
  -6   7  11    1.37    2.94   0 
  -4  -1   1  403.99    9.90   0 
  -3   3   8  617.83    5.22   0 
  -3   6  10   48.60    3.43   0 
  -2  -2 -21    2.81    2.90   0 
  -2  -2  -5   12.59    3.59   0 
  -2   5   9    4.17    2.92   0 
   0  -2 -17    7.61    3.12   0 
   0  -2 -10   50.50    3.45   0 
   1  -1 -22   13.35    2.52   0 
   2  -1 -19    1.26    2.52   0 
   2  -1 -10  375.98    4.42   0 
   2   9   5    0.74    3.39   0 
   3   0 -21    1.14    3.06   0 
   3   0  -8 2274.06    8.84   0 
   4   1 -21    0.10    3.01   0 
   4   1  -8    2.81    3.27   0 
   4   9   1    1.96    3.72   0 
   5   2 -21    1.96    3.11   0 
   5   2 -10   64.24    3.91   0 
   6   3 -16   65.83    3.65   0 
   6   3 -15    7.53    3.13   0 
 -10   0   0    2.46    5.76   0 
 -10   2   5   28.75    4.15   0 
  -9   2   6   58.30    3.55   0 
  -8   5  10   -1.06    2.84   0 
  -6   1   6   19.04    3.79   0 
  -6   6  11   30.20    3.12   0 
  -5   0   4    4.50    4.22   0 
  -5   6  11    9.69    3.15   0 
  -5   7  11    5.95    2.47   0 
  -4   7  11   24.70    3.18   0 
  -4   8  11    9.37    3.09   0 
  -3  -2 -20    5.44    2.90   0 
  -3  -2  -4  679.04    7.06   0 
  -3   2   7   97.82    3.84   0 
  -3   4   9   30.90    2.63   0 
  -2   7  10    3.11    3.07   0 
  -2   8  10    0.39    3.07   0 
  -1  -2  -7    8.71    3.21   0 
  -1   8   9    8.53    3.01   0 
  -1   9   9    7.94    3.03   0 
   0  -2 -16  125.71    3.11   0 
   0  -2 -15   27.93    3.34   0 
   0  -2 -13   91.44    3.49   0 
   0  -2 -12   11.94    3.24   0 
   0  -2 -11   89.67    3.71   0 
   0   8   8    1.09    3.07   0 
   0   9   8    3.10    2.83   0 
   1  -1 -21    4.76    2.91   0 
   1   8   7    8.08    3.58   0 
   2  -1 -17    3.82    2.45   0 
   2  -1 -15    7.70    3.24   0 
   2  -1 -11   22.94    3.11   0 
   3   0 -20   52.60    2.74   0 
   4   1 -20   79.37    3.35   0 
   5   2 -19    3.98    3.03   0 
   6   4 -10   68.49    4.41   0 
   6   5  -8    4.29    5.47   0 
 -10   1   3    7.52    4.28   0 
  -9   4   9   21.36    3.31   0 
  -8   0   3    1.77    4.24   0 
  -7  -2  -6  284.32    7.02   0 
  -7   3   9    0.30    3.24   0 
  -7   4  10    3.23    3.11   0 
  -7   6  11   26.25    2.78   0 
  -6   3   9   31.43    3.32   0 
  -6   4  10   60.32    3.44   0 
  -5   3   9    3.19    3.31   0 
  -5   4  10   30.11    3.41   0 
  -4  -2 -19    2.79    2.97   0 
  -4   6  11    6.58    3.01   0 
  -3   5  10   10.68    2.57   0 
  -2  -2 -19    0.90    2.99   0 
  -2   6  10    2.28    3.11   0 
  -2   9  10    2.62    2.93   0 
  -1  -2 -17   11.09    3.10   0 
  -1   6   9    3.79    2.57   0 
   0  -1 -22    5.15    2.88   0 
   1  -1 -20    7.30    2.51   0 
   2  -1 -14  615.78    4.42   0 
   2  -1 -13   -2.55    2.47   0 
   2   0 -22   19.54    3.17   0 
   3   0 -18  124.29    3.59   0 
   3   0  -9    0.85    3.37   0 
   4   1 -19    6.87    3.05   0 
   4   1  -9    9.94    3.32   0 
   4   2  -5    2.11    4.22   0 
   5   2 -18   64.01    3.47   0 
   5   2 -17    3.59    3.38   0 
   5   2 -11   11.23    3.33   0 
   6   4 -11    6.78    3.88   0 
 -10   3   7   12.80    3.14   0 
  -9   3   8   87.60    3.76   0 
  -7  -2 -14    9.80    3.61   0 
  -7   5  11    2.22    3.13   0 
  -6   5  11   52.47    2.74   0 
  -6   7  12    2.54    2.84   0 
  -5  -2  -4  728.64    8.73   0 
  -5   5  11   28.10    3.13   0 
  -4  -2  -4  284.61    6.19   0 
  -4   3   9   76.07    2.97   0 
  -4   4  10  106.54    3.41   0 
  -3  -2 -19    9.67    2.51   0 
  -3   7  11   14.54    2.68   0 
  -3   8  11    8.34    2.51   0 
  -2   3   8  211.67    3.90   0 
  -2   4   9   14.88    3.06   0 
  -1  -2  -8  657.11    5.50   0 
  -1   3   7   39.12    3.14   0 
   0  -1 -21    3.28    3.00   0 
   1  -1 -19    4.83    2.52   0 
   1  -1  -7    5.23    2.90   0 
   1   6   7   13.95    3.10   0 
   2   0 -21    0.72    2.99   0 
   3   0 -16  216.49    4.00   0 
   3   0 -11    0.76    3.23   0 
   3   0 -10  342.33    4.39   0 
   3   7   4    0.54    3.28   0 
   3   8   4    2.79    3.38   0 
   4   1 -17    2.95    3.25   0 
   5   2 -16  210.07    4.09   0 
   5   2 -15   -2.42    3.08   0 
   5   2 -14  103.23    3.66   0 
   5   2 -13   24.12    3.34   0 
   5   3  -7   55.57    4.59   0 
   5   8  -1   12.81    5.32   0 
  -9   1   5    2.57    4.07   0 
  -9   2   7    5.45    3.73   0 
  -8   3   9    7.81    3.41   0 
  -8   4  10   39.40    2.83   0 
  -8   5  11   13.28    3.11   0 
  -7  -2 -13    6.99    3.59   0 
  -7  -2  -7    1.52    4.48   0 
  -7   2   8   15.89    3.20   0 
  -6  -2 -16   26.80    3.22   0 
  -5  -2 -17    2.66    3.02   0 
  -5   7  12   -2.38    2.41   0 
  -4   5  11   98.28    2.99   0 
  -4   7  12   -0.01    2.89   0 
  -3  -2 -18    6.51    2.52   0 
  -3   6  11   35.34    2.71   0 
  -2  -2 -17    1.25    3.02   0 
  -2   5  10   46.83    3.19   0 
  -1  -2  -9   52.02    3.45   0 
  -1   1   4   39.12    3.66   0 
  -1   7  10    4.80    3.06   0 
   0  -1  -4  545.37    6.21   0 
   0   7   9    1.82    3.02   0 
   0   8   9   19.94    3.06   0 
   1  -1 -18   58.47    2.56   0 
   1  -1 -17   10.44    3.08   0 
   2   0 -20   53.29    3.32   0 
   2   7   6    1.48    2.98   0 
   2   9   6    3.49    3.26   0 
   3   0 -15   -1.06    2.61   0 
   3   0 -14  203.22    3.91   0 
   3   0 -13    0.16    3.14   0 
   3   0 -12  304.78    4.30   0 
   3   9   4    2.93    3.28   0 
   4   1 -16  118.50    3.57   0 
   4   1 -15    1.31    3.28   0 
   4   1 -14  128.77    4.05   0 
   4   1 -12  124.44    3.67   0 
   4   1 -11    2.35    3.25   0 
   4   7   2    1.77    4.06   0 
   4   8   2    3.83    3.71   0 
   5   3 -20   -0.39    3.13   0 
   5   7  -1   14.73    5.57   0 
   5   9  -1    5.67    5.10   0 
   6   4 -16    6.28    3.25   0 
   6   4 -15   16.33    3.75   0 
   6   4 -14   33.89    3.84   0 
   6   4 -13   31.24    3.87   0 
   6   6  -7    9.30    5.84   0 
 -10   1   4   77.94    4.82   0 
 -10   2   6    1.81    3.64   0 
  -9   4  10   -0.13    3.06   0 
  -8   1   6  176.63    4.98   0 
  -7  -2 -12    2.89    3.53   0 
  -7  -2 -11   47.17    4.23   0 
  -7  -2 -10   27.38    4.20   0 
  -7  -2  -9    3.33    4.37   0 
  -7  -2  -8  135.92    5.35   0 
  -7   6  12    3.66    2.52   0 
  -6  -2 -15   -0.29    3.09   0 
  -6  -2  -5   13.00    4.66   0 
  -6   3  10    2.96    3.18   0 
  -5  -2 -16    3.91    3.34   0 
  -5   6  12    2.63    2.42   0 
  -4  -2 -17    0.99    3.01   0 
  -4   6  12    3.06    2.98   0 
  -3  -2  -5  129.35    4.54   0 
  -3   3   9  115.72    3.09   0 
  -3   4  10   96.53    2.98   0 
  -3   5  11   41.37    3.35   0 
  -2   2   7  127.61    3.58   0 
  -2   7  11   12.99    3.16   0 
  -1  -1 -21    2.69    3.00   0 
  -1   2   6  275.32    4.14   0 
  -1   6  10    8.22    3.08   0 
   0  -1 -19    2.59    3.07   0 
   0   9   9   -0.33    2.84   0 
   1  -1 -16   14.07    3.05   0 
   1  -1  -8  400.07    4.33   0 
   1   0 -22    4.80    2.85   0 
   2   0 -19    3.18    3.02   0 
   3   1 -21    3.55    2.52   0 
   3   1  -5    4.00    3.64   0 
   3   6   4    1.21    3.41   0 
   4   1 -13   31.19    3.48   0 
   4   2 -21    3.35    3.09   0 
   4   9   2    1.17    3.75   0 
   5   3 -19   11.97    3.20   0 
   6   5  -9   91.61    5.44   0 
 -10   3   8   24.94    3.36   0 
  -9   3   9    1.45    3.24   0 
  -7  -1   1    1.21    6.58   0 
  -7   3  10   80.28    3.64   0 
  -7   4  11   18.71    2.58   0 
  -7   5  12   10.30    3.13   0 
  -6   1   7   14.37    3.30   0 
  -6   5  12   15.13    3.25   0 
  -5  -2 -15   18.97    3.69   0 
  -5   1   7   12.25    3.30   0 
  -5   3  10  241.43    3.64   0 
  -5   5  12   46.00    3.36   0 
  -3  -2 -15   11.81    3.77   0 
  -3   2   8   92.22    3.69   0 
  -3   7  12    2.96    2.95   0 
  -3   8  12    3.04    2.42   0 
  -2  -2 -14    2.19    3.19   0 
  -2  -2  -8   66.08    4.01   0 
  -2  -1 -21    2.13    3.05   0 
  -2   6  11   42.74    3.37   0 
  -1  -1 -20   76.68    3.62   0 
   1  -1 -15    3.61    2.46   0 
   1  -1 -14   12.26    3.05   0 
   1  -1 -13    8.55    3.01   0 
   1  -1 -10  184.83    3.69   0 
   1  -1  -9   19.45    3.01   0 
   1   0 -21    3.05    2.88   0 
   1   1   1    0.54    5.02   0 
   1   7   8    1.59    2.95   0 
   2   0 -18    4.50    2.90   0 
   2   0  -6  610.38    5.70   0 
   3   1 -20    9.46    3.11   0 
   4   2 -20    3.50    3.08   0 
   5   3 -18    2.82    3.14   0 
   5   3  -8  327.68    5.32   0 
   5   4  -5  235.51    7.38   0 
 -10   0   1    0.91    5.49   0 
  -9  -1  -4   18.53    7.59   0 
  -8   3  10    2.12    3.18   0 
  -8   4  11    2.68    3.10   0 
  -8   5  12    5.45    3.03   0 
  -7   1   7    1.06    3.75   0 
  -7   6  13    6.56    2.96   0 
  -6  -2 -13    5.45    3.01   0 
  -6  -2 -12  136.45    4.16   0 
  -6  -2  -6    3.42    4.64   0 
  -6   2   9    5.75    3.43   0 
  -6   6  13    0.51    3.17   0 
  -5  -2 -14   18.74    3.61   0 
  -5  -2  -5    0.45    4.54   0 
  -5   2   9   92.02    3.66   0 
  -5   7  13    4.45    2.38   0 
  -4  -2 -15    3.94    3.08   0 
  -4   4  11   43.03    2.80   0 
  -4   5  12   20.04    3.14   0 
  -3   6  12    2.24    3.04   0 
  -2  -2 -13   13.66    3.46   0 
  -2  -1 -20    5.26    2.99   0 
  -2   0   3   -0.83    3.49   0 
  -1  -1 -19    4.42    3.12   0 
  -1   8  11    3.34    2.99   0 
   0  -1  -5  168.71    4.21   0 
   0   0 -22   32.78    3.22   0 
   1  -1 -12  102.72    3.40   0 
   1   6   8    2.45    2.90   0 
   2   0 -17    3.86    3.11   0 
   3   1 -19    0.04    3.15   0 
   3   8   5   -0.73    3.46   0 
   4   2 -19    0.86    3.15   0 
   4   2  -6  547.48    6.53   0 
   5   3 -17   20.88    3.40   0 
   5   3  -9    2.21    4.17   0 
   6   5 -17    5.06    3.20   0 
   6   5 -16   16.94    3.80   0 
   6   5 -10    2.40    4.05   0 
 -10   2   7    6.70    3.60   0 
  -9   0   3    0.70    4.61   0 
  -9   1   6  126.13    5.10   0 
  -9   2   8    0.61    3.77   0 
  -9   4  11   18.12    3.56   0 
  -6  -2 -11    3.37    3.54   0 
  -6  -2 -10   92.38    4.41   0 
  -6  -2  -7   17.18    4.18   0 
  -6   0   5    2.10    3.50   0 
  -5  -2 -13    9.30    3.57   0 
  -5   0   5    1.35    3.61   0 
  -5   6  13   15.58    2.57   0 
  -4  -2 -13   14.44    3.67   0 
  -4   2   9   16.13    3.49   0 
  -4   7  13    9.41    2.55   0 
  -3  -2 -13   12.16    3.07   0 
  -3  -2  -7   29.97    3.71   0 
  -3  -1 -20   32.27    3.15   0 
  -3   0   4  498.64    5.69   0 
  -3   4  11   36.06    3.25   0 
  -2   3   9  167.14    3.55   0 
  -2   5  11    6.69    3.11   0 
  -2   7  12    3.81    3.07   0 
  -2   8  12   -2.15    2.43   0 
  -1   3   8   18.65    3.05   0 
   0   1   3    1.09    3.72   0 
   0   8  10    5.55    2.89   0 
   0   9  10    2.45    2.89   0 
   1   0 -20   70.82    2.82   0 
   2   0 -16   34.27    3.18   0 
   2   1 -21    7.41    2.96   0 
   2   9   7    5.04    2.78   0 
   3   1 -18    8.87    3.12   0 
   3   2 -22   11.38    2.53   0 
   3   9   5    2.21    2.88   0 
   4   2 -18    6.13    2.99   0 
   5   3 -16    5.30    3.27   0 
   5   3 -15   10.26    3.71   0 
   5   3 -10  245.53    4.78   0 
   6   5 -14    1.13    3.53   0 
   6   5 -13   18.41    4.26   0 
   6   5 -12   14.10    4.31   0 
   6   5 -11   52.39    4.51   0 
 -10   1   5    2.56    4.04   0 
 -10   3   9    2.83    3.18   0 
  -9   3  10   31.40    3.16   0 
  -8   1   7    3.17    4.06   0 
  -8   2   9    2.39    3.27   0 
  -7   0   5   -0.76    4.22   0 
  -7   3  11   18.72    3.35   0 
  -7   4  12    6.20    3.17   0 
  -7   5  13    8.89    3.02   0 
  -6  -2  -9   45.66    3.41   0 
  -6  -2  -8   28.24    4.08   0 
  -6   3  11   67.45    3.38   0 
  -6   4  12   51.54    2.77   0 
  -6   5  13   12.34    3.12   0 
  -5  -2  -6  132.11    4.65   0 
  -5   3  11   15.56    3.23   0 
  -5   4  12   12.44    3.20   0 
  -5   5  13   20.13    3.15   0 
  -4  -2  -6    2.91    3.48   0 
  -4   6  13   71.56    3.15   0 
  -3  -2  -9   13.16    3.66   0 
  -3   3  10   53.27    3.23   0 
  -3   5  12    8.09    3.05   0 
  -3   7  13   27.61    3.15   0 
  -2  -1 -19    5.95    2.51   0 
  -1  -1 -18   61.04    2.74   0 
  -1   0 -22   10.06    2.91   0 
  -1   6  11    1.60    3.04   0 
   0  -1 -15    6.32    3.10   0 
   0   0 -21   -0.90    2.36   0 
   0   3   7   18.53    3.21   0 
   1   0 -19    3.40    2.39   0 
   1   8   9    4.01    2.84   0 
   2   0 -15    4.96    2.98   0 
   2   0  -7   -1.23    2.55   0 
   3   1 -17    6.59    2.60   0 
   3   1  -6 2019.74    9.49   0 
   3   2 -21    3.50    3.05   0 
   4   2 -17    6.01    3.20   0 
   4   2  -7   -0.79    3.59   0 
   4   3 -21    6.08    2.48   0 
   4   3  -3  237.03    8.14   0 
   4   9   3    2.97    3.53   0 
   5   3 -13   87.55    4.22   0 
   5   3 -11   16.70    3.99   0 
   5   4 -19    1.91    3.12   0 
   5   8   0   -0.41    5.02   0 
   6   6  -8    1.32    4.79   0 
  -8   3  11   32.58    3.27   0 
  -8   4  12   15.24    3.33   0 
  -8   5  13    5.92    3.09   0 
  -6   1   8    3.63    3.78   0 
  -6   6  14    1.07    2.88   0 
  -5  -2 -11   12.61    3.47   0 
  -5  -2  -9    3.99    4.15   0 
  -5  -2  -8  177.82    4.72   0 
  -5  -2  -7   55.09    4.18   0 
  -5   7  14    1.52    2.28   0 
  -4  -2 -11   10.35    3.14   0 
  -4  -2 -10   13.45    3.64   0 
  -4  -2  -9    4.77    3.52   0 
  -4  -2  -8    2.83    3.44   0 
  -4  -1 -19   -1.12    2.87   0 
  -4   0   5    0.89    3.50   0 
  -4   4  12   13.11    3.08   0 
  -3  -1 -19    3.93    2.33   0 
  -3   6  13    6.67    3.04   0 
  -2   1   6  418.01    4.67   0 
  -2   2   8 1037.49    5.99   0 
  -1  -1 -17    4.37    2.57   0 
  -1   0 -21   -2.22    3.00   0 
  -1   8  12    3.32    2.69   0 
   0   0 -20   40.36    3.01   0 
   1   1 -22   19.21    2.46   0 
   2   0 -14    7.76    2.45   0 
   2   0 -13    0.73    3.01   0 
   2   0  -9   -3.09    3.01   0 
   2   0  -8  145.56    3.73   0 
   2   1 -20   58.45    2.71   0 
   3   1 -16    5.32    2.58   0 
   3   1 -15   67.59    3.36   0 
   4   2 -15   78.07    3.49   0 
   4   3 -20   44.02    3.36   0 
   5   4 -18   21.07    3.26   0 
   5   9   0    2.37    4.88   0 
 -10   2   8   31.92    3.77   0 
  -9  -1  -9    5.69    4.34   0 
  -9  -1  -5    2.05    5.98   0 
  -9   2   9    9.27    3.69   0 
  -9   4  12    1.68    2.94   0 
  -7   1   8  263.06    4.64   0 
  -7   2  10    3.48    3.10   0 
  -6  -1   2  261.73    7.47   0 
  -6   2  10  240.04    4.14   0 
  -5  -1 -18   24.89    3.06   0 
  -5  -1   2 1023.75   11.29   0 
  -5   1   8  479.13    4.96   0 
  -5   2  10   59.38    3.46   0 
  -5   6  14   15.24    2.58   0 
  -4  -1 -18    2.60    3.01   0 
  -4   3  11   38.62    2.74   0 
  -4   5  13    5.72    2.35   0 
  -4   7  14    2.90    2.37   0 
  -3   1   7   12.64    3.19   0 
  -3   2   9   46.48    3.20   0 
  -2   8  13   11.51    3.00   0 
  -1  -1 -16   45.79    3.40   0 
  -1  -1  -3   14.82    4.09   0 
  -1   7  12    7.49    2.95   0 
   0  -1 -13    0.52    2.41   0 
   0  -1  -7  211.50    3.93   0 
   0   0 -19    0.06    2.98   0 
   1   0 -17    2.81    2.84   0 
   1   0  -3   -0.19    3.87   0 
   1   1 -21    3.35    2.93   0 
   2   0 -11   -0.45    2.67   0 
   2   0 -10  465.02    4.33   0 
   2   1 -19    3.31    3.05   0 
   2   2 -22   11.98    2.92   0 
   2   8   8    1.83    3.24   0 
   2   9   8   -0.10    3.13   0 
   3   1 -14   -0.10    3.20   0 
   3   1  -7    8.47    3.35   0 
   3   2  -2  191.84    8.74   0 
   3   8   6    3.48    3.28   0 
   3   9   6   -0.84    3.31   0 
   4   2 -14   25.75    3.27   0 
   4   2 -13   29.06    3.81   0 
   4   2  -8  199.00    4.07   0 
   4   3 -19    0.28    3.10   0 
   5   4 -17    7.83    3.13   0 
   5   4  -6    4.45    4.79   0 
   5   7   0    1.87    5.83   0 
   6   6 -15   -0.54    3.54   0 
   6   6 -14    5.70    3.44   0 
   6   6  -9    3.77    4.26   0 
 -10   0   2    0.69    5.56   0 
  -9  -1  -8   42.69    4.64   0 
  -9  -1  -7    2.12    4.59   0 
  -9   1   7    6.47    3.65   0 
  -9   3  11   -2.01    2.97   0 
  -8   0   5    2.28    3.86   0 
  -7   4  13   17.57    3.00   0 
  -7   5  14    6.31    2.95   0 
  -6  -1 -16    3.07    3.47   0 
  -6   3  12   43.13    3.44   0 
  -6   4  13   32.43    3.16   0 
  -6   5  14    2.16    3.02   0 
  -5  -1 -17   -0.55    3.45   0 
  -5   4  13    5.98    3.05   0 
  -4   1   8    4.46    3.34   0 
  -4   6  14    5.93    2.32   0 
  -3  -1 -17    6.76    2.93   0 
  -3   4  12   58.09    3.20   0 
  -3   5  13   33.97    3.15   0 
  -3   7  14    6.55    3.04   0 
  -2   0 -21    1.54    2.92   0 
  -1  -1 -15    0.07    3.01   0 
  -1   0 -20   12.80    3.03   0 
  -1   1   5   49.65    2.96   0 
  -1   3   9  291.50    4.21   0 
   0  -1 -10 1028.04    5.93   0 
   0  -1  -9   -1.52    3.02   0 
   0   7  11    1.84    2.90   0 
   1   8  10    1.17    2.81   0 
   1   9  10    3.33    2.86   0 
   2   1 -18  122.45    3.70   0 
   2   7   8    3.01    2.92   0 
   3   1 -13    5.59    3.13   0 
   3   1 -12   79.22    3.53   0 
   3   1  -9   22.94    3.47   0 
   3   1  -8  198.08    4.01   0 
   3   2 -19   -1.19    3.11   0 
   3   7   6    3.57    3.24   0 
   4   2 -12  183.26    4.14   0 
   4   2 -11   68.72    3.48   0 
   4   2 -10  216.96    4.09   0 
   4   2  -9   15.66    3.18   0 
   4   3 -18   81.25    3.48   0 
   5   4 -16   40.66    3.37   0 
   6   6 -13   -0.30    3.51   0 
   6   6 -12   14.95    4.02   0 
 -10   1   6   34.69    4.05   0 
  -8  -1 -12   -1.01    3.96   0 
  -8   1   8   15.81    3.98   0 
  -8   4  13    0.11    2.95   0 
  -7   3  12  108.12    3.55   0 
  -6   0   6  177.23    4.26   0 
  -5   0   6    0.68    3.62   0 
  -5   3  12  184.71    3.93   0 
  -5   5  14    8.03    2.47   0 
  -4  -1 -17   12.37    3.02   0 
  -4   2  10  209.97    3.49   0 
  -4   4  13   20.47    3.21   0 
  -4   7  15    8.53    2.75   0 
  -3   3  11    9.46    2.45   0 
  -3   6  14    7.32    3.07   0 
  -2  -1 -16  140.31    3.64   0 
  -2  -1  -1   22.36    5.98   0 
  -2   0 -20   66.48    3.32   0 
  -2   6  13   17.75    2.58   0 
  -1  -1 -14   29.92    3.26   0 
   0   0 -18  118.53    3.41   0 
   0   2   6  278.34    4.30   0 
   1   0 -15   -0.91    2.98   0 
   1   7  10    4.30    2.91   0 
   2   1 -17   -0.44    3.15   0 
   2   1  -2   70.02    5.54   0 
   2   2 -21    3.37    2.99   0 
   3   1 -11    0.97    2.69   0 
   3   1 -10  440.20    4.81   0 
   3   2 -18  116.08    3.51   0 
   3   3 -21    5.60    3.02   0 
   4   4 -20    1.53    3.07   0 
   4   8   4    2.28    3.69   0 
   4   9   4    3.15    3.75   0 
   5   5 -18    2.23    3.04   0 
 -10   2   9    2.21    3.62   0 
  -8   3  12    0.40    3.08   0 
  -7  -1 -14   33.49    3.27   0 
  -7   0   6   53.14    4.02   0 
  -6  -1 -15    6.32    3.62   0 
  -6   1   9    7.85    3.81   0 
  -6   2  11    0.48    3.15   0 
  -5   6  15   -0.16    2.32   0 
  -4  -1 -16   15.58    3.09   0 
  -3   0 -20    3.49    3.03   0 
  -3   0   5   -0.18    3.67   0 
  -2  -1 -15   -1.20    3.17   0 
  -2   7  14    1.51    2.79   0 
  -1  -1 -13   17.38    3.17   0 
  -1   0 -19    3.82    2.52   0 
  -1   7  13   16.76    3.13   0 
   0   0 -17    3.30    3.05   0 
   0   1 -21    8.76    2.95   0 
   0   8  12    2.87    2.78   0 
   1   1 -19    5.87    2.99   0 
   1   2 -22   26.36    2.97   0 
   3   2 -17   -1.32    3.20   0 
   4   3 -17   10.83    3.16   0 
   5   4 -14   90.12    3.54   0 
   5   4  -7   74.60    4.55   0 
   5   5 -17   12.56    3.62   0 
   6   7  -8    0.90    5.33   0 
   6   8  -7    2.32    6.06   0 
  -9   3  12    9.15    3.10   0 
  -8  -1 -11    3.91    3.54   0 
  -7  -1 -13    0.92    3.41   0 
  -7   1   9    1.99    3.11   0 
  -7   4  14    8.38    3.08   0 
  -7   5  15    2.54    2.97   0 
  -6   4  14   18.75    3.22   0 
  -5  -1 -15    2.06    3.66   0 
  -5   1   9    4.38    3.26   0 
  -5   2  11   10.28    3.37   0 
  -5   4  14   50.56    3.33   0 
  -4  -1   2  414.14    8.89   0 
  -4   6  15   23.70    2.51   0 
  -3  -1 -15    4.47    3.14   0 
  -3   1   8  200.02    4.19   0 
  -3   2  10  340.70    4.33   0 
  -3   7  15   17.51    3.01   0 
  -2   0 -19    1.59    3.09   0 
  -2   1   7   -0.72    2.87   0 
  -2   2   9  115.75    2.94   0 
  -2   4  12   27.86    3.10   0 
  -2   5  13    9.95    3.04   0 
  -1  -1 -12    4.30    3.23   0 
  -1   0 -18   29.90    3.11   0 
  -1   2   8  466.88    4.63   0 
  -1   4  11    1.00    2.98   0 
  -1   5  12    4.43    3.13   0 
   0   1 -20   17.15    2.89   0 
   0   7  12    4.02    2.77   0 
   1   8  11    2.04    3.32   0 
   2   1 -16  212.08    3.37   0 
   3   3 -20   10.50    2.47   0 
   3   8   7    2.55    3.25   0 
   4   3 -16   58.49    3.41   0 
   4   4 -19   15.96    3.15   0 
   4   7   4    0.84    3.84   0 
   5   4 -12   11.15    3.91   0 
   5   4 -11   74.81    4.20   0 
   5   4  -8    1.02    4.25   0 
   5   8   1    8.32    5.31   0 
   5   9   1   -2.03    4.90   0 
   6   7 -12    2.80    3.99   0 
   6   7 -10    2.07    4.55   0 
 -10   0   3    2.64    5.96   0 
 -10   1   7    6.90    4.07   0 
  -9   1   8   66.95    3.99   0 
  -8  -1 -10    7.49    3.96   0 
  -8   1   9   11.76    3.89   0 
  -8   2  11   -0.97    3.22   0 
  -8   4  14    7.11    3.09   0 
  -7   3  13    4.08    3.00   0 
  -6  -1 -14   15.49    3.23   0 
  -6   3  13   14.79    2.69   0 
  -5   3  13   70.70    3.44   0 
  -5   5  15   28.68    2.66   0 
  -4  -1 -15   12.29    3.13   0 
  -4   0 -19    3.62    2.95   0 
  -4   0   6  372.90    4.82   0 
  -4   2  11   66.23    3.55   0 
  -3  -1   1    5.71    8.24   0 
  -3   3  12    2.42    3.10   0 
  -3   5  14    8.89    2.40   0 
  -2  -1 -13   17.09    3.26   0 
  -2   3  11    1.11    2.92   0 
  -2   6  14    5.15    3.05   0 
  -1  -1 -11    2.72    3.14   0 
  -1  -1 -10    7.53    3.24   0 
  -1   1 -21   -0.66    2.44   0 
   0   0 -16  165.94    3.22   0 
   0   1   4  550.83    6.16   0 
   0   5  11    1.17    3.10   0 
   1   0 -12  881.23    5.56   0 
   1   1 -18   67.12    3.13   0 
   1   2 -21   -1.32    3.11   0 
   2   1 -15    7.59    3.14   0 
   2   2 -19   10.74    3.17   0 
   2   7   9    5.31    2.96   0 
   3   3 -19    9.84    3.13   0 
   4   3 -15    3.00    3.17   0 
   4   4 -18    4.31    3.12   0 
   5   4  -9  113.70    4.34   0 
   5   5 -16    5.12    3.12   0 
   6   8  -8    3.49    5.41   0 
  -9   0   5    1.10    4.61   0 
  -8   3  13    6.15    3.24   0 
  -7  -1 -12   40.64    3.66   0 
  -6  -1 -13   17.20    3.70   0 
  -6   0   7   -0.05    3.45   0 
  -5  -1 -14  217.40    4.01   0 
  -4   1   9   12.11    3.59   0 
  -4   4  14   29.14    2.69   0 
  -3  -1 -14   74.50    3.40   0 
  -3   6  15   -3.62    2.39   0 
  -2   0 -18   79.02    2.83   0 
  -1  -1  -9    3.25    3.43   0 
  -1  -1  -8  210.01    4.09   0 
  -1  -1  -5   73.32    3.74   0 
  -1   1 -20  110.97    3.41   0 
  -1   8  14    3.71    2.44   0 
   0   0 -15    3.91    3.09   0 
   0   1 -19   -0.92    2.98   0 
   0   2 -22   54.68    2.72   0 
   0   6  12    5.92    3.15   0 
   1   0 -11   -2.00    2.94   0 
   1   0  -5   -3.41    3.65   0 
   1   1 -17   13.02    3.09   0 
   2   1 -14  718.04    5.32   0 
   2   2 -18   11.79    3.08   0 
   2   3 -21   20.25    2.66   0 
   3   2 -15    1.95    2.73   0 
   4   3 -14   88.76    3.65   0 
   4   3  -4  126.08    5.83   0 
   4   9   5    0.91    3.71   0 
  -9   2  11    1.41    3.24   0 
  -9   3  13    0.99    3.24   0 
  -8  -1  -9    7.68    3.65   0 
  -8   4  15    1.85    3.10   0 
  -7  -1 -11    3.25    3.64   0 
  -7   0   7    0.33    4.27   0 
  -7   2  12   13.98    3.22   0 
  -6   1  10   40.40    3.42   0 
  -6   2  12  106.31    3.66   0 
  -6   4  15   12.67    3.28   0 
  -6   5  16   10.28    3.16   0 
  -5  -1 -13    2.85    3.50   0 
  -5   0 -18   -1.44    3.04   0 
  -5   0   7    0.39    3.48   0 
  -5   2  12   56.37    3.46   0 
  -4   0 -18   66.13    3.40   0 
  -4   3  13   45.50    2.91   0 
  -3   0 -18   33.16    3.21   0 
  -3   7  16   -2.23    2.87   0 
  -2   0 -17   -0.35    3.24   0 
  -1  -1  -7  456.46    4.97   0 
  -1   0 -16  390.42    4.37   0 
   0   0 -14    2.65    3.06   0 
   0   2 -21    6.98    2.87   0 
   0   2   7   44.80    3.15   0 
   0   3   9    8.54    3.39   0 
   0   7  13    0.69    2.78   0 
   1   0 -10  106.42    2.99   0 
   1   0  -9    1.57    2.96   0 
   1   0  -6  349.79    4.78   0 
   1   2 -20   19.99    2.55   0 
   1   6  11    2.71    3.08   0 
   2   1 -13   -1.72    3.16   0 
   2   8  10    2.30    2.91   0 
   3   2 -14  151.43    3.67   0 
   3   4 -20   14.45    3.09   0 
   4   3 -13   62.00    3.55   0 
   4   4 -17   62.88    3.48   0 
   4   5 -19   -1.68    2.93   0 
   4   8   5   36.40    3.79   0 
   5   5 -14   11.31    3.96   0 
   5   6 -16    3.06    3.75   0 
  -9   1   9    6.24    3.77   0 
  -8  -1  -8   42.93    4.16   0 
  -7   3  14   55.00    3.32   0 
  -6  -1 -12   55.06    3.37   0 
  -6  -1   3    2.12    5.26   0 
  -6   3  14   44.21    3.26   0 
  -5  -1   3   37.85    5.58   0 
  -5   0 -17    3.63    3.06   0 
  -5   1  10  666.46    5.22   0 
  -5   3  14   31.26    3.28   0 
  -5   4  15    5.43    2.57   0 
  -5   5  16    2.40    2.45   0 
  -4  -1 -13    8.56    3.24   0 
  -3   0 -17    6.04    3.01   0 
  -3   2  11   33.14    3.27   0 
  -3   5  15   37.03    2.68   0 
  -2  -1 -11   31.42    3.49   0 
  -2   1 -20    6.71    3.01   0 
  -2   2  10  189.90    3.31   0 
  -2   3  12  123.82    3.62   0 
  -2   6  15   20.90    3.27   0 
  -1   1 -19    5.34    3.10   0 
  -1   6  14   13.23    2.98   0 
   0   0 -13    4.05    2.98   0 
   0   1 -18   75.89    2.73   0 
   1   0  -8  189.16    3.40   0 
   1   0  -7   -1.97    2.52   0 
   1   1 -16   17.61    3.18   0 
   1   2 -19   85.68    3.37   0 
   1   4   9    5.21    3.10   0 
   1   8  12    0.81    2.81   0 
   2   1 -12  580.67    5.15   0 
   2   2 -17   53.83    3.30   0 
   2   7  10    2.67    3.38   0 
   3   2 -13    0.10    3.50   0 
   3   3 -17   39.91    3.21   0 
   3   8   8    0.96    2.94   0 
   4   4 -16   15.75    3.33   0 
   4   7   5   -0.55    3.88   0 
   5   5 -13   40.23    3.90   0 
   5   5  -4  107.02    7.45   0 
   5   7   1   33.23    6.05   0 
 -10   0   4   14.16    5.82   0 
 -10   1   8   12.49    3.73   0 
 -10   2  11    5.81    3.60   0 
  -8  -1  -7    3.52    3.91   0 
  -8  -1  -1    9.70    8.42   0 
  -8   0   7    0.34    3.96   0 
  -8   1  10   -2.00    3.27   0 
  -8   3  14    6.60    3.15   0 
  -7  -1 -10  122.32    4.21   0 
  -5  -1 -12  124.63    3.97   0 
  -4   0 -17    0.11    2.89   0 
  -4   0   7    1.83    3.69   0 
  -4   1  10  408.74    4.74   0 
  -4   2  12  194.79    3.78   0 
  -4   4  15   69.62    3.23   0 
  -4   5  16    8.09    2.96   0 
  -3   0   6   24.59    3.62   0 
  -3   1 -20   42.49    2.63   0 
  -3   1   9   27.41    3.41   0 
  -3   3  13   88.18    3.53   0 
  -2  -1 -10  869.62    5.81   0 
  -2   0 -16   25.22    3.26   0 
  -2   1   8  282.47    4.05   0 
  -2   7  16    8.49    2.96   0 
  -1   0 -15    4.00    2.73   0 
  -1   2 -21   19.18    2.91   0 
  -1   2   9    6.72    2.44   0 
   0   1 -17   13.67    3.03   0 
   0   2 -20   43.22    3.03   0 
   0   8  14    4.22    2.98   0 
   1   1 -15    3.82    3.04   0 
   1   3 -21    4.19    2.93   0 
   1   7  12   -0.24    2.87   0 
   2   1 -11   23.38    3.51   0 
   2   1  -3  306.32    6.20   0 
   2   3 -19    4.38    3.29   0 
   3   2 -12  503.09    4.85   0 
   3   4 -19   16.31    3.09   0 
   3   7   8    2.23    3.30   0 
   4   3 -11   40.62    3.39   0 
   4   3  -5   57.89    5.15   0 
   5   5 -12   87.40    4.24   0 
  -9   0   6   32.09    4.82   0 
  -9   2  12    4.63    3.15   0 
  -7  -1  -9   -1.17    3.62   0 
  -7   2  13   12.02    3.24   0 
  -7   4  16    4.55    3.01   0 
  -6  -1 -11    9.45    3.37   0 
  -6   2  13   17.41    3.36   0 
  -6   4  16    6.06    2.95   0 
  -5   0 -16   16.91    3.26   0 
  -5   5  17   -0.18    2.96   0 
  -4   3  14   82.45    3.30   0 
  -4   6  17   13.76    2.39   0 
  -3  -1 -11    4.57    3.31   0 
  -3   0 -16   35.81    3.19   0 
  -2  -1  -9   -2.94    3.32   0 
  -2  -1  -2  825.69    9.61   0 
  -2   1 -19    7.75    2.45   0 
  -2   5  15    1.50    3.05   0 
  -1   0 -14  390.19    4.19   0 
  -1   0   3   -0.52    3.95   0 
  -1   1 -18   72.37    3.30   0 
   0   0 -12    6.87    3.17   0 
   0   7  14    2.02    2.90   0 
   1   2 -18   36.74    3.16   0 
   2   1 -10  423.16    4.72   0 
   2   2 -16    5.35    2.56   0 
   2   6  10    3.37    3.36   0 
   3   2 -11   36.15    3.53   0 
   3   2  -3   10.24    4.66   0 
   3   3 -16    3.56    3.45   0 
   4   3  -9   80.39    4.06   0 
   4   3  -6   28.70    4.42   0 
   4   5 -17    2.91    3.01   0 
   4   5   3   80.48    5.03   0 
   4   8   6   -1.76    3.78   0 
   5   8   2    1.46    5.13   0 
  -8  -1  -5   10.92    4.96   0 
  -8  -1  -2  182.83    8.73   0 
  -8   2  13    3.86    3.25   0 
  -8   3  15    9.10    3.12   0 
  -7  -1   3    8.74    5.78   0 
  -7   0 -14   11.78    3.61   0 
  -7   0   8    0.88    3.78   0 
  -7   1  11    3.04    3.30   0 
  -7   3  15    4.74    3.15   0 
  -6  -1 -10  152.23    4.56   0 
  -6   3  15    2.81    3.09   0 
  -5  -1 -11    7.55    3.24   0 
  -5   0   8   62.59    3.95   0 
  -5   1  11    4.01    3.47   0 
  -5   2  13   26.64    2.83   0 
  -5   3  15   10.60    3.14   0 
  -5   4  16   20.47    2.77   0 
  -4  -1 -11    0.23    3.19   0 
  -4   0 -16  140.11    3.58   0 
  -4   1 -19    5.32    2.97   0 
  -3  -1 -10   38.45    3.43   0 
  -3   2  12  457.85    4.56   0 
  -3   4  15    0.86    2.84   0 
  -3   5  16   -0.02    2.44   0 
  -3   6  17    3.79    2.96   0 
  -2  -1  -8  740.32    5.50   0 
  -2   0   5   -0.47    3.41   0 
  -2   2 -21    1.95    2.44   0 
  -2   6  16    6.94    2.95   0 
  -1   1   7    5.35    2.91   0 
  -1   2 -20   34.06    3.11   0 
  -1   4  13   15.55    3.14   0 
  -1   5  14    3.30    2.57   0 
  -1   6  15   -3.57    3.08   0 
   0   0 -11    1.68    2.92   0 
   0   1 -16  157.11    3.61   0 
   0   1   5  177.56    4.26   0 
   0   2 -19    5.63    3.17   0 
   0   2   8  125.67    3.83   0 
   0   3 -21   17.64    2.96   0 
   1   1 -14   16.35    2.53   0 
   1   3 -20   16.42    2.58   0 
   1   8  13    4.40    2.82   0 
   2   1  -9  105.45    3.96   0 
   2   2 -15   26.81    3.39   0 
   2   3 -18  127.90    3.63   0 
   3   2 -10  371.54    4.77   0 
   3   3 -15   89.03    3.60   0 
   3   8   9    1.09    3.29   0 
   4   3  -8  129.18    3.74   0 
   4   3  -7  294.62    5.10   0 
 -10   1   9    4.42    3.63   0 
  -9   2  13    9.76    3.57   0 
  -8  -1  -3    2.24    6.13   0 
  -8   1  11    8.28    3.19   0 
  -7  -1  -8   84.17    3.92   0 
  -5  -1 -10   21.98    3.79   0 
  -5   0 -15    3.77    3.13   0 
  -4  -1 -10  496.51    4.99   0 
  -4   2  13   30.28    3.30   0 
  -4   4  16    6.65    3.18   0 
  -4   5  17   -2.08    2.40   0 
  -3  -1  -9   11.13    3.88   0 
  -3   0 -15    3.38    3.21   0 
  -3   1  10  432.15    4.72   0 
  -2  -1  -7  183.43    4.13   0 
  -2  -1  -6 1420.27    7.94   0 
  -2  -1  -3  513.92    7.09   0 
  -2   0 -14  138.50    3.70   0 
  -2   1 -18   49.36    2.83   0 
  -2   3  13    4.43    2.98   0 
  -1   0 -13    3.26    3.11   0 
  -1   2  10  203.74    3.79   0 
  -1   7  16    1.80    2.91   0 
   0   0 -10   65.51    3.33   0 
   0   4  12    5.23    3.22   0 
   0   5  13    3.26    3.11   0 
   0   6  14    5.43    2.88   0 
   1   1 -13    9.20    3.24   0 
   1   2 -17    8.70    3.19   0 
   2   1  -7   -0.32    3.40   0 
   2   1  -5   43.72    4.13   0 
   2   1  -4  318.98    5.39   0 
   2   2   3   12.95    4.17   0 
   2   4   8    4.19    3.57   0 
   2   7  11    3.55    2.89   0 
   3   4   5   11.91    3.52   0 
   4   4   1  362.00    9.16   0 
   4   6   5  242.19    5.42   0 
   4   7   6    4.27    3.94   0 
   5   5  -6  133.37    5.76   0 
   5   5  -5    8.62    5.22   0 
 -10   0   5    2.96    5.01   0 
  -9   0   7   -0.50    3.96   0 
  -8   0   8  451.59    5.56   0 
  -7  -1  -7    7.80    3.93   0 
  -7   0 -13    0.88    3.60   0 
  -7   2  14   30.37    3.42   0 
  -7   4  17    1.28    2.49   0 
  -6  -1  -9   15.92    3.88   0 
  -6  -1   4   25.78    5.18   0 
  -6   0 -14  157.38    4.05   0 
  -6   2  14   67.53    3.58   0 
  -6   4  17    1.64    2.50   0 
  -5   1 -18   34.55    3.12   0 
  -5   4  17    0.14    3.00   0 
  -5   5  18    0.08    2.82   0 
  -4  -1   3    4.36    4.95   0 
  -4   0   8 2567.04    9.64   0 
  -4   1 -18    7.92    3.04   0 
  -4   1  11    2.43    3.34   0 
  -4   3  15    3.62    3.10   0 
  -3   0   7    1.05    3.45   0 
  -3   1 -18  158.93    3.07   0 
  -3   2 -20    5.62    2.92   0 
  -2  -1  -5   13.62    3.40   0 
  -2  -1  -4  979.36    7.72   0 
  -2   1   9  107.99    3.50   0 
  -2   2 -20   72.16    2.81   0 
  -2   5  16   44.68    3.49   0 
  -1   0 -12  455.04    4.61   0 
  -1   2 -19   14.96    3.08   0 
  -1   3 -21   -0.75    2.86   0 
  -1   3  12   56.33    2.79   0 
   0   2 -18   22.30    3.19   0 
   0   3 -20   23.33    3.07   0 
   0   7  15    3.28    2.87   0 
   1   3 -19   36.63    2.76   0 
   2   2 -14   10.70    2.78   0 
   2   4 -19    8.91    3.11   0 
   2   8  12    0.94    3.33   0 
   3   2  -7  100.00    4.22   0 
   3   2  -4   78.24    4.69   0 
   5   5  -7   11.69    4.41   0 
   5   6 -12    4.65    3.90   0 
   5   7 -14    1.38    3.86   0 
   5   7   2    2.36    5.48   0 
  -9   1  11    3.42    3.65   0 
  -7   0   9    1.29    3.80   0 
  -7   3  16    9.74    2.61   0 
  -6  -1  -8  395.22    5.49   0 
  -6   0   9    3.47    3.69   0 
  -6   1  12   12.46    3.21   0 
  -6   3  16   45.42    2.95   0 
  -5  -1  -9  119.90    4.15   0 
  -5  -1   4  684.74    7.90   0 
  -5   1  12  128.70    3.87   0 
  -5   2  14  101.68    3.10   0 
  -5   3  16    6.94    3.09   0 
  -4  -1  -9    7.15    3.26   0 
  -4   0 -14  104.64    3.92   0 
  -3  -1  -8   38.58    3.37   0 
  -3   0 -14   58.71    3.39   0 
  -3   2  13    1.08    2.89   0 
  -3   5  17   18.79    2.52   0 
  -3   6  18    1.26    2.90   0 
  -2   0 -13    5.35    3.16   0 
  -2   1 -17   14.21    2.46   0 
  -2   4  15   49.03    3.01   0 
  -2   6  17   17.44    3.15   0 
  -1   1 -16   52.99    3.25   0 
  -1   6  16    5.39    2.99   0 
   0   0  -9    2.13    2.54   0 
   0   3  11   11.59    3.35   0 
   1   1 -12  120.63    3.57   0 
   1   2 -16  261.68    3.54   0 
   2   2 -13    3.42    3.43   0 
   2   5  10    5.25    2.85   0 
   3   2  -5  242.83    4.91   0 
   3   3 -13  116.04    3.79   0 
   3   4 -16   71.66    3.46   0 
   3   5 -18    3.97    3.16   0 
   3   8  10    5.69    3.39   0 
   4   4 -12   19.55    3.67   0 
   5   8   3    6.78    5.20   0 
 -10   1  10   16.37    3.60   0 
  -9   0  -9   -0.77    3.79   0 
  -9   2  14    5.11    3.02   0 
  -8   0 -11   -1.98    3.49   0 
  -7  -1  -6   12.15    4.32   0 
  -6   0 -13   -0.45    3.54   0 
  -6   4  18    6.70    3.03   0 
  -5   1 -17    4.47    2.96   0 
  -4  -1  -8  220.43    4.32   0 
  -4   1 -17   14.96    3.06   0 
  -4   4  17   30.96    2.64   0 
  -4   5  18    6.51    2.33   0 
  -3  -1  -7    4.42    3.73   0 
  -3   1 -17   -0.76    3.24   0 
  -3   3  15   64.11    3.22   0 
  -2   2 -19    1.38    2.45   0 
  -2   2  12   66.73    2.80   0 
  -2   3  14  144.18    3.48   0 
  -1   0 -11    1.80    3.29   0 
  -1   1   8  400.85    4.26   0 
  -1   2 -18  134.95    3.44   0 
  -1   3 -20   39.47    2.98   0 
   0   0  -8  630.61    5.13   0 
   0   1 -14  544.01    4.17   0 
   0   2 -17   12.82    2.97   0 
   0   2   9    2.51    3.14   0 
   1   1 -11  260.09    3.92   0 
   1   3 -18   15.72    2.68   0 
   1   7  14   -0.08    2.98   0 
   2   4 -18   37.21    3.35   0 
   2   7  12    6.90    2.80   0 
   4   6 -16    6.28    3.26   0 
 -10   0  -5    0.89    5.15   0 
 -10   0   6   21.36    5.14   0 
  -9   0   8   29.61    4.21   0 
  -8   0   9    1.06    3.48   0 
  -8   2  15    0.39    3.02   0 
  -7  -1   4   54.91    5.30   0 
  -7   0 -12   49.28    3.32   0 
  -7   2  15    1.74    3.10   0 
  -7   3  17    9.74    2.97   0 
  -6  -1  -7    2.80    4.10   0 
  -6   1 -16    1.55    3.03   0 
  -6   2  15   15.86    3.08   0 
  -6   3  17    5.56    3.18   0 
  -5  -1  -8   40.71    3.69   0 
  -5   0 -13    0.16    3.56   0 
  -5   2  15   -1.22    3.07   0 
  -4   1  12  140.64    3.73   0 
  -4   2 -19    5.86    2.91   0 
  -4   3  16   37.74    2.57   0 
  -3   0 -13   -2.45    3.23   0 
  -3   1  11    4.56    2.69   0 
  -3   2 -19    9.15    2.52   0 
  -3   5  18    4.99    3.01   0 
  -2   1 -16  175.60    3.71   0 
  -2   1  10  403.75    4.26   0 
  -2   4  16    0.84    2.89   0 
  -2   5  17    8.45    2.84   0 
  -1   0   4 2990.33   12.57   0 
  -1   1 -15    3.71    2.93   0 
  -1   2  11    9.06    3.07   0 
   0   0  -7    1.52    3.02   0 
   0   7  16    5.88    2.77   0 
   1   2 -15   11.50    2.58   0 
   1   2   7    8.02    3.19   0 
   1   4 -19   29.49    3.10   0 
   2   2 -12   81.52    3.54   0 
   2   3   7   20.56    3.66   0 
   2   4   9    5.20    3.05   0 
   2   5 -19    7.84    3.02   0 
   3   3 -12    3.33    3.46   0 
   3   4 -15    6.68    3.34   0 
   3   5   8    5.67    3.59   0 
   3   6 -18   10.09    3.18   0 
   3   7  10    1.48    3.44   0 
   4   7   7    0.90    3.97   0 
   5   6 -10    3.16    4.18   0 
   5   7 -12    1.31    3.67   0 
 -10   1  11   -0.86    3.59   0 
  -9   0  -8   91.13    4.45   0 
  -8   0 -10  133.92    4.13   0 
  -7  -1  -5   63.64    4.60   0 
  -7   0  10    5.47    3.77   0 
  -7   1  13    1.60    3.08   0 
  -6  -1   5   97.01    5.18   0 
  -6   1  13    4.16    3.00   0 
  -5  -1  -7    1.43    3.84   0 
  -5   1  13    4.92    3.21   0 
  -5   3  17   14.28    3.11   0 
  -4  -1  -7   37.47    3.64   0 
  -4   0 -13    2.05    3.03   0 
  -4   0   9   -0.88    3.48   0 
  -4   1 -16   18.61    3.05   0 
  -4   4  18    3.69    2.91   0 
  -4   5  19    6.49    2.83   0 
  -3  -1  -6   26.59    3.27   0 
  -3   0   8 2291.56    8.65   0 
  -3   1 -16  135.18    3.50   0 
  -3   2  14  100.44    3.31   0 
  -3   4  17    7.67    2.44   0 
  -2   2 -18   97.86    3.31   0 
  -2   3 -20   10.34    2.91   0 
  -1   2 -17    8.93    2.87   0 
   0   1 -13    2.66    2.47   0 
   0   2 -16  139.56    3.56   0 
   1   1 -10  189.29    3.70   0 
   1   1   3   14.12    3.62   0 
   1   3 -17   45.63    3.15   0 
   2   5  11    2.00    3.34   0 
   2   6  12    1.45    2.86   0 
  -8  -1   3    5.19    7.95   0 
  -8   1  13    3.11    3.08   0 
  -7   0 -11    1.22    3.62   0 
  -7   2  16   30.07    3.15   0 
  -6  -1  -6  382.95    5.77   0 
  -6   0 -12  114.86    3.67   0 
  -6   1 -15    5.54    3.35   0 
  -6   2  16   21.00    2.98   0 
  -5  -1   5   -0.01    4.20   0 
  -5   0  10    8.61    3.17   0 
  -4  -1   4    2.11    3.89   0 
  -4   2 -18   51.83    3.03   0 
  -4   2  15   65.70    3.42   0 
  -3  -1  -5    0.12    3.53   0 
  -3   0 -12  435.70    4.66   0 
  -3   2 -18    9.83    3.03   0 
  -3   3  16    4.17    2.85   0 
  -2   0 -11    0.06    3.33   0 
  -2   1 -15    0.44    3.18   0 
  -2   2  13    0.32    2.35   0 
  -2   3  15    5.95    2.90   0 
  -1   1 -14   32.30    2.99   0 
  -1   1   9   20.56    2.94   0 
  -1   3 -19    4.33    2.29   0 
   0   3 -18   26.78    2.58   0 
   0   5  15    3.44    2.85   0 
   0   6  16    0.73    2.85   0 
   1   2 -14  333.13    3.50   0 
   2   2 -11   74.41    3.63   0 
   2   5 -18   16.81    3.12   0 
   2   7  13   -3.28    2.62   0 
   3   3 -11    9.75    3.22   0 
   3   4 -14   72.38    3.47   0 
   3   8  11   -0.57    2.92   0 
   4   6 -14    4.54    3.59   0 
   4   8   8    3.51    3.45   0 
   5   7   3   39.84    5.76   0 
 -10   0   7    1.22    4.41   0 
  -9   0   9    1.71    4.09   0 
  -9   1  13    2.23    3.72   0 
  -8   2  16    9.35    3.08   0 
  -7  -1  -4   -1.36    4.54   0 
  -7  -1   5   18.11    4.69   0 
  -7   1 -14   38.26    3.68   0 
  -7   3  18    7.31    3.03   0 
  -6   1  14  222.50    3.92   0 
  -6   3  18   20.47    3.01   0 
  -5  -1  -6    3.52    3.73   0 
  -5   0 -12  141.91    3.58   0 
  -5   1 -15    3.83    3.48   0 
  -5   2  16  181.27    3.70   0 
  -5   4  19   -0.25    2.30   0 
  -4   0 -12   66.38    3.42   0 
  -4   1  13   29.55    3.34   0 
  -3   1 -15    4.57    3.10   0 
  -3   1  12   74.31    2.88   0 
  -3   4  18   30.21    3.01   0 
  -3   5  19   10.85    2.84   0 
  -2   0   7    0.28    3.00   0 
  -2   1  11   24.93    3.11   0 
  -2   2 -17    1.10    3.09   0 
  -2   3 -19   25.58    3.03   0 
  -1   0  -9   -0.29    3.40   0 
  -1   2  12  338.14    4.24   0 
  -1   3  14   -0.72    2.37   0 
  -1   4 -20   25.25    2.89   0 
  -1   5  17   33.38    3.13   0 
   0   0  -5    0.46    3.42   0 
   0   1 -12  432.41    3.96   0 
   0   1   7  207.17    3.79   0 
   0   2 -15   29.14    3.23   0 
   0   4 -19   15.52    3.03   0 
   1   1  -9   22.26    3.21   0 
   1   3 -16   23.29    3.24   0 
   1   4 -18   37.14    2.77   0 
   1   5 -19   18.09    3.07   0 
   2   3 -14  223.50    3.90   0 
   2   4 -16    1.45    3.19   0 
   4   5 -12   34.52    3.40   0 
   4   5   5   11.50    4.19   0 
   4   7 -15    6.01    3.23   0 
   5   6  -8   10.13    4.20   0 
   5   8   4   -0.17    4.62   0 
  -8   0  -9    4.13    3.56   0 
  -7   0  11    1.65    4.24   0 
  -6  -1  -5    2.21    4.43   0 
  -6  -1   6   17.82    4.63   0 
  -6   0 -11    2.30    3.69   0 
  -6   0  11   -0.19    3.15   0 
  -5   2 -17    3.90    3.00   0 
  -4   1 -15    9.14    3.15   0 
  -4   4  19   16.95    3.04   0 
  -3   0 -11   -1.54    3.25   0 
  -3   0   9    1.64    3.36   0 
  -3   2 -17   28.02    3.19   0 
  -3   2  15   -0.48    2.96   0 
  -3   3 -19    3.44    2.97   0 
  -2   0 -10    4.80    3.35   0 
  -2   1 -14  196.45    3.77   0 
  -1   0   5    1.39    3.40   0 
  -1   1 -13   24.14    3.10   0 
  -1   2 -16  148.43    3.68   0 
  -1   3 -18   67.87    3.20   0 
   0   0  -4   42.55    3.95   0 
   0   3 -17   48.42    3.08   0 
   1   2 -13    0.96    2.52   0 
   1   5  14   -1.73    3.03   0 
   2   5 -17   10.85    3.15   0 
   3   4 -13  113.07    3.42   0 
   4   7   8    6.00    3.57   0 
 -10   0   8   34.42    4.81   0 
  -9   0  10   -0.52    4.12   0 
  -8   0  11    1.66    3.64   0 
  -8   2  17    7.28    3.55   0 
  -7  -1  -3    0.47    4.85   0 
  -7   0 -10   39.25    3.31   0 
  -7   2  17    4.44    3.12   0 
  -6   1 -14   20.55    3.05   0 
  -6   2  17    4.80    3.06   0 
  -5  -1   6  518.83    6.38   0 
  -5   0 -11    3.48    3.02   0 
  -5   0  11   -0.63    3.38   0 
  -4  -1  -5    0.28    3.69   0 
  -4  -1   5    4.01    3.93   0 
  -4   0 -11    0.37    3.39   0 
  -4   2 -17    4.37    3.05   0 
  -4   2  16   20.13    2.67   0 
  -4   3  18   34.06    3.23   0 
  -3   1  13    5.73    3.11   0 
  -3   3  17   27.62    2.62   0 
  -2   3 -18   41.49    3.04   0 
  -1   0  -8 2261.70    8.30   0 
  -1   1  10  182.61    3.58   0 
  -1   4 -19   44.01    3.13   0 
   0   0  -3    2.46    4.01   0 
   0   2  11   86.29    3.63   0 
   0   6  17    8.85    2.74   0 
   1   1  -8  480.58    4.74   0 
   1   3 -15   58.33    3.48   0 
   1   4 -17    5.69    3.15   0 
   1   4  13    4.39    3.11   0 
   2   3 -13    1.75    3.41   0 
   2   6 -18    5.33    3.13   0 
   2   7  14    2.03    2.81   0 
   4   7 -14   -0.90    3.15   0 
   4   8   9   24.92    3.81   0 
   5   6  -6    5.79    4.99   0 
   5   8 -10   -0.31    3.82   0 
 -10   0  -3   -0.52    5.04   0 
  -9   1  14   15.22    3.29   0 
  -8   1 -12    1.50    3.03   0 
  -7  -1   6  269.63    5.95   0 
  -7   1 -13    5.73    3.08   0 
  -7   1  15    6.73    3.32   0 
  -6   1  15    5.35    3.24   0 
  -6   3  19    4.05    2.52   0 
  -5  -1  -5   14.74    3.50   0 
  -5   1 -14  244.31    4.01   0 
  -5   2  17   -0.99    3.19   0 
  -5   3  19   11.59    3.11   0 
  -4   0  11    1.66    3.34   0 
  -4   1 -14  100.80    3.62   0 
  -4   1  14  124.83    3.60   0 
  -3  -1   3   60.61    5.11   0 
  -3   1 -14   85.64    2.90   0 
  -3   3 -18   47.99    3.20   0 
  -3   4  19    8.07    2.99   0 
  -2   0   8  153.47    3.74   0 
  -2   1  12  567.81    4.79   0 
  -2   4  18   16.84    3.15   0 
  -1   1 -12    7.58    3.20   0 
  -1   2 -15  225.67    3.82   0 
  -1   2  13    2.61    2.46   0 
  -1   3 -17    4.80    3.02   0 
  -1   5  18    2.16    2.89   0 
   0   1   8  802.15    5.50   0 
   0   2 -14   32.26    2.64   0 
   0   3 -16  127.06    3.67   0 
   0   4 -18   20.94    2.58   0 
   2   2   5   10.65    3.17   0 
   3   6  11    0.18    2.98   0 
   3   7  12    4.52    3.34   0 
   4   4  -7    1.56    3.66   0 
   5   6   2   61.34    8.85   0 
   5   7   4    3.95    5.12   0 
   5   8   5    7.84    4.87   0 
 -10   0   9    1.06    4.47   0 
  -8  -1   5    3.89    5.99   0 
  -8   1  15    8.51    3.15   0 
  -7   0  -9    0.06    3.66   0 
  -7   0  12    4.58    3.32   0 
  -7   2  18   22.61    3.10   0 
  -6  -1  -4  296.79    5.66   0 
  -6  -1   7   13.81    4.13   0 
  -6   0 -10   26.08    3.31   0 
  -5   0  12  824.79    5.98   0 
  -5   2 -16    3.16    2.76   0 
  -4  -1  -4  347.35    5.79   0 
  -4   2 -16  138.59    3.69   0 
  -4   2  17    4.88    3.02   0 
  -4   3 -18    9.52    2.99   0 
  -4   4  20   -0.63    2.30   0 
  -3   0 -10  901.41    5.68   0 
  -3   0  10  346.27    4.32   0 
  -3   2 -16   74.51    3.36   0 
  -3   2  16  113.95    3.75   0 
  -3   3  18    2.32    2.96   0 
  -2   0  -9    4.22    3.39   0 
  -2   1 -13   18.95    2.67   0 
  -2   3  17    8.34    2.98   0 
  -2   4 -19    3.77    2.28   0 
  -1   0  -7    1.19    3.16   0 
  -1   4  17    5.27    2.46   0 
   0   5  17    5.04    3.08   0 
   0   6  18    4.58    2.83   0 
   1   1  -7    2.61    3.22   0 
   1   2   9   49.54    3.41   0 
   1   3 -14    1.09    3.22   0 
   1   6  16    8.48    2.87   0 
   2   3   9   -0.79    3.21   0 
   2   6  14    0.18    2.86   0 
   3   5  10    1.36    3.32   0 
   4   4   3  395.25    7.67   0 
   4   5 -10    3.86    3.95   0 
   4   6 -12    1.39    3.22   0 
   4   6   8    2.84    3.99   0 
   4   7   9   -1.65    3.46   0 
   5   6  -5  135.19    6.24   0 
  -9   0  11    1.68    3.62   0 
  -9   1  15    5.72    3.74   0 
  -8   1 -11    6.88    3.60   0 
  -7  -1  -2   18.80    5.56   0 
  -7  -1   7    3.36    4.30   0 
  -7   1 -12   37.03    3.73   0 
  -7   1  16   29.63    3.38   0 
  -6   1 -13   21.00    3.31   0 
  -6   1  16   86.49    3.39   0 
  -6   2  18   -0.74    2.47   0 
  -5  -1  -4   12.36    4.12   0 
  -5  -1   7   12.36    3.66   0 
  -5   0 -10  177.78    3.83   0 
  -5   1 -13    3.13    3.68   0 
  -5   2  18   51.88    3.64   0 
  -4  -1   6   74.50    4.18   0 
  -4   0 -10  134.29    3.81   0 
  -4   3  19   -0.90    2.38   0 
  -3   1  14    2.57    3.05   0 
  -2   0   9   -0.37    3.21   0 
  -2   3 -17   36.74    3.26   0 
  -1   1  11  236.15    3.72   0 
  -1   3  16   15.67    3.11   0 
  -1   4 -18   47.78    2.66   0 
  -1   5 -19    4.84    3.01   0 
   0   2  12   12.32    3.15   0 
   0   4 -17   86.02    3.49   0 
   0   4  16    2.69    2.87   0 
   1   1   5   71.53    3.75   0 
   1   2 -11   14.24    3.60   0 
   1   6 -18   10.31    3.15   0 
   4   8  10    1.24    3.34   0 
   5   6  -4    0.04    5.70   0 
 -10   0  -2    4.97    5.11   0 
  -9   0  -5    3.46    4.42   0 
  -8  -1   6  174.28    6.48   0 
  -8   0  -7    0.95    4.08   0 
  -8   1  16    9.28    3.30   0 
  -7   0  13    1.52    3.19   0 
  -6  -1   8    4.67    4.20   0 
  -6   0  13    0.49    3.11   0 
  -5   1  16   42.94    3.42   0 
  -5   2 -15   23.91    3.16   0 
  -5   3 -17    1.97    3.10   0 
  -5   3  20    5.55    2.95   0 
  -4   3 -17   37.57    3.22   0 
  -3  -1   4 1257.25    9.31   0 
  -3   0  -9    0.14    3.59   0 
  -3   0  11    0.55    3.44   0 
  -3   2  17    0.71    3.01   0 
  -3   3 -17    2.12    3.12   0 
  -3   4  20   12.35    2.40   0 
  -2   0  -8    1.63    3.60   0 
  -2   1 -12  121.48    3.67   0 
  -2   1  13   -2.12    3.10   0 
  -2   4 -18    8.88    3.08   0 
  -1   1 -11    5.67    3.23   0 
  -1   2 -14  188.08    3.17   0 
  -1   3 -16   26.02    3.04   0 
  -1   4  18   19.06    3.20   0 
   0   1  -9    3.91    3.14   0 
   0   1   9    3.91    2.99   0 
   0   3 -15   -0.39    2.69   0 
   0   5 -18   24.73    2.63   0 
   1   1  -6 1127.94    7.02   0 
   1   5  16   -1.73    2.72   0 
   1   6  17    8.99    2.86   0 
   2   3 -11    0.51    3.49   0 
   2   6 -16    5.17    3.21   0 
   3   6 -14   11.64    3.27   0 
   4   4  -5    2.52    4.33   0 
   5   6  -3   45.35    6.61   0 
   5   6  -1   35.81    8.97   0 
   5   7  -7    2.08    4.25   0 
   5   7   5   27.59    5.45   0 
   5   8  -8    2.35    4.26   0 
   5   8   6    0.65    4.78   0 
  -9   0  12    7.65    3.58   0 
  -9   1  -9    4.33    3.67   0 
  -8   0  13   -0.38    3.59   0 
  -7  -1   8  254.94    5.43   0 
  -7   2 -14   14.44    3.16   0 
  -7   2  19    3.41    2.94   0 
  -6  -1  -3   11.87    4.75   0 
  -6   2  19   10.39    3.14   0 
  -5  -1   8  473.68    5.32   0 
  -5   0  -9    0.57    3.80   0 
  -5   0  13    0.21    3.30   0 
  -4  -1  -3  108.43    4.80   0 
  -4   0  -9    1.72    3.79   0 
  -4   2 -15   -0.48    3.07   0 
  -4   3  20   30.91    3.27   0 
  -3   3  19    7.00    2.57   0 
  -3   4 -18    2.90    2.87   0 
  -2   2  16    1.67    2.44   0 
  -1   0  -6   26.79    2.91   0 
  -1   0   7   -0.46    3.05   0 
  -1   4 -17   34.32    3.17   0 
   0   2 -12   15.92    3.22   0 
   0   3  15    1.63    3.10   0 
   0   4 -16    8.21    3.15   0 
   3   3  -7    3.18    3.44   0 
   4   5   7   19.62    3.81   0 
   4   6   9   49.30    3.79   0 
   4   7  10    0.81    3.42   0 
   5   6  -2    5.94    6.84   0 
   5   6   3   55.53    7.31   0 
  -8  -1   7    3.40    4.63   0 
  -8   1 -10    6.26    3.78   0 
  -8   1  17   -0.91    3.67   0 
  -7  -1  -1   14.73    6.45   0 
  -7   0  14    6.82    3.91   0 
  -7   1 -11    0.93    3.18   0 
  -7   1  17   -1.66    3.23   0 
  -6   1  17    0.31    3.01   0 
  -5  -1  -3    4.97    4.63   0 
  -5   1 -12  141.66    3.65   0 
  -5   2  19    0.77    3.06   0 
  -4  -1   7  147.07    4.08   0 
  -4   0  13    2.05    3.46   0 
  -4   1 -12  495.55    4.65   0 
  -3  -1   5    4.68    3.75   0 
  -3   1 -12  175.90    3.33   0 
  -3   1  15   67.50    2.93   0 
  -2   0  10  530.78    4.79   0 
  -2   1  14  662.71    4.98   0 
  -2   2 -14   -2.21    2.50   0 
  -2   4  20    5.50    2.89   0 
  -1   1 -10    3.96    3.05   0 
  -1   1  12  103.32    2.96   0 
  -1   2  15    7.42    3.10   0 
  -1   3 -15   26.63    3.13   0 
  -1   5 -18   10.09    2.45   0 
   0   5 -17   13.53    3.13   0 
   0   6 -18    4.34    3.01   0 
   1   1   6  949.72    6.54   0 
   1   5 -16   13.66    2.70   0 
   2   2   7  101.41    4.14   0 
   3   6  13   10.81    3.67   0 
   3   7 -14    7.55    3.22   0 
   3   7  14    3.91    3.48   0 
   4   4  -4  191.12    5.95   0 
   4   4   4   10.00    4.87   0 
   4   5  -8   39.15    4.11   0 
   4   8 -12    2.26    3.29   0 
   5   7  -6    2.65    4.68   0 
 -10   0  -1    0.67    5.68   0 
 -10   0  11    0.54    4.01   0 
  -9   0  13   -0.81    3.64   0 
  -8   0  -6   18.17    4.24   0 
  -7  -1   9    1.29    4.17   0 
  -7   2 -13    5.50    3.07   0 
  -6  -1   9    3.31    3.83   0 
  -6   0  -8   65.74    4.09   0 
  -6   2  20    1.40    3.11   0 
  -5  -1   9    5.04    3.74   0 
  -5   0  14   88.00    3.57   0 
  -5   1  17    1.64    2.55   0 
  -5   3 -16   59.02    2.70   0 
  -4   2 -14  174.95    3.81   0 
  -4   2  19    0.83    3.10   0 
  -4   3 -16   39.93    3.22   0 
  -3   0  -8 1339.84    6.78   0 
  -3   0  12  337.67    4.34   0 
  -3   2  18   91.32    3.39   0 
  -3   3 -16   57.52    2.87   0 
  -3   3  20    7.73    2.99   0 
  -2   0  -7    0.91    3.39   0 
  -2   1 -11   37.53    3.00   0 
  -2   3  19    6.14    3.03   0 
  -2   4 -17    4.81    2.47   0 
  -1   0  -5    1.12    3.46   0 
  -1   0   8  207.95    3.85   0 
   0   1  10  962.88    5.37   0 
   1   2  11   37.24    3.53   0 
   1   3 -12  104.95    3.83   0 
   1   5  17   10.42    2.96   0 
   2   3  11   30.10    3.50   0 
   2   6  16    3.58    2.94   0 
   3   3  -6  868.39    7.05   0 
   3   4  10  187.43    4.41   0 
   3   5  12    5.49    3.53   0 
   4   5   8   97.35    4.61   0 
   4   7  11    9.43    3.80   0 
   5   7   6    3.59    4.84   0 
   5   8   7    1.74    4.91   0 
  -8  -1   8   20.99    4.61   0 
  -7   0  -7   -0.13    3.72   0 
  -7   0  15    0.99    3.85   0 
  -6  -1  -2  627.42    8.67   0 
  -6   0  15    1.21    3.77   0 
  -6   1 -11   16.77    3.24   0 
  -6   1  18   65.99    3.39   0 
  -6   3 -15   10.20    3.06   0 
  -5   0  -8  244.60    4.49   0 
  -5   2  20   37.00    3.39   0 
  -4  -1   8    7.10    3.33   0 
  -4   0  -8    8.76    3.38   0 
  -4   1  17    0.95    3.28   0 
  -3  -1   6 2206.60    9.77   0 
  -3   1 -11    3.56    3.41   0 
  -3   1  16    6.10    3.19   0 
  -3   4 -17   13.92    2.62   0 
  -2   0  11   -0.89    3.27   0 
  -2   2 -13   21.34    3.16   0 
  -1   1  13    6.76    3.09   0 
  -1   5 -17   15.32    3.03   0 
   0   4 -15   26.11    3.23   0 
   1   1   7  475.73    4.86   0 
   1   2  -9    7.06    3.10   0 
   1   6 -16   17.78    3.11   0 
   3   3   7  133.07    4.24   0 
   3   5 -11  102.97    3.71   0 
   4   4  -3    8.97    5.17   0 
   4   4   5   11.61    4.91   0 
   4   6  10    3.62    3.65   0 
   5   6   4   25.68    6.33   0 
   5   7  -5    6.74    4.71   0 
  -9   0  14    6.19    3.59   0 
  -8   0  15    0.45    3.63   0 
  -8   1  -9   10.55    3.71   0 
  -6  -1  10   39.93    3.36   0 
  -6   2 -13    1.99    3.09   0 
  -5  -1  10  662.51    5.84   0 
  -5   0  15   -3.25    3.27   0 
  -5   1 -11    4.91    3.07   0 
  -5   1  18    5.55    3.18   0 
  -5   3 -15    5.08    3.03   0 
  -4   0  14   58.41    3.37   0 
  -4   1 -11    1.41    3.51   0 
  -3   0  13    0.17    3.23   0 
  -3   2  19   -0.34    3.12   0 
  -2   1  15    9.66    2.53   0 
  -2   4 -16   45.92    3.26   0 
  -1   0   9    2.13    2.99   0 
  -1   1  -9    4.15    3.19   0 
  -1   2 -12  683.88    4.53   0 
  -1   3 -14   20.21    3.29   0 
  -1   4  20    9.46    2.98   0 
   0   1  11   64.83    3.35   0 
   0   5 -16   29.28    2.82   0 
   1   2  12  536.80    5.03   0 
   2   4  14    1.47    3.18   0 
   2   6 -14    9.88    3.16   0 
   2   7 -15    1.78    3.19   0 
   3   6 -12    0.17    3.25   0 
   4   5  -7  188.65    4.69   0 
   4   6  -9    3.80    3.93   0 
   4   7 -10    2.78    3.71   0 
   5   8  -6    4.14    4.07   0 
  -8  -1   9   11.08    4.17   0 
  -8   0  -5   -0.58    3.98   0 
  -8   2 -11    8.74    3.62   0 
  -7  -1   0   42.89    6.85   0 
  -7   1  19    4.96    3.10   0 
  -7   2 -12    4.61    3.12   0 
  -6   0  -7    0.87    3.88   0 
  -6   1  19    0.07    2.97   0 
  -5  -1  -2   22.61    5.09   0 
  -5   2 -13    9.50    3.16   0 
  -5   4 -16    6.50    2.99   0 
  -4  -1   9   11.17    3.21   0 
  -4   1  18  187.68    3.93   0 
  -4   2 -13    9.58    3.17   0 
  -4   2  20    2.70    2.48   0 
  -4   4 -16   37.03    3.15   0 
  -3  -1   7    6.79    3.29   0 
  -3   0  -7   -1.32    3.32   0 
  -3   1  17    5.06    3.09   0 
  -3   2 -13   12.34    2.68   0 
  -3   3  21    7.38    2.28   0 
  -3   5 -17    6.02    2.92   0 
  -2   0  -6  263.81    4.39   0 
  -2   0  12  239.83    4.12   0 
  -2   2  18    8.51    2.50   0 
  -2   3  20   13.38    2.51   0 
  -2   5 -17   67.40    2.73   0 
  -1   1  14   10.92    3.03   0 
  -1   3  19   15.20    3.04   0 
   0   0   4   39.66    3.31   0 
   0   1  -7  241.08    4.00   0 
   1   1  -4   41.84    4.04   0 
   1   1   8  211.23    4.07   0 
   1   3 -11  153.53    3.86   0 
   1   7 -16    2.85    3.07   0 
   3   3  -5    7.22    3.98   0 
   3   3   8    5.38    3.61   0 
   3   4  11    2.75    3.38   0 
   4   5   9   25.36    4.05   0 
   4   7  12    5.79    3.50   0 
   4   8 -10    1.15    3.57   0 
   5   7   7  119.89    5.72   0 
 -10   0   0    4.40    5.75   0 
 -10   1  -5    1.08    3.94   0 
  -9   0  -3   -0.64    4.23   0 
  -9   0  15    2.10    3.70   0 
  -9   1  -7    1.22    3.43   0 
  -8  -1  10    1.57    4.03   0 
  -7  -1  11    6.69    3.89   0 
  -7   0  -6  220.55    4.50   0 
  -6  -1  11   31.36    3.60   0 
  -6   3 -14    8.16    3.04   0 
  -5  -1  11    4.12    3.89   0 
  -5   0  -7    0.82    3.78   0 
  -5   1  19    4.36    3.21   0 
  -4  -1  10  409.27    4.60   0 
  -4   0  -7   -2.65    3.64   0 
  -4   0  15   -1.92    3.28   0 
  -3  -1   8  202.30    3.98   0 
  -3   1 -10   44.62    3.51   0 
  -3   2  20   42.27    3.20   0 
  -2   1  16  189.26    3.69   0 
  -2   2 -12  120.49    3.41   0 
  -1   0  10  108.80    3.34   0 
  -1   5 -16    0.53    3.12   0 
   0   0   5    1.30    3.48   0 
   0   4 -14   76.02    2.83   0 
   0   5 -15    6.20    3.13   0 
   0   6 -16    4.98    3.11   0 
   1   2  -8  608.87    5.45   0 
   1   5 -14    4.35    3.37   0 
   1   6 -15    0.79    3.21   0 
   2   2  -5   -0.13    3.37   0 
   2   7 -14    3.65    3.09   0 
   3   6  15   12.22    3.45   0 
   4   4  -2  156.41    7.39   0 
   4   4   6    5.49    4.17   0 
   4   5  -6   -3.43    4.37   0 
   5   6   5    0.47    5.50   0 
  -9  -1   7    1.03    5.59   0 
  -7   1  -9    0.70    3.66   0 
  -7   3 -13    4.22    2.93   0 
  -6  -1  12   11.11    3.74   0 
  -6   1  20   19.01    3.18   0 
  -5   1 -10   25.26    3.32   0 
  -4   1 -10  546.74    4.93   0 
  -4   1  19    5.00    3.16   0 
  -4   2  21    1.40    3.02   0 
  -4   3 -14   95.92    3.43   0 
  -3   1  18    9.80    3.04   0 
  -2   0  13    1.44    3.08   0 
  -2   2  19    8.00    3.07   0 
  -2   3  21   10.89    2.98   0 
  -2   5 -16   29.50    3.00   0 
  -1   1  15    3.39    3.03   0 
  -1   2 -11   40.60    2.75   0 
  -1   3 -13  139.29    3.00   0 
   0   0   6 1060.20    6.73   0 
   0   3 -12  489.04    4.02   0 
   1   1   9    4.95    3.47   0 
   3   3   9  148.63    4.27   0 
   3   4  12  101.50    3.54   0 
   3   5  14    9.90    3.09   0 
   3   8 -12    5.02    3.57   0 
   4   5  10   50.69    4.16   0 
  -8  -1  11    6.12    3.71   0 
  -7   0  17    2.12    3.13   0 
  -7   2 -11   44.10    3.26   0 
  -6  -1  -1    1.85    5.54   0 
  -6   0  17    5.40    3.25   0 
  -5  -1  12  137.11    3.73   0 
  -5   0  17    0.38    3.17   0 
  -5   1  20   -0.63    2.99   0 
  -5   2 -12  172.47    3.78   0 
  -4  -1  11    2.98    3.27   0 
  -4   0  16   57.63    3.43   0 
  -4   4 -15   10.06    3.16   0 
  -3  -1   9   25.22    3.38   0 
  -3   0  15    2.17    3.19   0 
  -3   2 -12  220.06    3.39   0 
  -3   4 -15   96.70    3.46   0 
  -3   5 -16   26.31    3.09   0 
  -2   1  -9   -0.26    2.71   0 
  -2   1  17    3.99    2.96   0 
  -1   0  11   -3.51    2.98   0 
  -1   4 -14  160.76    3.73   0 
   0   0   7    0.99    3.12   0 
   0   1  13    3.96    3.03   0 
   0   4 -13   14.92    3.34   0 
   0   7 -16    1.56    2.50   0 
   1   3 -10  225.29    4.17   0 
   1   4 -12  177.56    3.43   0 
   2   2  10   46.30    3.56   0 
   3   3  -4  955.20    8.27   0 
   4   4   7  163.99    4.75   0 
   4   6  12    3.32    3.47   0 
   5   6   6   18.10    5.06   0 
   5   7  -3   22.79    5.21   0 
   5   7   8    1.62    4.54   0 
   5   8  -4    6.72    5.04   0 
  -9  -1   9    6.52    4.37   0 
  -8  -1  12   10.87    3.74   0 
  -8   0  -4   16.23    4.04   0 
  -7  -1  13    3.29    3.72   0 
  -6  -1  13    5.31    3.44   0 
  -6   0  -6  112.31    4.16   0 
  -6   1  -9   17.52    3.26   0 
  -6   3 -13   33.47    3.29   0 
  -3  -1  10  443.17    4.70   0 
  -3   1  19   -0.53    3.07   0 
  -3   2  21    3.72    2.53   0 
  -2  -1   3  305.34    6.53   0 
  -2  -1   4  275.54    5.09   0 
  -2  -1   5   38.92    3.57   0 
  -2  -1   6  419.85    5.11   0 
  -2   0  -5   -0.24    3.46   0 
  -2   6 -16    4.44    2.92   0 
  -1   1  16   15.17    3.06   0 
  -1   5 -15   41.00    2.67   0 
   0   1  -6  982.76    6.06   0 
   0   2  -9    3.39    3.07   0 
   0   3  19    1.88    2.80   0 
   1   1  10    8.12    3.24   0 
   1   3  17    4.10    3.00   0 
   2   2  -4  498.47    6.23   0 
   2   7 -13    3.03    3.09   0 
   3   5  15    9.23    3.45   0 
   4   5  -5  224.07    5.33   0 
  -9   0  -2  134.76    5.33   0 
  -8   1  -7    3.57    3.70   0 
  -7   0  -5    0.48    3.68   0 
  -7   3 -12   35.33    3.10   0 
  -6   0  18    0.24    3.13   0 
  -6   2 -11    5.08    3.21   0 
  -6   4 -14   27.16    3.08   0 
  -5  -1  13   11.14    3.09   0 
  -5   0  -6  637.17    5.74   0 
  -5   1  -9  134.61    3.80   0 
  -5   1  21    3.10    3.04   0 
  -5   3 -13    3.57    3.13   0 
  -4   0  -6   89.32    4.08   0 
  -4   0  17   -1.50    2.66   0 
  -4   1  -9   13.24    3.85   0 
  -4   1  20   66.43    2.94   0 
  -3   1  -9   12.05    3.54   0 
  -3   6 -16    1.30    2.98   0 
  -2  -1   7   -0.17    3.31   0 
  -2   1  18  112.22    3.38   0 
  -2   4 -14    3.54    2.94   0 
  -2   5 -15   67.86    3.28   0 
  -1   0  12  880.98    4.87   0 
  -1   2 -10  575.78    4.72   0 
  -1   3 -12    9.03    2.59   0 
  -1   3  21    4.42    2.90   0 
   0   0   8  568.48    4.53   0 
   0   2  17    6.38    2.43   0 
   0   3 -11   13.45    2.79   0 
   0   7 -15    8.92    3.06   0 
   1   1  11    2.57    3.45   0 
   1   2  -7  179.18    3.49   0 
   2   5 -11    5.35    3.41   0 
   4   4   8   33.82    4.12   0 
   4   6  13   12.76    3.50   0 
   5   6   7    2.79    4.51   0 
   5   7   9   21.66    4.63   0 
  -9  -1  11    2.49    4.28   0 
  -9   2  -8   15.22    3.75   0 
  -8  -1  13    1.40    3.87   0 
  -8   2  -9    8.02    3.71   0 
  -8   3 -11    9.49    2.99   0 
  -7   0  19   -1.10    3.48   0 
  -7   2 -10   27.69    3.37   0 
  -6  -1  14  223.51    4.21   0 
  -6   0  19    1.44    3.55   0 
  -5  -1  -1    1.69    4.85   0 
  -5   2 -11   15.68    3.36   0 
  -5   5 -15   22.03    2.98   0 
  -4   2 -11   14.93    3.27   0 
  -4   4 -14   36.03    3.35   0 
  -4   5 -15    6.36    3.15   0 
  -3  -1  11    2.16    3.39   0 
  -3   1  20    4.62    3.03   0 
  -3   2  22   11.68    2.86   0 
  -3   4 -14   65.61    3.29   0 
  -3   5 -15   11.28    3.06   0 
  -2  -1   8  291.95    4.31   0 
  -2   0  15    1.25    3.06   0 
  -2   2  21    2.63    2.89   0 
  -1   0  -3    0.19    4.13   0 
  -1   0  13    2.64    3.08   0 
  -1   1  17   13.76    3.02   0 
  -1   4 -13   -0.42    3.24   0 
  -1   5 -14    1.35    3.02   0 
  -1   6 -15   10.58    3.02   0 
   0   0   9    0.26    3.09   0 
   0   4 -12    6.16    3.23   0 
   0   6 -14    5.80    3.28   0 
   1   4 -11    4.94    2.84   0 
   1   6 -13    8.96    3.24   0 
   2   4  -9   20.02    3.56   0 
   2   4  17   -0.58    2.95   0 
   3   3  11   17.32    3.21   0 
   4   4  -1   56.03    7.79   0 
   4   4   9  181.29    4.74   0 
   4   8  -8    5.74    3.66   0 
   5   7  -2    9.52    6.15   0 
   5   9  -3    4.65    5.26   0 
 -10   0   1    1.58    5.75   0 
  -6  -1  15    4.56    3.61   0 
  -6   1  -8  426.82    5.17   0 
  -4   1  21    1.76    2.46   0 
  -3   0  17    0.31    3.14   0 
  -2  -1   2   63.84    5.86   0 
  -2   1  19    2.79    2.96   0 
  -2   2 -10   55.07    3.47   0 
   0   0  10   66.24    3.29   0 
   0   1  15    5.80    3.08   0 
   1   1  12    4.15    3.26   0 
   2   8 -12    1.15    3.68   0 
   3   3  -3  123.54    5.74   0 
   3   7 -10    2.81    3.24   0 
   4   5  12   23.31    3.32   0 
   4   6  14    5.22    3.48   0 
   5   6   8   11.51    4.22   0 
   5   7  10    0.58    4.01   0 
  -9  -1  13    1.99    3.84   0 
  -9   1  -5    1.40    3.52   0 
  -8   0  -3    1.30    3.89   0 
  -7   3 -11    8.48    3.26   0 
  -6   0  -5    2.97    3.17   0 
  -6   2 -10  103.54    3.57   0 
  -6   4 -13    3.41    2.95   0 
  -5  -1  15    1.38    3.17   0 
  -4  -1  14  122.09    3.58   0 
  -4   3 -12   87.39    3.44   0 
  -3  -1  13    8.81    3.19   0 
  -3   0  -5   -1.49    3.41   0 
  -3   1  -8   42.44    3.61   0 
  -3   3 -12   26.89    3.40   0 
  -3   6 -15   40.13    3.07   0 
  -2  -1  10  457.49    4.61   0 
  -2   0  16   42.03    2.66   0 
  -2   2  22    7.11    2.85   0 
  -1   0  14  548.54    4.44   0 
  -1   2  -9   66.04    3.25   0 
   0   0  11    4.15    2.94   0 
   0   1  -5  206.39    4.38   0 
   0   7 -14    6.43    2.89   0 
   2   1   5   12.13    3.81   0 
   3   2   3    0.23    4.12   0 
   3   3  12   24.14    3.21   0 
   3   8 -10   -0.95    3.30   0 
   4   4  10    1.59    3.76   0 
   4   5  -4    5.00    4.78   0 
   4   8  -7    3.18    3.98   0 
 -10   1  -3   -0.33    3.50   0 
  -9   0  -1   -0.83    4.86   0 
  -9   2  -7   18.42    3.75   0 
  -8  -1  15   10.57    3.68   0 
  -8   1  -6  174.78    4.31   0 
  -8   3 -10    8.19    3.10   0 
  -7   0  -4  121.42    4.16   0 
  -7   1  -7    4.32    3.28   0 
  -7   2  -9    2.49    3.09   0 
  -6  -1  16   78.95    3.56   0 
  -5   0  -5    2.46    3.50   0 
  -5   0  20   72.91    3.40   0 
  -5   1  -8   41.25    3.48   0 
  -5   2 -10  309.26    4.13   0 
  -5   4 -13   12.61    3.15   0 
  -4  -1  15    5.89    3.19   0 
  -4   0  -5    0.78    3.61   0 
  -4   1  -8  219.02    3.99   0 
  -4   1  22   18.57    2.53   0 
  -4   4 -13   11.68    3.08   0 
  -4   5 -14   52.64    3.13   0 
  -3   0  18  130.35    2.96   0 
  -3   2 -10  321.81    4.16   0 
  -3   4 -13   30.39    3.06   0 
  -3   5 -14    8.33    2.98   0 
  -2  -1  11   21.93    3.40   0 
  -2   0  17   -0.70    3.04   0 
  -2   1  20   42.30    3.19   0 
  -2   7 -15   35.41    2.52   0 
  -1   2  21   -0.30    2.77   0 
  -1   4 -12   82.83    3.25   0 
  -1   6 -14   30.80    2.72   0 
   0   2  19    4.98    2.43   0 
   1   1  13   19.15    3.13   0 
   1   2  17    7.44    2.85   0 
   1   3  19    1.39    2.40   0 
   1   4 -10  215.71    3.98   0 
   1   8 -13    0.92    2.98   0 
   3   2   7   29.86    3.78   0 
   3   5  17    1.79    2.90   0 
   4   6  15    5.21    3.41   0 
   5   6   9    9.20    3.55   0 
   5   8  -2    1.13    5.39   0 
   5   9  -2    1.39    5.18   0 
  -8  -1  16   14.16    3.68   0 
  -8   2  -8  117.56    3.66   0 
  -7  -1   1    1.48    6.77   0 
  -6  -1   0  304.33    8.19   0 
  -6   3 -11   42.41    3.13   0 
  -6   5 -13   24.48    3.04   0 
  -4   0  20   15.07    3.12   0 
  -4   2 -10   12.47    2.68   0 
  -3  -1  14    2.53    3.12   0 
  -3   0  19    0.08    2.98   0 
  -3   1  22   20.85    2.98   0 
  -2  -1  12  559.92    4.76   0 
  -2   1  -7  191.86    4.14   0 
  -2   3 -11   37.52    3.09   0 
  -2   6 -14    8.62    2.81   0 
  -1   0  15    1.02    2.32   0 
  -1   1  19    4.18    2.87   0 
  -1   7 -14   -0.84    2.94   0 
   0   0  12    9.00    2.91   0 
   0   1  17   10.59    3.12   0 
   0   4 -11  347.40    4.28   0 
   0   5 -12  256.90    4.04   0 
   1   1  14   28.79    3.24   0 
   1   3  -8   20.56    3.44   0 
   2   2  -3  142.39    5.20   0 
   2   2  14   -1.73    3.09   0 
   2   3  -6  159.39    3.91   0 
   2   4  19   -1.07    2.68   0 
   3   9  -9    6.47    4.23   0 
   4   6  -5   -1.20    4.50   0 
   5   5   4    0.99    6.48   0 
   5   5   5  175.03    6.74   0 
   5   6  10    9.89    4.07   0 
   5   7  -1   27.80    6.48   0 
  -9  -1  15    0.58    3.46   0 
  -9   1  -4   17.79    4.24   0 
  -7  -1  17    1.72    2.92   0 
  -7   3 -10   18.54    3.09   0 
  -6   1  -7    3.27    3.31   0 
  -6   2  -9   51.91    3.32   0 
  -6   4 -12   34.59    3.13   0 
  -5  -1  17    4.31    3.18   0 
  -5   0  21    2.70    2.93   0 
  -5   3 -11   24.31    3.26   0 
  -4  -1  16  119.83    3.53   0 
  -4   6 -14    4.15    2.92   0 
  -3   6 -14   19.92    2.95   0 
  -2   1  21    9.70    2.88   0 
  -2   2  -9  219.24    3.92   0 
  -2   5 -13   32.67    3.06   0 
  -2   7 -14    7.35    2.89   0 
  -1   0  16  167.82    3.38   0 
   0   0  13    1.63    2.93   0 
   0   7 -13    4.26    3.10   0 
   0   8 -13   34.40    3.59   0 
   1   7 -12   -0.79    2.88   0 
   2   1   9   -2.05    3.30   0 
   2   2  15   12.93    3.12   0 
   2   5  -9    5.37    3.47   0 
   2   6 -10    4.79    3.18   0 
   3   2   9    9.91    3.34   0 
   4   9  -6    6.48    3.94   0 
   5   5   6    0.66    4.33   0 
   5   5   7  164.92    5.51   0 
 -10  -1   9    3.18    5.30   0 
 -10  -1  10   14.83    4.99   0 
 -10  -1  11    2.91    4.52   0 
 -10   0   2    1.09    6.13   0 
  -8  -1  17    4.34    3.17   0 
  -8   0  -2   16.51    4.47   0 
  -8   1  -5   11.95    4.27   0 
  -8   3  -9   10.15    3.21   0 
  -7  -1  18   -0.14    3.66   0 
  -7   1  -6   12.51    3.90   0 
  -7   4 -11   42.94    3.07   0 
  -6  -1  18   71.21    3.41   0 
  -6   0  -4   32.21    3.88   0 
  -5   1  -7    1.93    3.81   0 
  -5   4 -12   58.02    3.49   0 
  -5   5 -13   16.10    2.53   0 
  -4  -1  17    2.92    3.22   0 
  -4   0  21   -0.54    2.98   0 
  -4   3 -11   18.00    2.69   0 
  -3   0  20   55.38    3.32   0 
  -3   1  -7    3.40    3.37   0 
  -3   4 -12  142.50    3.65   0 
  -3   5 -13   59.46    3.19   0 
  -2  -1  13   -1.06    2.56   0 
  -1  -1   6 1079.67    6.75   0 
  -1  -1   7    0.73    3.18   0 
  -1  -1   8  447.83    4.49   0 
  -1  -1   9   17.76    3.19   0 
  -1   1  20    7.24    2.80   0 
  -1   2  -8  827.67    5.37   0 
  -1   6 -13   63.46    3.37   0 
   0   0  14    5.14    2.93   0 
   0   3  -9   15.07    2.74   0 
   1   1  -2 3300.29   17.52   0 
   1   1  15    2.32    2.96   0 
   1   4  -9  255.71    4.18   0 
   2   1   2  884.72   10.06   0 
   4   3   4  407.95    7.14   0 
   4   3   5    2.28    4.24   0 
   4   3   7   19.69    3.73   0 
   4   8  -6   -1.34    3.73   0 
   5   5   8    3.14    4.44   0 
 -10  -1   8   12.68    7.09   0 
  -8   2  -7    3.62    3.66   0 
  -7   0  -3   -1.36    4.30   0 
  -7   2  -8  148.79    3.77   0 
  -6   3 -10  121.34    3.57   0 
  -5  -1  18    3.54    2.57   0 
  -5   2  -9    2.78    3.21   0 
  -4   1  -7   41.24    3.57   0 
  -4   2  -9    2.41    3.37   0 
  -3  -1  16    3.96    2.54   0 
  -3   0  -4 2364.32   10.01   0 
  -3   2  -9   18.13    2.83   0 
  -2  -1  14  698.53    5.01   0 
  -2   1  22   13.20    2.41   0 
  -1  -1   5   57.70    3.72   0 
  -1  -1  10  209.05    3.71   0 
  -1   0  17   -0.54    2.27   0 
  -1   7 -13   31.61    3.13   0 
   0   5 -11    6.74    3.28   0 
   0   6 -12    8.30    2.67   0 
   1   0   5    0.79    3.37   0 
   1   0   6   25.04    2.82   0 
   1   0   7   -1.46    2.48   0 
   1   0   9   -0.75    3.23   0 
   1   1  16   44.68    3.35   0 
   1   3  21    2.55    2.24   0 
   2   1  11   27.23    3.52   0 
   2   2  16   28.10    3.26   0 
   2   9 -10    3.86    3.10   0 
   3   7  -8    5.50    3.92   0 
   4   3   3   21.07    5.80   0 
   4   3   9  178.67    4.84   0 
   4   4  13    8.10    3.10   0 
   4   5  -3  116.38    5.64   0 
   5   5   9   78.01    4.88   0 
   5   6  12    1.35    3.98   0 
  -9   0   0   58.74    5.62   0 
  -7  -1  19    1.82    3.08   0 
  -6  -2   9    6.45    3.92   0 
  -6  -2  10  230.86    4.88   0 
  -6  -2  11   -0.18    3.79   0 
  -6  -1  19    1.37    3.21   0 
  -6   4 -11   10.49    3.05   0 
  -6   5 -12    7.22    2.59   0 
  -5  -2   8   37.80    3.67   0 
  -5  -2   9   80.01    3.80   0 
  -5  -2  10   61.05    3.91   0 
  -5  -1   0  130.34    7.05   0 
  -5  -1  19    6.38    3.09   0 
  -5   0  -4  886.94    6.63   0 
  -5   3 -10   41.43    3.41   0 
  -5   6 -13   20.07    2.54   0 
  -4  -1  18  199.03    3.26   0 
  -4   0  -4   60.69    4.04   0 
  -4   0  22    7.96    2.94   0 
  -3  -1  17    7.54    3.14   0 
  -3   6 -13   14.69    2.93   0 
  -2  -1  15    9.34    3.21   0 
  -2   0  20   47.25    3.33   0 
  -2   3 -10  394.31    3.76   0 
  -2   7 -13    2.87    3.09   0 
  -1  -1  11  250.89    3.48   0 
  -1  -1  12  118.69    3.62   0 
  -1   0  -2  438.98    7.04   0 
  -1   0  18   78.24    3.23   0 
  -1   1  21    1.67    2.32   0 
   0   0  15    0.46    2.57   0 
   0   1  19    1.85    2.39   0 
   1   0  10  885.75    5.45   0 
   1   2  -5    9.49    3.59   0 
   2   1  12  103.28    3.61   0 
   2   6  -9  241.97    4.01   0 
   2   8 -10    6.14    3.29   0 
   3   8  -8    3.03    3.42   0 
   3   9  -8    1.53    3.25   0 
   4   3  10  236.66    4.48   0 
   4   5  16    8.00    3.08   0 
   5   5  10    7.20    4.59   0 
   5   9  -1   13.77    4.64   0 
  -9   3  -7    6.17    3.27   0 
  -8   3  -8   51.22    3.28   0 
  -7   3  -9   13.56    3.26   0 
  -7   4 -10   20.64    3.13   0 
  -6  -2   8  286.80    5.18   0 
  -6  -2  12  115.15    4.24   0 
  -6  -1  20   18.34    3.22   0 
  -5  -2   7   66.91    4.37   0 
  -5  -2  12   56.92    3.45   0 
  -5   4 -11  101.76    3.52   0 
  -5   5 -12   18.73    2.70   0 
  -4  -2   9   17.53    3.60   0 
  -4  -1  19    1.86    2.98   0 
  -3  -1  18   11.58    3.10   0 
  -3   0  22   19.77    3.12   0 
  -3   4 -11    6.90    3.22   0 
  -3   5 -12    3.19    3.00   0 
  -3   7 -13   25.12    3.09   0 
  -2  -1  16  229.23    3.94   0 
  -2   0  -3   -0.35    4.04   0 
  -2   1  -6 1519.42    6.86   0 
  -1  -1   4   42.68    3.85   0 
  -1  -1  13    4.13    3.17   0 
  -1   6 -12   49.28    2.81   0 
   0   0  16  168.86    3.63   0 
   0   1  20   16.26    3.04   0 
   1   0   4  217.15    4.82   0 
   1   0  11    5.58    2.71   0 
   1   1  17    8.16    3.03   0 
   1   8 -11    4.02    2.39   0 
   2   1  13   16.37    3.32   0 
   2   2  17    4.82    3.05   0 
   3   2  13    8.51    3.64   0 
   4   3  11   12.09    3.83   0 
   4   6  -4    9.60    4.31   0 
   4   8  -5    2.76    3.82   0 
   5   6  13   13.98    4.17   0 
  -9   2  -5    3.68    3.75   0 
  -8   4  -9   12.94    3.06   0 
  -7  -2   8   14.72    4.84   0 
  -7  -2  10    1.62    3.58   0 
  -7   1  -5   69.83    4.00   0 
  -7   2  -7    4.48    3.84   0 
  -6  -2   7   -0.24    4.08   0 
  -6  -2  13   24.02    3.38   0 
  -5  -2   6   13.52    4.74   0 
  -5  -1  20    0.10    2.52   0 
  -4  -2   7    1.57    3.73   0 
  -4  -2   8  178.22    4.00   0 
  -4  -2  11   66.89    3.49   0 
  -4   4 -11   69.50    2.97   0 
  -2  -1  17    1.27    3.15   0 
  -2   0  21    3.98    2.85   0 
  -2   6 -12   -0.17    3.12   0 
  -1  -1  14   13.90    2.94   0 
   0   0  17    1.76    3.01   0 
   0   2  -6  379.74    4.52   0 
   1   0  13   -2.54    3.08   0 
   1   1  18   57.90    3.24   0 
   2   1  14  187.11    3.89   0 
   3   3  -2  348.89    7.10   0 
   3   3  17   -2.78    3.12   0 
   5   5  11    4.55    3.96   0 
  -8   2  -6   62.73    3.40   0 
  -6  -2   6  229.03    6.74   0 
  -6  -2  15   13.88    3.25   0 
  -6   0  -3    1.59    4.03   0 
  -6   3  -9   13.81    3.26   0 
  -6   4 -10   45.20    3.34   0 
  -5  -2  15    1.59    3.33   0 
  -5  -1  21    4.06    3.09   0 
  -5   1  -6    1.22    3.31   0 
  -5   6 -12    5.64    2.50   0 
  -4  -2  13   30.18    3.39   0 
  -4  -1  20   81.46    2.89   0 
  -4   1  -6  861.30    6.23   0 
  -4   2  -8    6.44    3.44   0 
  -4   6 -12   -1.37    3.00   0 
  -3  -1  19    1.10    3.08   0 
  -3   1  -6   34.35    3.56   0 
  -2   3  -9   -0.01    3.11   0 
  -2   5 -11    4.79    3.29   0 
  -2   7 -12    8.39    3.03   0 
  -1  -1  15    3.31    2.97   0 
  -1   2  -7   10.43    2.55   0 
   0   1  21    4.09    2.95   0 
   0   7 -11    2.72    3.06   0 
   1   0  14  396.34    4.04   0 
   1   8 -10    5.11    3.17   0 
   2   1  15    5.50    3.19   0 
   3   4  -4   13.60    3.92   0 
   3   9  -7    1.85    3.19   0 
   4   3  12   75.43    3.68   0 
   5   5  12   13.16    3.66   0 
   5   7   0    0.64    5.90   0 
   5   9   0   -0.15    5.18   0 
 -10   2  -3   10.39    3.51   0 
  -9   3  -6    9.39    3.62   0 
  -8  -2  11    2.40    4.51   0 
  -8  -1   3    5.50    7.24   0 
  -8   0  -1    0.59    4.15   0 
  -7  -2   7    6.49    5.27   0 
  -7  -2  15    1.58    3.09   0 
  -7   3  -8   25.42    3.27   0 
  -7   4  -9   10.51    3.62   0 
  -6   6 -11   11.42    2.93   0 
  -5   3  -9  112.85    3.62   0 
  -5   4 -10   64.40    3.49   0 
  -5   5 -11    7.02    3.11   0 
  -4  -1  21    0.41    2.89   0 
  -4   5 -11   30.94    3.28   0 
  -3  -2   8   84.12    3.65   0 
  -3  -2   9   44.50    3.39   0 
  -3  -2  12  498.98    4.61   0 
  -3   7 -12    4.26    3.05   0 
  -2  -1  18  134.01    3.11   0 
  -2   0  22   23.89    2.62   0 
  -1  -1   3  123.67    5.10   0 
  -1  -1  16   16.82    3.04   0 
  -1   6 -11    5.87    3.15   0 
   0  -1   8  887.48    5.44   0 
   0  -1   9    1.85    3.17   0 
   0  -1  10 1081.05    5.66   0 
   0   0  18  114.67    3.26   0 
   1   0   3    1.00    3.76   0 
   1   1  19    2.04    2.96   0 
   2   2  -2  780.16    9.16   0 
   2   2  19   -0.37    2.98   0 
   2   4  -6  541.06    5.13   0 
   2   6  -8    5.48    3.28   0 
   3   2   1    4.76    7.96   0 
   3   2  15   10.12    3.32   0 
   3   6  -6    7.70    3.99   0 
   4   3  13   11.61    3.22   0 
   4   5  -2    6.78    5.07   0 
   4   7  -4    2.44    4.22   0 
   4   8  -4    1.82    4.12   0 
   4   9  -4    0.71    4.05   0 
   5   8   0    2.56    5.32   0 
  -8   3  -7    6.56    3.10   0 
  -7  -2  16   41.26    3.23   0 
  -7   0  -2  405.48    5.87   0 
  -6  -2  17    2.59    3.16   0 
  -6   2  -7   19.02    3.13   0 
  -5  -2   5   85.22    5.54   0 
  -5  -2  17    0.67    3.18   0 
  -4   3  -9  178.74    3.84   0 
  -4   4 -10    4.30    3.23   0 
  -3  -2   7   96.29    4.07   0 
  -3  -2  14  143.96    3.63   0 
  -3   3  -9  172.39    3.21   0 
  -2  -1  19    3.27    3.02   0 
  -1  -1  17   11.87    3.08   0 
   0  -1   7  238.10    3.99   0 
   0  -1  11   70.72    2.68   0 
   0  -1  12  474.97    4.30   0 
   0   0  19    1.76    2.87   0 
   0   1  22    3.37    2.34   0 
   0   6 -10   20.07    3.34   0 
   1   0  15   -0.46    2.38   0 
   1   6  -9   10.34    3.36   0 
   2   8  -8    4.16    3.73   0 
   2   9  -8    2.19    3.73   0 
   3   3  19    6.77    2.76   0 
   3   9  -6    4.19    4.19   0 
   4   4   0  200.94    9.78   0 
   4   4  17    2.66    3.07   0 
   4   6  -3   44.83    4.79   0 
  -9   1  -2   -0.99    3.65   0 
  -8  -2   9    4.47    4.90   0 
  -8  -2  15    3.32    3.66   0 
  -7  -2  17   10.72    3.31   0 
  -6  -2  18    0.62    2.94   0 
  -6   1  -5    2.94    3.33   0 
  -6   5 -10   67.36    3.35   0 
  -5   0  -3   -0.96    3.74   0 
  -5   6 -11   31.72    2.64   0 
  -4  -1  22   21.58    2.70   0 
  -4   6 -11   39.59    3.07   0 
  -3  -2  15   -1.99    3.24   0 
  -3  -1  21    4.65    2.40   0 
  -3   0  -3    1.92    3.30   0 
  -3   6 -11   -4.07    2.98   0 
  -2  -1  20   48.47    3.16   0 
  -2   1  -5   19.65    3.31   0 
  -2   2  -7  115.60    2.94   0 
  -2   7 -11    6.60    2.98   0 
  -1   0  22    5.27    2.77   0 
  -1   4  -9   11.38    3.20   0 
   0  -1   6  997.05    6.35   0 
   0  -1  13    2.15    2.45   0 
   0  -1  14  542.40    4.42   0 
   0   3  -7   23.98    3.34   0 
   0   7 -10   13.23    3.26   0 
   0   9 -10    1.75    2.96   0 
   1   2  -4    6.44    3.61   0 
   1   5  -8   86.91    3.65   0 
   2   1  17   16.32    3.00   0 
   2   3  -4   28.06    3.79   0 
   3   1   9    7.73    3.32   0 
   3   8  -6    3.44    3.64   0 
   5   4   6  114.86    5.83   0 
   5   4   7    1.05    4.13   0 
   5   4   8  155.78    4.94   0 
   5   4   9   45.40    3.92   0 
   5   4  10   60.17    4.29   0 
 -10   0   3    1.25    5.47   0 
  -9   0   1   -0.20    5.02   0 
  -8  -2  17    8.58    3.68   0 
  -8   1  -3    4.39    3.64   0 
  -7   1  -4    0.08    3.77   0 
  -7   5  -9   35.58    3.08   0 
  -6   4  -9   27.59    2.63   0 
  -6   6 -10    5.95    3.11   0 
  -5  -2  19    3.99    3.49   0 
  -5   2  -7   58.49    3.01   0 
  -5   5 -10    6.68    3.25   0 
  -5   7 -11   20.13    2.52   0 
  -4  -2   5    1.50    4.24   0 
  -4  -2  18    1.83    3.03   0 
  -4   0  -3   -0.26    3.60   0 
  -4   2  -7  467.13    4.73   0 
  -4   7 -11   21.33    3.05   0 
  -3  -2   6  121.86    4.17   0 
  -3   7 -11   97.23    3.40   0 
  -3   8 -11    4.06    2.91   0 
  -2  -2  10  226.80    4.04   0 
  -2  -2  11   75.29    3.55   0 
  -2  -2  13    3.09    3.30   0 
  -2   5 -10    8.42    3.16   0 
  -1  -1  18   61.98    2.57   0 
   0  -1  15    0.07    3.19   0 
   0   0  20   37.59    2.53   0 
   0   1  -3    1.09    3.79   0 
   1   0  17    3.23    2.45   0 
   2   0   9   -1.46    3.38   0 
   2   0  10    8.66    3.38   0 
   3   1   7    3.16    3.40   0 
   3   1  11    2.46    3.27   0 
   3   1  12  170.71    3.92   0 
   4   3  16   25.84    3.66   0 
   5   4  11   87.82    4.07   0 
   5   4  12   62.22    4.37   0 
   5   5  15    9.26    3.72   0 
 -10   2  -2   10.08    3.49   0 
  -9   4  -6   26.87    3.26   0 
  -8  -2   8  152.90    6.66   0 
  -8   4  -7    9.31    3.54   0 
  -8   5  -8    8.04    3.01   0 
  -7  -2   6   50.19    7.29   0 
  -7  -2  19    3.01    2.84   0 
  -7   4  -8   48.94    3.33   0 
  -6  -2   5   25.74    6.86   0 
  -6  -2  20    1.39    3.49   0 
  -6  -1   1   16.74    6.00   0 
  -5   1  -5   16.65    3.41   0 
  -5   3  -8   -1.09    3.22   0 
  -5   4  -9   60.01    3.42   0 
  -3  -2  17    3.61    3.12   0 
  -3   1  -5    1.49    3.36   0 
  -3   5 -10    1.70    2.63   0 
  -2  -2  14   12.60    3.20   0 
  -2  -2  15   24.62    3.08   0 
  -2  -1  21    4.87    2.99   0 
  -2   4  -9   10.05    3.27   0 
  -1  -1  19    4.34    2.91   0 
   0  -1   5  205.82    4.40   0 
   0  -1  16  150.23    3.45   0 
   0   0  21   -0.51    2.75   0 
   0   2  -5  545.25    5.18   0 
   1   0  18   28.10    3.01   0 
   1   1  22   35.69    3.11   0 
   2   0   7    2.24    3.27   0 
   2   0   8    3.57    3.46   0 
   2   0  11    0.43    2.78   0 
   2   0  12  124.30    3.63   0 
   2   0  13    1.03    3.19   0 
   2   1   1   20.08    6.07   0 
   2   1  19   10.86    2.92   0 
   3   1   6   29.53    3.84   0 
   3   1  13   74.77    3.44   0 
   3   2  18    5.24    2.98   0 
   4   2   8    5.15    3.49   0 
   4   2   9    4.53    3.75   0 
   4   2  10   11.34    3.77   0 
   4   2  11   10.51    3.82   0 
   5   4   5   72.75    5.83   0 
  -9  -2  12    2.19    4.41   0 
  -9  -2  13    8.25    3.87   0 
  -9  -2  14   -0.28    3.90   0 
  -7  -1   2  111.34    7.28   0 
  -6   0  -2   60.22    4.40   0 
  -6   2  -6   10.20    3.08   0 
  -6   5  -9   45.29    3.36   0 
  -5  -2  20   57.76    3.25   0 
  -5   6 -10   12.24    2.52   0 
  -5   7 -10    2.46    2.93   0 
  -4  -2  20    2.48    3.02   0 
  -4   1  -5   -0.29    3.31   0 
  -4   3  -8  341.75    3.83   0 
  -4   4  -9  197.13    3.40   0 
  -3  -2  18  113.53    3.47   0 
  -3   3  -8   11.67    2.72   0 
  -3   4  -9   35.92    2.57   0 
  -3   6 -10   31.61    3.03   0 
  -2  -2   7  124.04    3.83   0 
  -2  -1  22   12.74    2.98   0 
  -2   6 -10    1.01    2.62   0 
  -1  -1  20    8.29    2.88   0 
  -1   8 -10    2.18    2.58   0 
   0  -1  17   10.54    2.87   0 
   0   0  22   29.23    2.97   0 
   0   6  -9  116.37    3.17   0 
   0   9  -9    3.13    3.05   0 
   1   0  19    2.76    2.96   0 
   1   6  -8    8.19    3.46   0 
   1   9  -8    3.10    3.22   0 
   2   5  -6   11.32    3.43   0 
   3   1  14   73.76    3.44   0 
   3   4  -3   60.56    4.68   0 
   3   9  -5    3.38    3.65   0 
   4   2  12   59.44    3.41   0 
   4   2  13    9.59    3.65   0 
   4   8  -3    6.92    3.64   0 
   5   4  14    8.13    3.69   0 
   5   7   1   43.47    6.54   0 
   6   7   8   16.48    6.56   0 
 -10   3  -3    1.85    3.50   0 
  -9  -2  11    5.10    4.85   0 
  -9   2  -3    2.86    3.65   0 
  -8   0   0   38.28    4.31   0 
  -7   2  -5    7.72    3.73   0 
  -7   5  -8    3.06    2.89   0 
  -6   1  -4  328.73    4.79   0 
  -6   3  -7    4.26    3.26   0 
  -6   4  -8    8.18    3.17   0 
  -5  -2  21    0.96    2.96   0 
  -5   5  -9   79.19    3.25   0 
  -4   7 -10    2.00    2.94   0 
  -3  -2  19   -1.18    3.11   0 
  -3   7 -10    4.27    2.88   0 
  -3   8 -10    1.55    2.93   0 
  -2  -2  17   52.91    3.16   0 
  -2   7 -10    0.63    2.53   0 
  -2   8 -10    3.36    2.54   0 
  -1  -2  11   10.29    3.34   0 
  -1  -2  12  465.77    4.43   0 
  -1  -1  21    4.37    2.85   0 
   0  -1  18   70.08    3.06   0 
   0   5  -8   76.40    3.55   0 
   0   7  -9    4.02    2.67   0 
   1  -1  10    6.47    2.96   0 
   1  -1  11    3.20    3.03   0 
   1  -1  12   10.69    2.98   0 
   1   0  20   12.24    2.88   0 
   1   3  -5  219.78    4.13   0 
   1   5  -7  211.97    4.17   0 
   1   8  -8    1.18    3.29   0 
   2   0   6  236.78    4.16   0 
   2   0  15    0.19    3.17   0 
   2   1  20    3.23    2.82   0 
   3   1   5   -0.34    3.69   0 
   3   1  15    3.20    3.21   0 
   3   5  -4  140.01    4.14   0 
   4   2   6    2.24    3.57   0 
   4   3  18    7.36    3.01   0 
   5   8   1   19.16    5.47   0 
  -9   3  -4    0.80    3.55   0 
  -8   2  -4    4.79    3.12   0 
  -7   0  -1    2.32    4.08   0 
  -7   3  -6   11.62    3.63   0 
  -7   4  -7   30.88    3.14   0 
  -6   6  -9   22.38    2.65   0 
  -4  -2  21    5.78    2.37   0 
  -4   5  -9   35.35    3.19   0 
  -3   5  -9  143.61    3.59   0 
  -2  -2   6  979.92    6.86   0 
  -2  -2  18   14.31    2.97   0 
  -2   2  -6  150.77    3.13   0 
  -2   5  -9   11.97    2.63   0 
  -1  -2   9    6.26    3.19   0 
  -1  -2  10  237.01    3.87   0 
  -1  -2  13   -0.93    2.44   0 
  -1  -2  14  361.95    3.90   0 
  -1  -2  15    8.71    2.89   0 
  -1   9  -9   13.08    3.01   0 
   0  -1  19    2.03    2.85   0 
   0   3  -6  269.15    4.34   0 
   0   4  -7  246.45    4.12   0 
   1  -1   8  232.11    3.83   0 
   1  -1   9    4.51    2.51   0 
   1  -1  13   23.34    2.46   0 
   1  -1  14   26.56    2.95   0 
   1   4  -6   27.65    3.49   0 
   2   1  21    5.79    2.79   0 
   2   9  -6    7.45    3.72   0 
   4   2  15    2.67    3.22   0 
   4   6  -2   13.15    4.26   0 
   4   9  -2    1.18    3.54   0 
 -10   1   1   -1.54    3.93   0 
 -10   2  -1   13.65    3.53   0 
  -9  -2  10   -1.15    5.51   0 
  -9   4  -5    1.86    3.16   0 
  -8   1  -2  170.20    4.53   0 
  -8   3  -5   10.20    3.08   0 
  -8   4  -6   25.26    3.15   0 
  -7   1  -3   -2.69    3.81   0 
  -7   6  -8    6.30    3.00   0 
  -6   5  -8   40.94    3.34   0 
  -5   3  -7   48.28    3.32   0 
  -5   4  -8  162.53    3.14   0 
  -5   6  -9   13.57    2.98   0 
  -5   7  -9   27.66    3.17   0 
  -4   2  -6    2.64    3.46   0 
  -4   4  -8   31.52    3.24   0 
  -3  -2  21    4.05    2.79   0 
  -3   2  -6  794.94    5.45   0 
  -2  -2  19   12.86    2.98   0 
  -2   3  -7   27.89    3.13   0 
  -2   4  -8   -0.52    2.99   0 
  -2   6  -9  219.59    3.73   0 
  -2   9  -9   10.41    2.80   0 
  -1  -2   8  526.97    4.90   0 
  -1  -2  16  254.73    3.70   0 
  -1   7  -9  140.95    3.13   0 
   0  -1   4  588.95    5.76   0 
   0  -1  20   20.31    2.76   0 
   0   9  -8    0.60    3.03   0 
   1  -1  15   -0.02    2.34   0 
   1  -1  16   43.07    3.06   0 
   1   0  21   -0.61    2.25   0 
   2   0   5   -0.62    3.35   0 
   2   0  17    2.22    2.49   0 
   2   7  -6    0.67    3.72   0 
   2   8  -6    4.79    3.66   0 
   3   1  17    2.76    2.37   0 
   3   3  -1   37.38    6.40   0 
   3   9  -4    1.85    3.65   0 
   4   5  -1  147.01    6.43   0 
   4   7  -2   10.44    4.51   0 
   4   8  -2    7.18    4.48   0 
   5   3  11   26.22    3.86   0 
   5   4   4   13.60    6.37   0 
   5   4  16    3.89    3.10   0 
   5   6   2   57.09    8.05   0 
  -6   2  -5   14.06    3.80   0 
  -5  -3  13   88.29    4.05   0 
  -5  -2   4   56.69    6.68   0 
  -5   1  -4   11.70    3.25   0 
  -4  -2   4  875.30    9.47   0 
  -4   3  -7   25.69    3.31   0 
  -4   6  -9   60.04    2.73   0 
  -4   7  -9    4.62    2.80   0 
  -4   8  -9   44.20    3.00   0 
  -3  -2  22   12.20    2.87   0 
  -3   4  -8   96.31    2.75   0 
  -3   6  -9   15.23    2.35   0 
  -3   7  -9   18.35    3.17   0 
  -3   8  -9    1.42    2.89   0 
  -2  -2  20   53.00    2.65   0 
  -2   1  -4 1004.23    6.28   0 
  -2   7  -9    6.98    3.02   0 
  -2   8  -9   72.84    2.75   0 
  -1  -2  17    3.42    2.37   0 
  -1  -2  18   43.65    2.93   0 
  -1  -1   2 2964.03   16.46   0 
  -1   2  -5   30.49    3.08   0 
  -1   5  -8   46.37    3.23   0 
   0  -1  21    5.66    2.81   0 
   0   8  -8    3.74    3.15   0 
   1  -1  17   12.42    2.81   0 
   1   0  22    7.30    2.87   0 
   4   2  17    0.84    2.93   0 
   5   3   8    0.16    4.15   0 
   5   3  12   38.99    3.44   0 
   5   3  13    0.45    3.48   0 
   6   6   9   18.71    4.62   0 
   6   6  10    0.77    3.93   0 
   6   6  11    5.31    4.07   0 
 -10   3  -2   20.51    3.20   0 
  -9   0   2  162.63    5.63   0 
  -8   5  -6   29.37    3.06   0 
  -7   5  -7    8.26    2.52   0 
  -6  -3  14   43.35    3.36   0 
  -6  -3  15    5.66    3.08   0 
  -6  -3  16   74.27    3.29   0 
  -6  -3  17    5.00    3.61   0 
  -6   4  -7   98.09    3.07   0 
  -6   6  -8    4.12    2.45   0 
  -6   7  -8   14.78    3.02   0 
  -5  -3  11   17.77    3.81   0 
  -5  -3  12  159.89    4.07   0 
  -5  -3  16    3.15    3.16   0 
  -5  -3  17   24.70    3.23   0 
  -5   5  -8    6.88    3.10   0 
  -4  -3  12  100.90    3.44   0 
  -4  -3  13   53.33    3.27   0 
  -4  -3  14   84.14    3.50   0 
  -4  -3  15    5.30    3.07   0 
  -4  -3  16   60.12    3.18   0 
  -3   0  -2   10.07    3.75   0 
  -2  -2  21    2.05    2.35   0 
  -2   5  -8  255.34    3.72   0 
  -1  -2   7  181.92    3.84   0 
  -1  -2  19   81.75    3.20   0 
  -1   4  -7   51.89    3.34   0 
  -1   9  -8   13.24    3.08   0 
   0  -2  12   15.73    3.00   0 
   0  -2  13  114.63    3.23   0 
   0  -1  22    6.30    2.69   0 
   1  -1  18   63.67    3.08   0 
   1   1  -1   20.51    5.85   0 
   1   2  -3  947.04    7.42   0 
   2   0  19    0.61    2.50   0 
   2   3  -3  658.74    6.48   0 
   2   5  -5  264.30    4.29   0 
   3   1  19    1.79    2.28   0 
   5   3   7   45.50    4.45   0 
   5   3  14   33.62    3.25   0 
   6   6   8    0.99    5.24   0 
 -10   0   4   14.67    4.94   0 
  -9  -2   9   12.32    8.04   0 
  -9   3  -3   20.02    3.81   0 
  -9   4  -4   34.20    3.19   0 
  -8   2  -3   17.59    3.25   0 
  -8   4  -5    4.63    3.19   0 
  -7  -3  13    4.51    3.99   0 
  -7  -3  15    9.69    3.67   0 
  -7   3  -5   47.27    3.30   0 
  -7   4  -6   48.16    3.36   0 
  -7   6  -7   14.43    3.07   0 
  -6  -3  11   69.12    4.34   0 
  -6  -3  19    7.87    3.47   0 
  -5  -3  10  259.15    5.02   0 
  -5  -3  18   -0.11    3.02   0 
  -5  -3  19   14.41    3.10   0 
  -5   4  -7    5.33    3.29   0 
  -5   6  -8   13.16    3.18   0 
  -4  -3  11   35.86    3.48   0 
  -4  -3  17   12.89    3.09   0 
  -4  -3  18   82.62    3.39   0 
  -4   0  -2  447.98    5.70   0 
  -4   5  -8  113.47    3.04   0 
  -3  -3  12    2.40    3.85   0 
  -3  -3  13  110.84    3.68   0 
  -3  -3  14   18.34    3.13   0 
  -3  -2   4   74.74    4.88   0 
  -3   5  -8   10.42    3.26   0 
  -2  -2   5    0.45    3.12   0 
  -2  -2  22    8.96    2.89   0 
  -1   7  -8    5.64    3.17   0 
   0  -2  10   64.68    3.27   0 
   0  -2  11  108.80    2.89   0 
   0  -2  14   27.53    2.50   0 
   0  -2  15   33.45    3.14   0 
   0  -2  16  158.34    3.63   0 
   0   2  -4 2425.98    9.58   0 
   1  -1   6  946.12    5.73   0 
   1  -1  19    3.35    2.49   0 
   1   5  -6   45.51    3.61   0 
   1   9  -6    0.60    3.65   0 
   2   0   4 1587.62    8.91   0 
   2   0  20   55.61    2.74   0 
   3   0  10  927.28    5.72   0 
   3   0  11   -3.91    3.26   0 
   3   0  13   -0.53    3.35   0 
   3   0  14   61.14    3.42   0 
   3   5  -3   43.63    4.30   0 
   4   1  11   -0.43    3.23   0 
   4   1  12  492.57    4.52   0 
   4   1  13    7.14    3.34   0 
   4   2  19    3.97    2.93   0 
   5   8   2    2.34    5.60   0 
   6   6   7   57.38    7.98   0 
 -10   2   0    2.51    3.51   0 
  -9   1   0   10.13    3.68   0 
  -8   3  -4   81.93    3.69   0 
  -7  -3  18    8.52    3.18   0 
  -6  -3  10    0.66    4.36   0 
  -6   0  -1   -1.10    3.90   0 
  -6   1  -3   11.26    3.07   0 
  -6   5  -7    9.22    3.05   0 
  -5  -3  20    2.79    3.01   0 
  -5   2  -5    5.69    3.30   0 
  -5   3  -6   23.87    3.50   0 
  -5   7  -8    0.13    2.47   0 
  -4  -3  10   83.26    3.54   0 
  -4  -3  19    2.59    3.05   0 
  -4  -3  20   62.72    3.68   0 
  -4   4  -7  201.74    3.91   0 
  -4   6  -8   -2.57    2.95   0 
  -4   7  -8    2.23    2.84   0 
  -4   8  -8    2.52    2.91   0 
  -3  -3  11    7.42    3.29   0 
  -3  -3  18    1.89    3.01   0 
  -3   6  -8   53.56    3.23   0 
  -3   8  -8    5.45    2.96   0 
  -2   2  -5   15.27    3.18   0 
  -2   6  -8   11.19    3.22   0 
  -2   7  -8   -2.05    2.91   0 
  -2   8  -8    8.11    3.07   0 
  -1  -2  21    2.84    2.90   0 
  -1   1  -3   21.12    3.76   0 
   0  -2   9    3.23    2.98   0 
   0  -2  17    7.24    2.86   0 
   0  -2  18   19.61    3.03   0 
   0   4  -6  124.37    3.80   0 
   1  -1  20   90.45    2.76   0 
   2  -1  12  114.59    3.53   0 
   2  -1  13   22.32    2.97   0 
   2  -1  14  205.79    3.77   0 
   2   0  21   -0.32    2.37   0 
   2   6  -5    8.26    3.84   0 
   3   0   9   -8.20    3.66   0 
   3   0  15    0.28    2.62   0 
   3   0  16   42.72    3.26   0 
   3   4  -2    4.37    4.88   0 
   3   9  -3    0.50    3.63   0 
   4   1   9    9.55    3.30   0 
   4   1  15   10.90    3.05   0 
   5   3   6   19.35    4.75   0 
   5   3  17    4.52    3.15   0 
   6   5   9   47.04    5.12   0 
   6   5  10   58.59    4.50   0 
   6   5  11   10.05    4.08   0 
   6   5  12    8.36    3.62   0 
   6   5  13   19.50    4.11   0 
 -10   1   2   49.85    4.30   0 
 -10   3  -1    4.30    3.63   0 
  -8   0   1    3.04    3.85   0 
  -8   1  -1   12.21    3.76   0 
  -8   5  -5    8.57    3.05   0 
  -7   1  -2   21.72    3.82   0 
  -7   5  -6    0.37    3.13   0 
  -6   4  -6   -2.30    3.19   0 
  -6   6  -7   59.86    3.33   0 
  -6   7  -7    6.47    2.90   0 
  -5  -3   9   -0.01    4.13   0 
  -5   5  -7  163.93    3.77   0 
  -4  -3   9   76.79    3.69   0 
  -4   3  -6  315.72    4.19   0 
  -3  -3  10   57.71    3.38   0 
  -3   7  -8    4.36    2.47   0 
  -2  -3  12  196.30    4.27   0 
  -2  -3  13   -0.28    3.35   0 
  -2  -3  14  215.41    3.77   0 
  -2  -3  16  189.88    3.67   0 
  -1  -2  22   26.65    2.88   0 
  -1   5  -7  173.93    3.76   0 
  -1   9  -7   36.64    3.30   0 
   0  -2   8  153.20    3.52   0 
   0  -2  19    2.50    2.88   0 
   0  -1   3    0.71    3.69   0 
   1  -1  21    0.21    2.42   0 
   1   3  -4 1101.58    6.91   0 
   1   7  -6    1.34    3.71   0 
   1   8  -6    2.58    3.23   0 
   2  -1   9   -3.06    3.20   0 
   2  -1  10  835.81    5.10   0 
   2  -1  16  157.01    3.58   0 
   2  -1  17   15.45    3.00   0 
   3   0   8 1199.30    6.52   0 
   3   0  17    2.26    2.99   0 
   4   1   8  233.69    4.52   0 
   4   1  16   16.64    3.12   0 
   4   6  -1   79.62    5.11   0 
   5   7   2   -0.02    5.89   0 
  -9   2  -1    0.95    3.66   0 
  -9   4  -3   15.96    3.55   0 
  -8  -3  14    9.18    4.25   0 
  -7   0   0  355.15    5.81   0 
  -7   4  -5   18.93    3.69   0 
  -7   6  -6    3.80    3.02   0 
  -6   2  -4    2.71    3.33   0 
  -6   3  -5   44.79    3.40   0 
  -5   6  -7    0.62    3.09   0 
  -5   8  -7    2.74    2.78   0 
  -4   5  -7   24.95    3.19   0 
  -3   3  -6  245.29    3.80   0 
  -3   9  -7   14.80    3.01   0 
  -2  -3  11   -0.77    3.30   0 
  -2  -3  17   13.33    3.04   0 
  -2  -3  18  128.62    3.34   0 
  -2   5  -7   59.84    3.18   0 
  -2   9  -7    3.71    3.03   0 
  -1   6  -7   33.66    3.27   0 
  -1   8  -7   22.43    3.19   0 
   0  -2  20   38.78    2.95   0 
   0   9  -6    3.53    3.22   0 
   1  -1   5   73.98    3.05   0 
   2  -1  18   46.20    3.25   0 
   2   9  -4    6.06    3.72   0 
   3   0   7    0.02    3.29   0 
   3   0  19    2.14    2.88   0 
   3   6  -3  546.52    6.13   0 
   4   1  17   12.32    3.01   0 
   4   1  18    6.20    3.04   0 
   4   7  -1  115.23    4.95   0 
   5   2  10  321.03    4.93   0 
   5   2  11   12.06    3.95   0 
   5   2  13    6.94    3.21   0 
   5   2  14   15.43    3.75   0 
   6   5   8   39.92    5.03   0 
  -9   3  -2    5.79    3.05   0 
  -8  -3  13    8.34    4.27   0 
  -8   2  -2   13.63    3.78   0 
  -8   4  -4    2.39    3.04   0 
  -7   2  -3   11.56    3.65   0 
  -7   3  -4    6.66    3.75   0 
  -6  -3   9   31.79    4.45   0 
  -6   5  -6   45.70    3.23   0 
  -5   1  -3    5.34    3.01   0 
  -5   4  -6  112.80    3.54   0 
  -5   7  -7  123.14    3.00   0 
  -4   6  -7  128.87    3.44   0 
  -4   8  -7   28.89    3.13   0 
  -3   5  -7  148.07    3.51   0 
  -3   8  -7    5.00    2.94   0 
  -2  -3  19    6.01    2.99   0 
  -2   8  -7   39.73    3.21   0 
  -1   4  -6  383.62    4.26   0 
  -1   7  -7  123.37    3.03   0 
   0  -2   7   54.02    3.22   0 
   0  -2  21    1.33    2.81   0 
   0   1  -2 1332.11   10.05   0 
   1  -2  11   38.25    3.11   0 
   1  -2  12  637.21    4.61   0 
   1  -2  13   25.48    2.53   0 
   1  -2  14  169.32    2.95   0 
   1  -2  15  203.05    3.56   0 
   1  -2  16  133.25    3.31   0 
   1  -2  17   11.53    2.76   0 
   1   9  -5    8.05    3.07   0 
   2  -1   8  714.48    5.27   0 
   2  -1  19    7.89    3.00   0 
   3   0  20    4.65    2.90   0 
   3   7  -3    3.23    3.94   0 
   4   1   7   36.16    3.35   0 
   4   1  19    5.01    2.78   0 
   4   9   0    5.79    4.02   0 
   5   2   9    3.49    3.93   0 
   5   2  15   18.40    3.15   0 
   5   2  16    1.33    3.52   0 
   6   4  11    8.43    4.04   0 
   6   4  12   29.85    4.08   0 
   6   4  13    2.80    4.02   0 
   6   4  14   17.08    4.19   0 
 -10  -1   8   12.58    7.72   0 
 -10   2   1    4.04    3.47   0 
  -9   1   1   -1.64    3.98   0 
  -9   5  -3    3.57    2.83   0 
  -8  -1   4  112.98    7.34   0 
  -8   3  -3    0.10    3.07   0 
  -7  -3  10   77.60    4.88   0 
  -7   5  -5   50.51    3.27   0 
  -6   6  -6    7.25    3.22   0 
  -6   7  -6    8.04    3.13   0 
  -5  -3   8  305.34    5.30   0 
  -5   3  -5  298.63    4.33   0 
  -4  -3   8  109.24    3.88   0 
  -4   7  -7    6.85    2.42   0 
  -3   6  -7    4.81    3.01   0 
  -3   7  -7   49.12    3.27   0 
  -2  -3  21   16.14    3.03   0 
  -2  -2   4  469.98    5.95   0 
  -2   6  -7   83.72    2.88   0 
  -1  -3  12   92.30    3.52   0 
  -1  -3  13   71.20    3.19   0 
  -1  -3  14    3.74    2.49   0 
  -1  -3  15   48.52    2.76   0 
  -1  -3  16   21.23    3.12   0 
  -1  -3  17   48.36    3.05   0 
  -1  -3  18   10.47    3.01   0 
  -1  -2   5    7.17    3.34   0 
  -1   2  -4  780.32    5.78   0 
  -1   9  -6    3.06    3.04   0 
   0  -2  22   46.98    2.95   0 
   0   6  -6    4.40    3.56   0 
   0   7  -6    5.10    3.40   0 
   1  -2  10  559.06    4.42   0 
   1  -2  18  133.41    3.31   0 
   1   8  -5   82.52    3.52   0 
   2  -1  20    5.96    2.35   0 
   2   8  -4    2.89    3.13   0 
   3   9  -2    0.50    3.19   0 
   5   2  17    1.17    3.01   0 
   5   3   5  246.59    6.50   0 
   6   4  10   39.50    4.25   0 
   6   5   7    8.53    6.10   0 
 -10   0   5   -0.16    5.13   0 
  -9   0   3    0.34    4.54   0 
  -8  -3  12    0.35    4.22   0 
  -8   5  -4   24.27    3.16   0 
  -8   6  -4    1.30    3.10   0 
  -7   6  -5    6.82    2.84   0 
  -7   7  -5   19.08    3.02   0 
  -6   1  -2  648.75    5.77   0 
  -6   4  -5  113.00    3.61   0 
  -5   2  -4  749.85    5.47   0 
  -5   5  -6    7.12    3.26   0 
  -5   8  -6    1.83    2.83   0 
  -4   4  -6    5.55    2.62   0 
  -3  -3   8  586.47    5.16   0 
  -3   9  -6    6.38    2.95   0 
  -2  -3   9  191.19    3.96   0 
  -2   9  -6    9.72    3.14   0 
  -1  -3  11  137.97    3.59   0 
  -1  -3  19   34.24    3.12   0 
  -1   8  -6    0.46    3.14   0 
   0   9  -5   38.02    3.32   0 
   1  -2   9   66.48    3.15   0 
   1  -2  19    9.39    2.55   0 
   1  -2  20   26.77    2.97   0 
   1   7  -5    2.51    3.12   0 
   2  -1  21    3.52    2.27   0 
   2   0   3   -0.90    3.41   0 
   2   2  -1   26.52    5.11   0 
   2   7  -4    5.20    3.36   0 
   4   1   6  782.56    6.32   0 
   5   2   8  180.16    4.42   0 
   6   4   9   26.90    4.77   0 
 -10   1   3    6.94    3.92   0 
  -9   4  -2   27.84    3.06   0 
  -8   4  -3   64.47    3.84   0 
  -7   4  -4  138.65    3.81   0 
  -6   3  -4  253.62    4.57   0 
  -5   7  -6    7.75    2.93   0 
  -4   2  -4  301.49    4.25   0 
  -4   3  -5    3.08    3.36   0 
  -4   5  -6   11.19    3.05   0 
  -4   8  -6    5.27    2.90   0 
  -3   1  -3  309.77    4.63   0 
  -2   3  -5   67.96    3.24   0 
  -2   8  -6    8.70    3.11   0 
  -1  -3  10  214.26    3.83   0 
  -1  -3  20   14.02    2.36   0 
  -1  -3  21    2.50    2.83   0 
  -1   6  -6   14.84    3.20   0 
  -1   7  -6   32.12    3.35   0 
   0  -2   6  351.89    4.28   0 
   0   4  -5    2.59    2.68   0 
   0  10  -4    5.75    3.03   0 
   1  -2  21   19.32    2.84   0 
   1  -1   4 1219.33    7.56   0 
   1   9  -4   -0.22    3.01   0 
   2   4  -3    8.95    3.80   0 
   3  -1  11    4.03    3.22   0 
   3  -1  12  166.09    3.76   0 
   3  -1  13   77.14    3.32   0 
   3  -1  14   76.12    2.80   0 
   3  -1  15    5.85    3.13   0 
   3  -1  16  134.31    3.34   0 
   3  -1  17   -1.51    3.19   0 
   3   5  -2  253.68    5.22   0 
   3   8  -2    6.11    3.69   0 
   4   0  11   -2.12    3.36   0 
   4   0  12   68.32    3.41   0 
   4   0  13    0.88    3.10   0 
   4   0  15   -3.43    3.17   0 
   4   0  17    1.98    2.79   0 
   4   2   3   58.71    5.71   0 
   4   5   0   32.15    5.45   0 
   4   8   0    1.80    3.99   0 
   5   8   3   13.87    4.95   0 
  -9   3  -1   21.66    3.14   0 
  -9   5  -2    3.47    2.91   0 
  -7   1  -1   15.00    3.75   0 
  -7   3  -3   29.47    3.69   0 
  -6  -3   8   11.45    4.52   0 
  -6  -1   2  229.21    7.68   0 
  -6   2  -3  340.78    4.53   0 
  -6   5  -5    0.21    3.07   0 
  -6   6  -5   62.08    3.41   0 
  -6   7  -5    0.41    2.98   0 
  -5  -4  17   10.29    3.43   0 
  -5   4  -5   81.86    3.41   0 
  -4  -4  17   56.78    3.26   0 
  -4   6  -6   11.88    3.06   0 
  -4   7  -6    8.84    2.95   0 
  -3   2  -4  728.23    5.56   0 
  -3   3  -5  141.96    3.24   0 
  -3   5  -6   45.32    3.12   0 
  -3   7  -6    1.44    2.85   0 
  -3   8  -6   -2.51    2.52   0 
  -2  -3   8  216.04    3.98   0 
  -2   2  -4  359.98    3.93   0 
  -2   5  -6   84.56    2.82   0 
  -2   6  -6   29.30    3.12   0 
  -2   7  -6    9.31    3.20   0 
  -1   9  -5   20.28    3.14   0 
   0  -3  13   31.60    2.93   0 
   0  -3  14  321.14    3.39   0 
   0  -3  15    1.14    2.48   0 
   0  -3  16  102.31    2.85   0 
   0  -3  17   39.20    2.88   0 
   0  -3  18   28.71    2.97   0 
   0   3  -4  719.12    5.49   0 
   0   8  -5   12.58    3.22   0 
   1  -2   8  785.71    5.07   0 
   1   4  -4  167.09    4.16   0 
   1  10  -3   10.97    2.96   0 
   2  -2  13   18.43    3.05   0 
   2  -2  14    1.83    2.92   0 
   2  -2  15   20.92    3.05   0 
   2  -2  16   39.32    3.01   0 
   2  -1   6 1482.91    7.02   0 
   3  -1  10   43.00    3.42   0 
   3  -1  18  121.69    3.62   0 
   3  -1  19    3.72    2.92   0 
   3   7  -2   -0.97    3.77   0 
   3   9  -1    5.83    3.81   0 
   4   0  10  134.02    3.78   0 
   4   0  18   59.83    3.23   0 
   4   9   1    5.01    3.57   0 
   5   1  13    3.87    3.59   0 
   5   1  14  228.69    4.53   0 
   5   1  15    2.73    3.65   0 
   5   2   7   52.08    3.89   0 
   6   3  12   71.70    4.40   0 
   6   3  13   32.31    3.83   0 
   6   3  14    9.18    3.55   0 
   6   4   8    8.65    5.16   0 
 -10   2   2    7.00    3.94   0 
  -8   0   2   22.13    4.28   0 
  -8   2  -1    6.27    3.72   0 
  -8   5  -3    5.77    2.95   0 
  -8   6  -3   34.54    3.11   0 
  -7  -3   9    0.65    4.87   0 
  -7  -1   3    7.44    6.07   0 
  -7   2  -2   88.48    3.55   0 
  -7   5  -4    5.08    2.93   0 
  -7   6  -4    5.67    2.98   0 
  -7   7  -4    0.80    2.91   0 
  -6  -4  16    0.81    3.64   0 
  -6  -4  17    8.19    3.40   0 
  -6  -4  18    3.05    3.47   0 
  -6   0   0  147.39    4.60   0 
  -5  -4  14   90.48    3.91   0 
  -5  -4  15    5.42    3.02   0 
  -5  -4  16   35.68    3.12   0 
  -5  -4  19    2.08    2.98   0 
  -5   8  -5    6.02    2.90   0 
  -4  -4  14   39.76    3.18   0 
  -4  -4  15   98.35    3.31   0 
  -4  -4  16   15.20    3.04   0 
  -4  -4  18    1.75    3.05   0 
  -4  -4  20    2.97    3.01   0 
  -4   9  -5    7.69    2.36   0 
  -3  -4  15    4.17    3.12   0 
  -3  -4  16   67.51    3.20   0 
  -3  -4  17   12.69    2.90   0 
  -3  -4  18   69.80    3.12   0 
  -3  -3   7   -0.00    3.13   0 
  -3   6  -6   95.84    2.91   0 
  -3   9  -5   10.10    2.94   0 
  -1  -3   9  352.55    4.37   0 
  -1   4  -5  480.95    4.49   0 
   0  -3  11   11.72    3.22   0 
   0  -3  12  418.69    3.68   0 
   0  -3  19    5.95    2.26   0 
   0  -3  20   18.86    3.02   0 
   0   2  -3   34.98    3.08   0 
   1   8  -4    1.46    3.35   0 
   2  -2  12  106.79    3.24   0 
   2  -2  17    1.88    2.38   0 
   2  -2  18   92.33    3.28   0 
   2  -2  19   -1.50    2.85   0 
   2   3  -2  381.82    5.64   0 
   2   8  -3    1.54    3.13   0 
   3  -1  20   38.76    3.03   0 
   3   0   5   -0.62    3.42   0 
   3   6  -2   12.47    3.91   0 
   4   0   9    0.39    3.21   0 
   4   0  19   -2.55    2.86   0 
   4   7   0    7.16    4.02   0 
   5   1  11    5.17    3.67   0 
   5   1  12  119.47    3.76   0 
   5   1  17    6.92    2.97   0 
   6   3  11   38.78    3.91   0 
  -9  -1   6  128.27    7.52   0 
  -9   4  -1    5.16    3.59   0 
  -7   0   1    1.65    4.39   0 
  -6  -4  15   15.87    3.52   0 
  -6   4  -4    9.47    3.12   0 
  -6   8  -4    0.67    2.82   0 
  -5  -4  13   11.13    3.79   0 
  -5  -3   7   43.41    4.51   0 
  -5   1  -2   25.17    3.63   0 
  -5   3  -4    7.95    3.34   0 
  -5   5  -5  189.59    3.95   0 
  -5   6  -5    3.39    2.93   0 
  -5   7  -5   28.12    3.16   0 
  -4  -4  13   37.95    3.17   0 
  -4   4  -5   13.45    3.04   0 
  -4   8  -5   57.77    3.17   0 
  -3  -4  13  109.64    3.70   0 
  -3  -4  14   74.52    3.17   0 
  -2  -4  17   24.98    3.06   0 
  -2   0  -1    0.51    3.99   0 
  -1   8  -5   54.94    3.27   0 
   0  -3  21   17.76    2.32   0 
   0   6  -5  161.42    3.35   0 
   0  10  -3    2.96    3.12   0 
   1  -2   7   11.55    2.95   0 
   1   3  -3    0.31    3.40   0 
   1   5  -4  290.73    4.43   0 
   1   7  -4   12.79    3.20   0 
   2  -2  11  188.44    3.13   0 
   2  -2  20   61.34    3.09   0 
   2   9  -2    4.80    3.33   0 
   2  10  -1    0.80    3.15   0 
   3  -1   9    8.93    2.87   0 
   4   1   5    0.04    3.67   0 
   4   6   0   56.46    4.53   0 
   5   1  10   19.93    3.87   0 
   5   1  18   26.15    2.96   0 
   5   5   3  120.36    9.41   0 
   6   3  10  107.44    4.47   0 
  -9  -3  13   -1.58    4.70   0 
  -9   1   2   11.73    3.47   0 
  -7  -4  16    0.90    3.89   0 
  -7   4  -3   -1.29    3.18   0 
  -6  -4  14   28.48    3.59   0 
  -6   5  -4   66.99    3.44   0 
  -6   7  -4    3.11    2.91   0 
  -5   2  -3   32.35    3.38   0 
  -4  -4  12   17.50    3.48   0 
  -4   7  -5    1.61    2.87   0 
  -4   9  -4    2.82    2.85   0 
  -3  -4  12   80.17    3.76   0 
  -3  -2   3    9.98    5.11   0 
  -3   0  -1    1.92    4.14   0 
  -3   4  -5   15.43    2.59   0 
  -3   8  -5    6.93    2.42   0 
  -2  -4  14   12.36    3.20   0 
  -2  -4  16    2.51    2.43   0 
  -2  -4  18   33.68    3.00   0 
  -2  -4  19    9.63    2.87   0 
  -2  -4  20    5.86    2.82   0 
  -2  -3   7   42.87    3.43   0 
  -2   4  -5  550.80    4.17   0 
  -2   8  -5   35.05    2.66   0 
  -1  -3   8   19.34    3.28   0 
  -1  -2   4    4.54    3.33   0 
  -1   5  -5   95.33    3.61   0 
  -1   6  -5   26.33    3.08   0 
   0  -3  10  309.50    3.58   0 
   0  -2   5  510.52    5.00   0 
   1  -3  14   16.86    3.02   0 
   1  -3  15   24.27    2.89   0 
   1  -3  16   24.57    2.92   0 
   1  -3  17    4.35    2.90   0 
   1  -3  18   57.12    3.01   0 
   1  10  -2    2.32    3.17   0 
   2  -2  10   46.22    2.85   0 
   2  -2  21    2.80    2.32   0 
   2  -1   5   11.84    3.17   0 
   2   6  -3   78.48    3.64   0 
   3  -1   8   43.31    3.57   0 
   3   4  -1  528.45    7.22   0 
   3   8  -1   35.53    3.91   0 
   4   0   8   12.14    3.29   0 
   4   8   1   32.03    4.09   0 
   5   1   9  124.77    4.14   0 
   5   2   6  131.15    4.67   0 
   5   7   3   47.79    5.55   0 
   6   3   9   13.97    4.41   0 
   6   4   7  101.75    6.17   0 
 -10   1   4   74.95    4.74   0 
  -9   2   1    4.54    3.40   0 
  -9   3   0    5.72    2.99   0 
  -9   5  -1   37.57    3.23   0 
  -8   5  -2   21.36    3.02   0 
  -7   5  -3   74.42    3.23   0 
  -7   7  -3   54.11    3.14   0 
  -6  -4  13   35.41    3.71   0 
  -6   3  -3   15.92    3.48   0 
  -6   6  -4    7.08    3.02   0 
  -5  -4  12    9.85    3.28   0 
  -5   8  -4   -0.91    3.01   0 
  -4   3  -4  462.70    4.61   0 
  -4   6  -5  258.05    3.62   0 
  -3   5  -5  226.16    3.59   0 
  -3   6  -5   48.40    3.10   0 
  -3   7  -5  100.50    3.35   0 
  -2  -4  13  127.54    3.49   0 
  -2   5  -5  116.21    3.37   0 
  -2   6  -5   67.96    3.18   0 
  -2   7  -5   21.26    3.15   0 
  -2   9  -4    3.16    3.01   0 
  -1  -4  16   42.66    3.16   0 
  -1  -4  17    4.53    2.91   0 
  -1  -4  18   35.59    3.07   0 
  -1   3  -4  103.40    2.88   0 
  -1  10  -3   13.02    2.64   0 
   0  -3   9   13.92    3.00   0 
   0  -1   2 1260.67    9.89   0 
   0   4  -4  389.62    4.76   0 
   1  -3  12    8.40    2.83   0 
   1  -3  13  121.65    2.77   0 
   1  -3  19    7.91    2.20   0 
   1  -3  20   29.54    2.79   0 
   2  -2   9  211.90    3.84   0 
   3   9   0   -0.87    3.52   0 
   4  -1  14  100.54    3.47   0 
   4  -1  15   11.31    2.99   0 
   4  -1  16   18.39    2.89   0 
   4   9   2    0.97    3.48   0 
   5   3   4    8.05    6.18   0 
   5   6   3   53.90    7.22   0 
   5   8   4    1.26    4.94   0 
   6   2  13    4.83    3.52   0 
   6   2  14   79.47    3.89   0 
   6   2  15   -0.29    3.55   0 
   6   2  16   27.56    3.61   0 
 -10   3   2   36.91    3.82   0 
  -9   0   4  145.49    5.74   0 
  -8  -3  10    2.39    5.20   0 
  -8   1   1   -0.82    4.15   0 
  -8   3  -1    4.23    3.32   0 
  -8   6  -2    3.18    2.81   0 
  -7  -4  14   16.74    3.97   0 
  -7   3  -2    1.01    3.00   0 
  -7   6  -3   -2.57    2.50   0 
  -6   1  -1   -2.00    3.32   0 
  -6   2  -2    8.52    3.67   0 
  -6   8  -3    8.24    2.89   0 
  -5  -4  11   68.99    4.03   0 
  -5   4  -4   16.82    2.56   0 
  -5   7  -4   -0.83    2.96   0 
  -4  -4  11   52.88    3.42   0 
  -4  -3   6   26.09    4.15   0 
  -4  -2   3   36.58    7.37   0 
  -4   1  -2  482.61    5.47   0 
  -4   2  -3   65.61    3.51   0 
  -4   8  -4    2.53    2.85   0 
  -3  -4  11   46.09    3.35   0 
  -3  -3   6  669.80    6.30   0 
  -3   3  -4  627.07    5.01   0 
  -2  -4  12   39.28    3.34   0 
  -2   3  -4   93.32    3.35   0 
  -1  -4  14  167.94    3.55   0 
  -1  -4  15   17.26    3.06   0 
  -1  -4  19   24.76    2.39   0 
  -1  -4  20   13.40    2.94   0 
  -1  -3   7   43.25    3.51   0 
  -1   1  -2 2690.69   12.00   0 
  -1   2  -3  347.48    4.71   0 
  -1   8  -4    1.83    3.17   0 
   0   7  -4   11.80    3.36   0 
   0   9  -3   33.89    3.20   0 
   0  10  -2    9.10    3.12   0 
   1  -3  11  175.79    3.49   0 
   1  -3  21    1.72    2.23   0 
   1  -2   6  447.41    4.35   0 
   1  -1   3   18.46    3.74   0 
   1   8  -3  177.41    3.84   0 
   1  10  -1   14.56    3.78   0 
   2   8  -2    3.31    3.15   0 
   2  10   0    3.11    3.50   0 
   3  -2  13    7.80    3.16   0 
   3  -2  14  203.28    3.78   0 
   3  -2  15   15.25    3.11   0 
   3  -2  16   67.36    3.20   0 
   3  -2  17   29.82    3.07   0 
   3  -2  18    8.73    2.90   0 
   3  -1   7    3.63    3.35   0 
   3   7  -1   19.89    3.89   0 
   4  -1  12  470.22    4.42   0 
   4  -1  13    7.06    3.23   0 
   4  -1  17   14.96    2.52   0 
   4  -1  18    2.40    2.80   0 
   4  -1  19    6.80    2.81   0 
   4   0   7   -2.43    3.63   0 
   4   4   1  391.13    9.42   0 
   5   0  14   48.87    3.81   0 
   5   0  16   10.30    3.07   0 
   5   1   8   36.73    3.86   0 
   6   2  12  127.91    4.02   0 
 -10   0   6   24.33    4.95   0 
 -10   2   3    2.20    3.42   0 
  -9   4   0   51.75    3.28   0 
  -8   2   0    5.34    3.27   0 
  -7   1   0   46.46    3.81   0 
  -7   2  -1    0.77    3.68   0 
  -6  -4  12   57.27    3.80   0 
  -6  -3   7  156.34    6.03   0 
  -6   4  -3  103.91    3.54   0 
  -5   5  -4    2.41    3.13   0 
  -5   6  -4   21.55    3.02   0 
  -4   4  -4   12.10    3.12   0 
  -4   9  -3    6.24    2.81   0 
  -3   8  -4    5.12    3.04   0 
  -2  -4  11  142.44    3.67   0 
  -2  -3   6  163.18    4.23   0 
  -2  -2   3  128.35    4.95   0 
  -2   8  -4    8.28    3.02   0 
  -1  -4  13   20.54    3.13   0 
  -1   9  -3   13.39    3.19   0 
  -1  10  -2    2.58    2.94   0 
   0  -3   8  159.26    3.67   0 
   0   6  -4    4.18    3.36   0 
   1  -3  10   62.64    3.01   0 
   1   7  -3    2.72    3.65   0 
   1   9  -2    8.92    3.23   0 
   2  -2   8   66.71    3.23   0 
   3  -2  12  214.30    3.71   0 
   3  -2  19   10.09    2.40   0 
   3  -2  20    1.40    2.79   0 
   4  -1  11    1.25    3.41   0 
   4   7   1   54.83    4.73   0 
   5   0  12  146.58    3.95   0 
   5   0  13    1.27    3.07   0 
   5   0  17   -1.15    3.04   0 
   5   0  18   -1.53    2.89   0 
   6   2  11    6.14    3.70   0 
   6   3   8   67.72    4.43   0 
  -9  -3  12   13.32    5.46   0 
  -9   5   0    7.12    3.03   0 
  -8   4  -1   71.24    3.52   0 
  -7  -4  13   20.05    3.59   0 
  -7   4  -2   56.26    3.14   0 
  -7   7  -2    4.67    3.05   0 
  -6   5  -3    2.22    3.18   0 
  -6   6  -3   29.14    3.18   0 
  -5   3  -3   74.13    3.50   0 
  -5   8  -3   11.18    3.00   0 
  -4  -4  10  107.18    3.70   0 
  -4   5  -4  132.27    3.40   0 
  -4   6  -4   25.41    3.28   0 
  -4   7  -4    6.44    2.43   0 
  -3  -4  10  123.78    3.69   0 
  -3   1  -2 2107.44    9.40   0 
  -3   2  -3    0.44    3.08   0 
  -3   4  -4  229.04    3.86   0 
  -3   7  -4    3.57    2.97   0 
  -3   9  -3   29.38    3.19   0 
  -2   1  -2 1038.97    7.34   0 
  -2   2  -3   16.81    3.14   0 
  -2   7  -4   17.20    3.21   0 
  -2   9  -3   33.68    3.15   0 
  -1  -4  12  156.14    3.59   0 
   0  -4  15   24.16    3.13   0 
   0  -4  16    3.01    2.85   0 
   0  -4  17   76.66    2.74   0 
   0  -4  18   17.54    2.88   0 
   0  -4  20   31.34    2.98   0 
   0   8  -3   10.24    3.26   0 
   2  -3  14   76.22    3.20   0 
   2  -3  15   25.45    2.97   0 
   2  -3  16   48.96    2.49   0 
   2  -3  17   31.69    2.62   0 
   2  -3  18   40.79    2.95   0 
   2  -3  19   25.17    2.99   0 
   2  -3  20    9.57    2.94   0 
   2   0   2 1400.66   10.08   0 
   2   4  -2  522.25    5.87   0 
   2   7  -2    5.49    3.14   0 
   3  -2  11  156.13    3.59   0 
   3   5  -1   23.05    3.62   0 
   3   6  -1  214.12    4.68   0 
   3   8   0    5.27    3.75   0 
   4  -1  10  542.93    4.88   0 
   5   0  11    2.48    3.57   0 
   6   2  10   92.33    4.04   0 
  -9   1   3    6.92    3.96   0 
  -9   3   1   15.48    3.07   0 
  -8  -4  15    5.17    3.73   0 
  -8   6  -1   42.29    3.13   0 
  -7   5  -2   10.72    3.08   0 
  -7   6  -2    5.30    3.16   0 
  -6  -4  11    4.65    3.45   0 
  -6   8  -2   -1.59    2.77   0 
  -5  -4  10   32.66    3.72   0 
  -5  -3   6  197.05    5.85   0 
  -5   0   0 1334.29    9.20   0 
  -4   8  -3   45.20    3.29   0 
  -3   5  -4  100.14    3.34   0 
  -3   6  -4    4.72    3.10   0 
  -2  -4  10  122.24    3.53   0 
  -2   4  -4  260.54    3.42   0 
  -2   6  -4   71.52    3.16   0 
  -1  -4  11    2.50    3.24   0 
  -1   6  -4    6.27    3.28   0 
   0  -4  13   17.23    3.14   0 
   0  -4  14   62.65    2.66   0 
   0  -2   4 2312.42    9.36   0 
   0   9  -2    6.32    3.06   0 
   0  10  -1   -1.48    2.98   0 
   1  -3   9  141.55    3.55   0 
   1   5  -3   15.17    3.49   0 
   1   8  -2    3.05    3.72   0 
   2  -3  12  196.70    3.66   0 
   2  -3  13  116.82    2.88   0 
   2  -2   7  118.44    3.37   0 
   2   5  -2    2.51    3.62   0 
   2  10   1    5.80    3.81   0 
   3  -2  10  334.31    4.11   0 
   3  -1   6   35.89    3.53   0 
   4   0   6   94.29    4.04   0 
   4   8   2    3.71    4.13   0 
   4   9   3    5.38    3.55   0 
   5   0  10  184.50    4.22   0 
   5   1   7    0.56    3.49   0 
   5   2   5    0.89    4.36   0 
   6   1  14   17.94    3.70   0 
   6   1  15    6.61    3.66   0 
   6   1  16    4.19    2.96   0 
 -10   3   3    3.41    3.49   0 
  -9   2   2   35.08    3.56   0 
  -8   0   3    0.59    4.06   0 
  -8   3   0   58.48    3.98   0 
  -7  -4  12    3.91    3.87   0 
  -7   3  -1  182.61    4.27   0 
  -6   3  -2  270.30    4.35   0 
  -5  -5  17    7.21    3.45   0 
  -5  -5  18    4.71    2.95   0 
  -5   2  -2  482.26    4.97   0 
  -5   4  -3    2.92    3.38   0 
  -5   6  -3   49.89    3.20   0 
  -5   7  -3   35.79    2.72   0 
  -4  -5  18   14.42    2.92   0 
  -4  -5  19    2.36    2.90   0 
  -4  -4   9   67.13    3.81   0 
  -4   3  -3   22.33    3.40   0 
  -4   9  -2    6.50    2.77   0 
  -3  -5  18   -0.35    2.98   0 
  -3  -4   9   40.23    3.34   0 
  -3   8  -3   20.97    3.07   0 
  -2   5  -4   68.95    2.75   0 
  -2   8  -3   26.46    3.24   0 
  -1  -4  10  186.51    3.75   0 
  -1  -3   6   89.30    3.54   0 
  -1   8  -3   30.12    3.22   0 
  -1   9  -2    7.04    3.18   0 
  -1  10  -1    8.02    2.95   0 
   0  -4  12    4.62    3.06   0 
   0  -3   7   21.90    3.05   0 
   1  -4  18   42.64    2.93   0 
   1  -2   5   30.59    3.08   0 
   1   9  -1    3.16    3.16   0 
   1  10   0    1.41    3.00   0 
   2  -3  11   35.38    3.06   0 
   2   8  -1    5.03    3.25   0 
   3   3   0  127.61    6.79   0 
   4  -1   9    6.45    3.19   0 
   4   5   1  160.61    6.40   0 
   4   6   1   42.34    4.91   0 
   6   1  13   19.67    3.22   0 
   6   2   9   44.95    3.69   0 
   6   3   7    2.57    4.44   0 
   6   4   6   -1.95    6.31   0 
 -10   1   5    4.00    3.83   0 
 -10   2   4    9.96    3.74   0 
  -9   4   1    3.50    3.02   0 
  -9   5   1   29.18    3.09   0 
  -7   7  -1   14.24    3.03   0 
  -6   7  -2    2.80    2.37   0 
  -5  -5  16    3.11    3.15   0 
  -5   1  -1    3.28    3.11   0 
  -5   5  -3  122.61    3.57   0 
  -5   8  -2    1.95    2.82   0 
  -4  -5  15    0.78    3.02   0 
  -4   7  -3   18.58    2.86   0 
  -3  -5  16   -1.01    3.02   0 
  -3   9  -2    1.08    3.06   0 
  -2  -5  17   11.04    3.03   0 
  -2  -5  18   14.13    2.85   0 
  -2  -5  19   10.55    2.84   0 
  -2  -4   9   20.23    3.23   0 
  -2   9  -2   -0.69    2.97   0 
  -2  10  -1    5.26    3.02   0 
  -1  -2   3  966.22    7.72   0 
   0  -4  11  293.71    4.02   0 
   1  -4  14  128.88    3.48   0 
   1  -4  15   38.78    2.82   0 
   1  -4  16   70.24    2.67   0 
   1  -4  17   30.05    2.52   0 
   1  -4  19   42.73    2.49   0 
   1  -4  20   20.50    2.71   0 
   1  -3   8  275.94    3.75   0 
   3  -2   9   14.31    3.35   0 
   3   7   0   48.05    4.40   0 
   4  -2  14  161.63    3.65   0 
   4  -2  15    6.22    3.08   0 
   4  -2  16  116.10    3.52   0 
   4  -2  17    2.42    3.00   0 
   4  -2  18   50.37    2.91   0 
   4  -2  19    3.92    2.93   0 
   5  -1  15    4.20    3.01   0 
   5  -1  16   67.25    3.26   0 
   5  -1  17   -0.12    2.85   0 
   5  -1  18   33.83    2.98   0 
   5   0   9   -1.35    3.21   0 
   5   7   4    1.76    5.26   0 
   5   8   5    7.52    5.07   0 
   6   1  12   48.36    3.29   0 
   7   4  12   11.59    3.99   0 
   7   5  11   19.34    4.89   0 
 -10   4   3   12.62    3.06   0 
  -8   1   2  189.59    4.69   0 
  -8   2   1  152.64    4.26   0 
  -8   4   0    7.55    3.03   0 
  -8   5   0   19.95    3.08   0 
  -8   6   0    4.87    2.83   0 
  -7   0   2   46.45    4.25   0 
  -7   2   0  279.83    4.75   0 
  -7   4  -1   33.19    3.09   0 
  -7   6  -1   -0.67    3.10   0 
  -6  -5  17    2.74    3.45   0 
  -6  -4  10   63.42    4.18   0 
  -6   0   1    2.11    3.93   0 
  -6   2  -1   57.51    3.51   0 
  -6   4  -2   25.20    2.60   0 
  -6   5  -2   21.65    3.10   0 
  -6   6  -2    8.09    2.49   0 
  -6   8  -1   19.98    3.04   0 
  -5  -5  15   48.44    3.30   0 
  -5  -4   9   93.60    4.10   0 
  -4  -5  14   14.73    3.12   0 
  -4   4  -3  393.66    4.43   0 
  -4   6  -3  101.67    3.57   0 
  -3  -3   5    6.22    3.70   0 
  -3   3  -3   35.91    3.27   0 
  -3   7  -3   92.58    3.27   0 
  -2  -5  15    3.35    2.95   0 
  -2  -3   5   98.92    4.19   0 
  -2   3  -3   49.91    3.20   0 
  -2   7  -3  107.40    3.57   0 
  -1  -5  18    0.98    2.84   0 
  -1  -5  19   15.11    2.94   0 
  -1  -4   9  214.61    3.91   0 
  -1   3  -3   22.83    2.66   0 
   0   4  -3   18.59    2.88   0 
   0   5  -3  489.16    4.80   0 
   0   6  -3    3.08    3.31   0 
   0   8  -2    4.45    3.29   0 
   0   9  -1   28.21    3.16   0 
   0  10   0    1.82    2.94   0 
   1  -4  13    0.60    2.98   0 
   1   3  -2  861.89    6.71   0 
   1   7  -2   17.67    3.19   0 
   2  -3  10  338.92    3.98   0 
   2  -2   6  156.61    3.60   0 
   2   7  -1  276.18    4.73   0 
   3  -3  14   84.72    3.30   0 
   3  -3  15   27.08    3.09   0 
   3  -3  17    4.71    2.35   0 
   3  -3  18   40.52    2.52   0 
   3  -3  19   -1.91    2.88   0 
   3   9   2    0.59    3.45   0 
   4  -2  13   11.68    3.18   0 
   4  -1   8  211.71    3.98   0 
   5  -1  13    1.91    3.15   0 
   5   1   6    2.49    3.51   0 
   6   1  11    6.94    3.15   0 
   6   2   8   31.08    4.19   0 
   7   3  13   -2.27    3.69   0 
   7   4  11   43.34    4.72   0 
  -9   3   2    4.67    2.97   0 
  -8  -4  13    1.30    4.87   0 
  -7   1   1    2.22    3.65   0 
  -7   5  -1   72.14    2.84   0 
  -6   1   0  315.40    4.77   0 
  -5  -5  14   12.79    3.48   0 
  -5   3  -2  110.97    3.64   0 
  -5   7  -2    3.18    3.01   0 
  -4  -5  13    9.39    3.57   0 
  -4  -3   5   52.81    5.07   0 
  -4   2  -2  201.81    4.04   0 
  -4   5  -3   88.79    2.68   0 
  -4   8  -2    4.83    2.37   0 
  -4   9  -1    3.83    2.88   0 
  -3  -4   8   69.60    3.80   0 
  -3   6  -3   26.64    3.17   0 
  -3   8  -2    0.86    2.95   0 
  -1  -5  15   75.53    3.26   0 
  -1  -5  16   10.48    3.06   0 
  -1  -5  17   59.37    2.48   0 
  -1  -1   1   17.83    5.36   0 
  -1   8  -2    2.61    3.11   0 
  -1  10   0   -2.79    2.95   0 
   0  -4  10   92.49    3.51   0 
   0  -3   6  247.03    4.19   0 
   1  -4  12   83.87    3.11   0 
   1   9   0    3.30    3.70   0 
   1  10   1   11.28    2.91   0 
   3  -3  13   64.74    3.27   0 
   3  -2   8 1094.19    5.95   0 
   3  -1   5    0.60    3.24   0 
   3   0   3    0.57    3.73   0 
   3   8   1   62.85    4.02   0 
   4   0   5    0.91    3.71   0 
   4   7   2    6.46    4.46   0 
   4   9   4    4.56    3.96   0 
   5  -1  12  134.64    3.45   0 
   6   0  15    3.55    2.98   0 
   6   0  16  124.32    3.63   0 
   6   1  10  141.42    4.40   0 
   7   3  12   34.29    4.13   0 
 -10   0   7    3.22    4.31   0 
 -10   3   4   12.10    3.61   0 
  -9   0   5    1.97    4.03   0 
  -9   4   2   20.01    3.12   0 
  -9   5   2    5.04    3.43   0 
  -8  -1   5    1.21    5.38   0 
  -8   3   1    4.95    3.73   0 
  -7   7   0   -2.52    3.02   0 
  -6  -5  15   19.42    3.56   0 
  -6   7  -1    5.40    3.00   0 
  -5   6  -2   56.60    3.29   0 
  -5   8  -1   18.28    2.87   0 
  -5   9   0   -1.51    2.80   0 
  -4  -4   8  108.88    4.04   0 
  -4   7  -2    2.12    2.88   0 
  -3  -1   1    4.55    7.72   0 
  -3   4  -3   65.38    2.75   0 
  -3   5  -3  143.21    3.49   0 
  -3   9  -1    8.45    3.00   0 
  -2   4  -3  192.22    3.67   0 
  -2   5  -3   86.95    3.42   0 
  -2   6  -3  188.06    3.10   0 
  -2   8  -2    6.48    2.58   0 
  -2   9  -1   37.21    3.33   0 
  -2  10   0    2.69    2.24   0 
  -1  -5  14    4.93    3.14   0 
  -1   4  -3  414.63    4.06   0 
  -1   9  -1    4.57    2.59   0 
   0  -5  17   10.31    2.92   0 
   0  -5  18   20.11    2.94   0 
   0   7  -2    4.60    3.28   0 
   1  -4  11   35.95    3.09   0 
   1  -3   7   88.98    3.31   0 
   1   6  -2    3.15    3.31   0 
   2  -4  15   54.85    3.08   0 
   2  -4  16   44.55    3.03   0 
   2  -4  17    4.63    2.26   0 
   2  -4  18   10.28    2.35   0 
   2  -4  19   -0.09    2.12   0 
   2  -3   9    0.90    2.42   0 
   2   3  -1  211.73    5.31   0 
   2   8   0    2.48    3.26   0 
   2   9   1   42.50    3.43   0 
   3  -3  12   26.64    3.20   0 
   3   6   0    4.75    4.17   0 
   4  -2  11   14.04    2.67   0 
   4  -1   7   43.60    3.55   0 
   4   8   3   53.18    4.32   0 
   5  -1  11    9.36    3.22   0 
   6   0  13    1.15    3.15   0 
   6   0  14  137.14    3.58   0 
   7   5  10    3.73    5.42   0 
 -10   4   4    5.65    3.40   0 
  -9   1   4   21.67    4.08   0 
  -9   2   3    4.52    2.95   0 
  -8   6   1   16.71    3.06   0 
  -7   3   0   10.52    3.17   0 
  -7   6   0    7.28    3.12   0 
  -6  -5  14   -0.24    3.91   0 
  -6   3  -1   14.81    3.45   0 
  -6   6  -1  105.68    3.44   0 
  -5  -5  13   33.43    3.22   0 
  -5   4  -2  380.25    4.13   0 
  -5   5  -2   10.50    3.15   0 
  -4  -5  12   33.70    3.62   0 
  -4   0   0  819.64    7.60   0 
  -4   1  -1   25.97    3.38   0 
  -3  -5  12   12.42    3.15   0 
  -3   2  -2  330.87    4.42   0 
  -3   7  -2   21.89    3.11   0 
  -2  -5  12   52.96    3.23   0 
  -1  -5  13   92.59    3.37   0 
  -1  -4   8   56.16    3.59   0 
   0  -5  15    3.93    2.92   0 
   0  -5  16   22.91    3.16   0 
   0  -4   9  475.64    4.53   0 
   0  10   1   -1.38    3.07   0 
   1  -2   4  768.88    5.75   0 
   1   4  -2   35.27    3.48   0 
   1   5  -2   22.28    3.47   0 
   1  10   2   -1.90    3.77   0 
   2  -4  14    3.42    2.76   0 
   2   6  -1    2.40    3.84   0 
   3  -3  11   23.30    3.23   0 
   3  -2   7   34.19    3.54   0 
   4  -2  10   13.30    3.30   0 
   5  -1  10   21.63    3.27   0 
   6   0  12  120.63    3.68   0 
   6   1   9   15.49    3.86   0 
   6   2   7   19.19    4.29   0 
   6   3   6  187.27    6.29   0 
   7   2  13    6.54    3.61   0 
   7   2  14   11.91    3.01   0 
   7   3  11    6.70    4.11   0 
   7   4  10   14.95    4.58   0 
 -10  -1   9    1.71    5.11   0 
 -10   1   6   28.96    4.18   0 
 -10   2   5   25.41    3.58   0 
  -8   4   1   57.32    3.36   0 
  -8   5   1    1.84    3.04   0 
  -7   4   0    0.86    3.22   0 
  -7   5   0    7.20    3.08   0 
  -6  -4   9    5.42    4.34   0 
  -6   4  -1    5.11    3.16   0 
  -6   5  -1   14.85    3.21   0 
  -5  -5  12   82.78    4.34   0 
  -5  -4   8    3.32    4.46   0 
  -5   2  -1  200.24    4.18   0 
  -5   7  -1   32.83    3.19   0 
  -4   3  -2  259.39    4.25   0 
  -4   6  -2   35.36    3.13   0 
  -4   8  -1   27.13    2.57   0 
  -4   9   0    7.23    2.91   0 
  -3  -5  11   94.01    3.87   0 
  -2   2  -2  661.97    5.51   0 
  -2   7  -2    7.71    3.28   0 
  -1   2  -2  303.85    4.25   0 
  -1   7  -2    9.19    3.32   0 
  -1  10   1   14.93    2.98   0 
   0  -5  14   23.04    3.10   0 
   0  -2   3   33.84    3.68   0 
   0   8  -1   14.99    3.21   0 
   0   9   0    5.87    3.00   0 
   1  -4  10  288.98    3.80   0 
   1  -1   2 2788.48   12.57   0 
   1   7  -1    3.00    3.56   0 
   2  -4  13  214.98    3.12   0 
   2  -3   8  615.88    4.36   0 
   2  -2   5   13.23    3.11   0 
   2  -1   3  538.36    5.61   0 
   2   5  -1  581.58    5.72   0 
   3  -3  10   58.58    3.14   0 
   3   4   0   46.31    5.03   0 
   3   5   0  202.23    4.95   0 
   3   9   3   32.36    3.81   0 
   4  -3  15   40.16    3.15   0 
   4  -3  16   33.64    3.13   0 
   4  -3  17   37.72    3.11   0 
   4   1   3  102.30    4.80   0 
   5  -2  17    6.26    2.94   0 
   5   0   7   -0.91    3.27   0 
   6   0  11    1.14    3.62   0 
   7   2  12    3.10    3.46   0 
  -9   3   3   59.42    3.37   0 
  -8   2   2    3.51    3.46   0 
  -7  -5  15    7.19    3.80   0 
  -7   7   1   32.07    3.17   0 
  -6  -5  13   18.04    3.98   0 
  -6   7   0    6.84    3.05   0 
  -5   8   0    2.21    2.81   0 
  -5   9   1   11.24    2.86   0 
  -4  -5  11  132.32    4.39   0 
  -4   4  -2  157.90    3.86   0 
  -4   5  -2   36.67    2.99   0 
  -3  -4   7  168.19    4.15   0 
  -3   6  -2   13.87    3.09   0 
  -3   8  -1   49.97    2.69   0 
  -3   9   0    0.63    2.37   0 
  -2  -5  11    3.92    3.07   0 
  -2  -4   7   96.65    3.99   0 
  -2   8  -1   10.31    3.07   0 
  -2   9   0    4.63    3.16   0 
  -1   8  -1   60.92    3.44   0 
  -1   9   0    3.88    3.18   0 
   0  -5  13    6.91    3.03   0 
   0  -4   8  112.05    3.58   0 
   0   3  -2  717.59    5.86   0 
   1  -5  16    3.90    3.09   0 
   1  -5  17   10.22    2.82   0 
   1  -5  18   10.98    2.40   0 
   1  -5  19    0.21    2.36   0 
   1  -3   6  404.54    4.31   0 
   1   8   0    6.10    3.66   0 
   1   9   1    5.10    3.14   0 
   2  -4  12   17.39    2.55   0 
   2   4  -1   33.42    3.95   0 
   2   7   0   10.68    3.88   0 
   2   9   2    4.35    3.64   0 
   3  -4  16   43.93    3.07   0 
   3  -4  17   16.81    2.86   0 
   3  -4  18    1.21    2.82   0 
   3   7   1   87.47    4.25   0 
   3   8   2    3.56    3.66   0 
   4  -3  14   96.16    3.32   0 
   4  -2   9    2.65    3.34   0 
   4  -1   6  801.28    5.66   0 
   4   9   5    4.11    3.92   0 
   5  -2  13   13.62    3.04   0 
   5  -2  14   18.48    3.07   0 
   5  -1   9  115.16    3.74   0 
   5   1   5   12.37    3.57   0 
   6  -1  15    6.42    3.42   0 
   6  -1  16    3.79    3.02   0 
   6   1   8  377.40    5.15   0 
   7   3  10   15.39    4.03   0 
 -10   3   5    3.42    2.99   0 
  -9  -2   9    8.76    7.48   0 
  -9  -1   7    1.58    4.97   0 
  -9   4   3   21.21    3.16   0 
  -9   5   3   20.65    3.02   0 
  -8   0   4   47.55    4.06   0 
  -8   1   3    5.26    3.59   0 
  -8   6   2   -1.52    2.83   0 
  -7  -1   4   57.36    5.37   0 
  -7   2   1    9.32    3.11   0 
  -6   2   0  340.21    4.45   0 
  -6   8   1   18.79    2.37   0 
  -5   1   0  147.81    4.31   0 
  -5   3  -1   94.89    3.61   0 
  -5   6  -1   83.44    2.90   0 
  -4   7  -1   40.34    3.04   0 
  -4   9   1   25.98    3.12   0 
  -3  -6  17    2.58    2.81   0 
  -3  -6  18   10.30    3.03   0 
  -3   1  -1  151.72    4.17   0 
  -3   3  -2  508.70    4.62   0 
  -3   5  -2   36.14    3.15   0 
  -2  -6  18    4.14    2.85   0 
  -2   6  -2    5.26    2.96   0 
  -1  -5  11  128.66    3.44   0 
  -1  -4   7  216.67    4.08   0 
   0  -5  12  227.73    3.79   0 
   0   4  -2  945.25    6.28   0 
   0   5  -2    5.76    3.50   0 
   0  10   2    5.04    3.03   0 
   1  -5  15   38.57    3.03   0 
   1  -4   9    9.34    3.11   0 
   1  10   3   10.24    3.62   0 
   2  -4  11  136.40    3.40   0 
   2  -3   7   20.85    3.03   0 
   2   8   1   11.63    3.80   0 
   3  -4  14   56.40    3.04   0 
   3  -4  15   83.30    3.18   0 
   3  -3   9  168.21    3.54   0 
   3  -2   6  777.53    5.52   0 
   3  -1   4  499.23    5.06   0 
   4  -3  13   12.82    2.60   0 
   4   0   4   58.03    3.97   0 
   4   6   2   36.48    4.70   0 
   5  -2  12  154.50    3.65   0 
   5   8   6    5.55    4.64   0 
   6  -1  14   17.46    3.08   0 
   6   0  10   25.78    3.47   0 
   7   1  13    3.71    3.54   0 
   7   1  14   33.35    3.21   0 
   7   2  11   41.88    3.63   0 
   7   4   9    4.10    4.85   0 
  -9   2   4   86.46    3.82   0 
  -8   3   2   86.12    3.75   0 
  -8   4   2   13.98    3.19   0 
  -8   5   2   13.13    3.05   0 
  -7  -4  10    1.92    4.98   0 
  -7   6   1   20.63    2.52   0 
  -6  -3   6    7.34    7.07   0 
  -6  -1   3    3.31    5.33   0 
  -6   6   0   16.73    2.49   0 
  -5  -5  11   29.99    4.01   0 
  -5   4  -1    5.91    3.08   0 
  -5   5  -1   84.52    2.91   0 
  -5   7   0    6.05    2.90   0 
  -4  -6  16    8.14    3.46   0 
  -4  -6  17   15.77    3.03   0 
  -4  -4   7   -0.48    3.48   0 
  -4   8   0    0.67    2.42   0 
  -3  -6  16    8.44    3.14   0 
  -3  -5  10   12.24    3.12   0 
  -3   4  -2  171.62    3.50   0 
  -3   7  -1   68.67    3.08   0 
  -2  -6  16    6.66    3.01   0 
  -2  -5  10   71.57    3.31   0 
  -2   3  -2   22.82    3.01   0 
  -2   5  -2   45.91    3.02   0 
  -2  10   2    7.62    2.74   0 
  -1  -6  18    9.63    2.90   0 
  -1   3  -2  451.63    4.68   0 
  -1   5  -2  177.36    3.89   0 
  -1  10   2    1.37    2.94   0 
   0   7  -1   63.21    3.37   0 
   0   8   0    2.20    3.19   0 
   0   9   1   25.13    3.14   0 
   1  -5  13  134.51    3.40   0 
   1  -5  14    4.30    2.29   0 
   1   2  -1  960.09    8.78   0 
   1   6  -1   76.62    3.53   0 
   2  -5  18   18.90    2.74   0 
   2  -4  10   34.70    3.06   0 
   3  -4  13   23.49    2.99   0 
   4  -3  12   80.57    2.78   0 
   4  -2   8    6.14    3.29   0 
   4   8   4    4.12    3.84   0 
   5  -2  11   14.96    3.22   0 
   5  -1   8   37.58    3.48   0 
   5   6   4   25.60    6.01   0 
   6  -1  13   19.99    3.22   0 
   7   1  12   37.29    3.63   0 
   7   2  10   26.27    4.06   0 
   7   3   9   11.89    4.43   0 
 -10   0   8   31.29    4.87   0 
 -10   2   6    2.69    3.38   0 
  -9   0   6   29.00    4.86   0 
  -9   1   5    2.96    3.85   0 
  -7  -5  14    9.27    3.47   0 
  -7   0   3   -1.07    4.28   0 
  -7   1   2  119.59    4.16   0 
  -7   3   1   14.11    3.09   0 
  -7   4   1    4.32    2.93   0 
  -7   5   1   78.41    3.35   0 
  -7   7   2    1.75    2.88   0 
  -6  -5  12   16.00    3.50   0 
  -6   1   1   21.14    3.48   0 
  -6   3   0  339.93    4.64   0 
  -6   7   1   12.70    2.94   0 
  -6   8   2    2.95    2.81   0 
  -5   8   1   26.39    2.85   0 
  -5   9   2    1.72    2.19   0 
  -4  -5  10    1.37    3.55   0 
  -4   2  -1    6.21    3.37   0 
  -4   6  -1   36.70    2.56   0 
  -3  -6  15   -2.64    2.89   0 
  -3   0   0    4.07    4.17   0 
  -3   8   0    5.82    2.96   0 
  -3   9   1    5.84    2.37   0 
  -2  -3   4   23.01    3.50   0 
  -2   1  -1   28.70    3.69   0 
  -2   4  -2  156.76    3.54   0 
  -2   7  -1  208.48    3.95   0 
  -2   8   0    2.56    2.89   0 
  -2   9   1   37.12    3.31   0 
  -1  -6  16   15.78    2.90   0 
  -1  -6  17   16.36    2.87   0 
  -1  -5  10   42.38    3.27   0 
  -1   1  -1    0.70    3.84   0 
  -1   4  -2    1.21    3.01   0 
  -1   7  -1    5.13    3.17   0 
  -1   8   0    7.21    3.17   0 
  -1   9   1   -2.68    3.06   0 
   0  -5  11    3.29    2.91   0 
   0  -4   7  229.03    4.01   0 
   0  10   3    1.54    2.87   0 
   1  -4   8  210.89    3.73   0 
   1   9   2    5.30    3.48   0 
   2  -5  16   27.35    2.83   0 
   2  -5  17   50.77    2.50   0 
   3  -4  12  121.50    3.48   0 
   3  -3   8   11.08    3.06   0 
   3   9   4    4.11    3.51   0 
   4  -3  11   14.35    3.23   0 
   4   7   3   26.24    4.17   0 
   5  -3  17    3.58    2.89   0 
   5   7   5   28.88    4.83   0 
   6  -1  12   46.56    3.37   0 
   6   0   9   -2.35    3.37   0 
   6   1   7    2.46    4.11   0 
   6   2   6    6.58    4.17   0 
   6   7   8   17.18    6.24   0 
   7   0  15    5.12    3.42   0 
 -10   1   7    2.53    3.76   0 
 -10   3   6   17.61    3.49   0 
  -9   3   4   10.48    3.06   0 
  -9   4   4    3.08    3.00   0 
  -9   5   4    8.14    2.98   0 
  -8   2   3   17.15    3.73   0 
  -8   6   3   34.33    2.98   0 
  -6   0   2  625.85    6.68   0 
  -5  -6  16    1.57    2.99   0 
  -5  -3   5   27.90    5.96   0 
  -5   6   0    8.05    3.03   0 
  -4   7   0    4.45    2.86   0 
  -4   9   2    3.15    2.84   0 
  -3  -6  14   10.46    3.04   0 
  -3   6  -1   46.69    3.21   0 
  -2  -6  14    8.20    2.78   0 
  -1  -6  15   -2.80    2.94   0 
  -1  10   3   11.41    2.87   0 
   0  -6  18    4.15    2.82   0 
   1  -5  12   10.85    2.40   0 
   1  -3   5  569.77    4.81   0 
   1  -2   3  327.00    4.66   0 
   1   5  -1   27.45    3.87   0 
   1   7   0   21.33    3.09   0 
   2  -5  14   37.25    2.98   0 
   2  -5  15   48.64    2.46   0 
   2  -4   9    8.77    3.04   0 
   2  -3   6  534.50    4.60   0 
   2   6   0    5.79    3.78   0 
   2   9   3   29.67    3.21   0 
   3   6   1   56.13    4.43   0 
   4  -4  16   33.18    3.03   0 
   4  -4  17    1.05    2.86   0 
   4  -2   7  416.87    4.62   0 
   4  -1   5    0.21    3.28   0 
   5  -3  15    9.14    2.92   0 
   5  -2  10  304.58    4.11   0 
   6  -2  16   34.20    2.90   0 
   6  -1  11    6.41    3.07   0 
   7   0  14   10.42    3.05   0 
   7   1  11    3.43    3.64   0 
  -8   5   3   25.14    3.04   0 
  -7  -5  13   13.90    3.89   0 
  -7   6   2   14.12    3.16   0 
  -6   6   1   41.69    3.07   0 
  -5   2   0  438.31    5.27   0 
  -5   7   1   16.97    3.01   0 
  -5   9   3    2.73    2.73   0 
  -4  -6  14    2.93    2.97   0 
  -4   3  -1  146.38    3.74   0 
  -4   4  -1  413.74    4.59   0 
  -4   8   1   11.09    2.49   0 
  -3  -5   9   28.68    3.17   0 
  -3  -4   6   47.04    3.61   0 
  -3   9   2    1.56    2.90   0 
  -2  -5   9    6.79    3.17   0 
  -2   6  -1  121.51    3.40   0 
  -1  -6  14   25.95    3.03   0 
  -1  -5   9  160.68    3.78   0 
  -1  -4   6   31.13    3.30   0 
  -1   6  -1  630.53    5.05   0 
   0  -6  15   55.19    3.18   0 
   0  -5  10   51.97    2.75   0 
   0   9   2    5.28    2.92   0 
   1  -5  11  182.41    3.65   0 
   2  -5  13   32.18    2.91   0 
   2   7   1  222.55    4.38   0 
   2   8   2    7.44    3.68   0 
   3  -4  11    0.67    2.44   0 
   3  -2   5  144.18    3.95   0 
   3   7   2   23.39    4.54   0 
   3   8   3   26.07    3.69   0 
   4  -4  14   27.64    3.05   0 
   4  -4  15    5.89    2.38   0 
   5  -3  14   33.58    2.68   0 
   5  -1   7    3.27    3.15   0 
   6  -2  15    3.23    2.89   0 
   6  -1  10  147.14    4.07   0 
   7   0  13    2.21    3.09   0 
   7   2   9    3.66    4.05   0 
  -8   3   3   43.16    3.42   0 
  -8   4   3    4.05    3.04   0 
  -7   2   2  103.87    3.94   0 
  -7   5   2    1.65    3.10   0 
  -7   7   3   14.72    2.51   0 
  -6  -5  11   55.28    4.16   0 
  -6  -4   8   78.11    5.46   0 
  -6   2   1    6.47    3.57   0 
  -6   5   1   27.15    3.18   0 
  -6   7   2    3.81    2.91   0 
  -6   8   3   15.20    2.94   0 
  -5  -5  10   21.55    3.62   0 
  -5  -4   7   67.92    4.72   0 
  -5   5   0   77.04    3.36   0 
  -5   8   2    5.18    2.20   0 
  -4  -5   9  124.66    4.25   0 
  -3  -6  13    8.70    3.04   0 
  -3   2  -1    8.83    3.17   0 
  -3   5  -1   54.99    3.17   0 
  -3   7   0   34.89    2.61   0 
  -3   8   1   32.38    3.08   0 
  -2   9   2    2.56    3.18   0 
  -1  -6  13    6.76    2.96   0 
  -1  -2   2  180.90    4.99   0 
  -1   9   2    6.51    3.02   0 
   0  -6  14    4.25    3.04   0 
   0  -3   4  686.58    5.42   0 
   0   7   0   -1.12    3.26   0 
   0   8   1   12.45    3.05   0 
   0  10   4    1.56    2.85   0 
   1  -6  17   25.29    2.93   0 
   1  -4   7   47.77    3.31   0 
   1   3  -1  116.60    4.52   0 
   1   4  -1  480.07    5.09   0 
   2  -5  12   53.08    3.07   0 
   2  -4   8    2.96    2.95   0 
   3  -5  16   21.05    2.93   0 
   3  -5  17    4.98    2.21   0 
   3  -4  10  211.19    3.50   0 
   3  -3   7  132.15    3.54   0 
   3   0   2    9.22    3.71   0 
   3   9   5    9.21    3.94   0 
   4   5   2   32.36    4.85   0 
   5  -3  13    3.80    2.45   0 
   5  -2   9    5.31    3.14   0 
   5   0   5   -1.23    3.42   0 
   5   1   4   13.94    4.08   0 
   5   8   7    3.66    4.48   0 
   6  -2  13    0.01    3.06   0 
   6   3   5   37.31    7.27   0 
   7   0  12   51.20    3.32   0 
   7   1  10  111.83    4.16   0 
   7   3   8   21.42    5.30   0 
   7   4   8   41.31    7.45   0 
 -10   2   7    4.43    3.50   0 
  -9   2   5   12.58    3.02   0 
  -9   4   5   11.67    3.45   0 
  -9   5   5   15.68    2.97   0 
  -8  -4  11    1.49    6.66   0 
  -8   1   4  113.00    4.10   0 
  -8   6   4    3.38    2.86   0 
  -7   3   2   72.05    3.48   0 
  -7   4   2  101.79    3.46   0 
  -6   4   1  127.03    3.60   0 
  -5   3   0  337.69    4.53   0 
  -4   1   0  270.98    4.61   0 
  -4   6   0   49.97    2.66   0 
  -4   9   3   22.90    3.08   0 
  -3  -6  12    3.21    3.04   0 
  -3   3  -1  539.41    4.80   0 
  -3   4  -1  397.72    4.25   0 
  -2  -6  12   22.66    3.00   0 
  -2  -5   8   44.44    3.82   0 
  -2   5  -1  111.64    3.53   0 
  -2   8   1    5.92    3.13   0 
  -1   7   0   25.50    3.19   0 
  -1   8   1  134.74    3.75   0 
   0  -6  13   88.04    3.24   0 
   0  -5   9   58.99    2.81   0 
   0  -4   6  105.31    3.58   0 
   1  -6  15    7.36    2.94   0 
   1  -6  16    7.45    2.31   0 
   1  -5  10   30.43    2.50   0 
   1   9   3   15.07    2.98   0 
   2  -1   2  939.14    7.27   0 
   2   0   1   -0.33    4.06   0 
   2   5   0   31.75    3.80   0 
   2   9   4    9.82    3.66   0 
   3  -5  14   11.48    2.85   0 
   3  -5  15   12.23    2.32   0 
   3  -1   3  307.44    4.86   0 
   4  -4  12   37.08    3.05   0 
   4  -2   6    0.80    3.47   0 
   4   8   5   72.18    4.31   0 
   5  -3  12   37.58    2.64   0 
   6  -2  12  126.20    3.81   0 
   6  -1   9   13.11    3.78   0 
   6   1   6  384.71    6.04   0 
   7   0  11    3.70    3.61   0 
 -10  -1  10   11.87    5.02   0 
 -10   3   7   11.41    2.98   0 
  -9   3   5    2.37    3.04   0 
  -8   5   4   16.95    2.98   0 
  -7   6   3   60.49    3.33   0 
  -7   7   4    2.46    2.93   0 
  -6  -6  15    4.02    3.37   0 
  -6   3   1    5.86    3.36   0 
  -6   6   2   24.24    3.09   0 
  -5   6   1   26.70    3.13   0 
  -5   8   3   31.24    2.92   0 
  -4  -4   6  208.13    5.09   0 
  -4   7   1   77.13    2.81   0 
  -4   8   2    0.27    2.41   0 
  -3  -5   8  208.77    4.27   0 
  -3   6   0    3.17    3.05   0 
  -3   9   3    0.52    2.88   0 
  -2   0   0   52.85    5.14   0 
  -2   2  -1  519.53    5.22   0 
  -1  -6  12    9.78    2.54   0 
  -1  -5   8   71.33    3.44   0 
  -1   5  -1  219.48    4.06   0 
   0   2  -1  335.03    5.42   0 
   0   9   3   29.33    3.18   0 
   1  -6  14   31.21    3.23   0 
   1   6   0   49.82    3.44   0 
   1   7   1    2.18    3.61   0 
   1   8   2    5.48    3.17   0 
   2  -5  11    4.66    2.35   0 
   2  -3   5   61.26    3.33   0 
   3  -5  13   50.41    3.14   0 
   3  -4   9   35.84    3.08   0 
   3   5   1   59.29    4.30   0 
   4  -3   8  339.21    4.32   0 
   4   0   3    2.09    3.58   0 
   5  -4  16    3.82    2.89   0 
   5  -3  11   30.03    3.29   0 
   5  -2   8  190.59    3.97   0 
   5  -1   6    2.02    3.26   0 
   6  -2  11    1.70    3.64   0 
   6   0   7   -0.78    3.94   0 
   6   6   7   54.45    7.38   0 
   7  -1  13    1.61    3.54   0 
   7  -1  14   33.95    3.26   0 
   7   1   9    2.15    4.08   0 
   7   2   8  133.35    5.29   0 
 -10   1   8    9.86    3.51   0 
  -9   1   6  102.53    4.46   0 
  -8  -1   6  141.99    5.62   0 
  -8   0   5    1.29    3.72   0 
  -7  -5  12   21.39    4.65   0 
  -7  -4   9   81.06    6.80   0 
  -7   1   3    5.38    3.67   0 
  -6   7   3   17.43    3.02   0 
  -5   7   2    9.89    2.45   0 
  -4   5   0   32.42    2.60   0 
  -3   7   1   15.37    3.17   0 
  -3   8   2    0.88    3.03   0 
  -2   3  -1  514.69    4.88   0 
  -2   4  -1    1.35    3.10   0 
  -2   9   3   23.25    3.33   0 
  -1  -6  11    4.83    3.20   0 
  -1   2  -1   61.77    3.71   0 
  -1   4  -1   21.90    3.14   0 
  -1   9   3   -0.01    3.09   0 
   0  -6  12   10.59    2.99   0 
   0  -5   8   68.98    3.48   0 
   0  -2   2 2293.80   10.57   0 
   0   4  -1    3.18    3.37   0 
   1  -6  13   52.35    3.17   0 
   1  -5   9  198.99    3.07   0 
   1  -4   6  335.13    4.24   0 
   1  -3   4   98.99    3.41   0 
   2  -6  16    5.55    2.76   0 
   2  -5  10    6.55    3.03   0 
   2  -4   7  363.78    4.18   0 
   2   8   3   21.50    3.73   0 
   3  -5  12    2.59    2.82   0 
   3  -2   4  659.64    5.48   0 
   3   1   1  134.71    7.62   0 
   3   8   4    4.16    3.58   0 
   4  -5  16    7.69    2.88   0 
   4  -1   4  354.44    4.57   0 
   4   6   3  108.74    4.86   0 
   4   7   4    3.33    4.06   0 
   5  -4  15   29.12    3.07   0 
   6  -3  15    9.79    2.98   0 
   6   2   5   11.35    5.46   0 
   7   0  10   38.29    3.82   0 
 -10   0   9    1.54    3.88   0 
  -9  -1   8   62.79    5.52   0 
  -9   5   6    5.77    2.92   0 
  -8   2   4   96.37    3.95   0 
  -8   3   4  144.14    4.11   0 
  -8   4   4    6.53    3.06   0 
  -8   6   5    1.60    2.23   0 
  -7   5   3   58.89    3.28   0 
  -6  -6  14    3.63    3.36   0 
  -6   1   2  257.88    4.62   0 
  -6   5   2   14.74    3.21   0 
  -5  -5   9   28.72    3.97   0 
  -5   1   1   62.08    3.59   0 
  -5   5   1   21.53    3.13   0 
  -4  -5   8   36.18    4.32   0 
  -4   2   0  220.16    4.04   0 
  -4   6   1   62.97    3.21   0 
  -4   8   3    5.01    3.00   0 
  -3  -7  16   -0.25    2.99   0 
  -2  -7  16    4.20    2.75   0 
  -2  -4   5  127.32    3.74   0 
  -2   6   0    5.86    2.45   0 
  -2   7   1  216.36    4.11   0 
  -2   8   2    3.45    2.98   0 
  -1  -7  16    4.54    2.81   0 
  -1  -4   5  110.66    3.66   0 
  -1   3  -1   15.25    3.15   0 
  -1   6   0   50.31    3.44   0 
   0  -6  11   74.67    3.32   0 
   0   3  -1  180.60    3.65   0 
   0   7   1   62.64    3.49   0 
   0   8   2    2.99    3.17   0 
   1  -6  12   43.39    3.09   0 
   1   9   4    5.65    3.10   0 
   2  -6  14    5.47    2.88   0 
   2  -6  15   27.96    2.48   0 
   2  -2   3   15.94    2.53   0 
   2   2   0 1627.72   14.89   0 
   2   4   0  294.85    5.18   0 
   2   6   1  130.89    3.92   0 
   2   7   2    8.32    3.77   0 
   2   9   5    3.87    3.58   0 
   3  -4   8   95.99    3.28   0 
   3   9   6    4.92    3.67   0 
   4  -5  15    1.93    2.97   0 
   4  -4  10    3.69    3.21   0 
   4   1   2  447.73    7.80   0 
   5  -4  13   11.40    3.08   0 
   5  -4  14    5.63    2.45   0 
   5  -2   7   54.00    4.07   0 
   5   2   3   27.32    6.48   0 
   5   7   6    2.66    4.53   0 
   6  -3  14   12.68    3.05   0 
   6  -2  10  100.48    3.51   0 
   6  -1   8  379.24    4.65   0 
   7  -1  12   36.60    3.20   0 
   8   2  12   13.81    4.50   0 
 -10   2   8   32.55    3.75   0 
 -10   3   8   28.82    3.74   0 
  -9   0   7    2.38    4.00   0 
  -9   2   6   50.78    3.87   0 
  -9   3   6   37.21    3.80   0 
  -9   4   6   28.58    3.04   0 
  -7   2   3   71.03    3.99   0 
  -7   4   3    7.55    3.18   0 
  -7   6   4    5.25    3.03   0 
  -7   7   5    9.39    2.96   0 
  -6  -5  10    1.09    3.94   0 
  -6   6   3   14.16    3.01   0 
  -6   8   5    4.22    2.86   0 
  -5  -6  12    7.41    3.59   0 
  -5   6   2    6.23    3.14   0 
  -5   8   4    3.86    2.82   0 
  -4  -6  11   13.19    3.48   0 
  -4   0   1    2.33    3.95   0 
  -4   3   0   12.67    2.74   0 
  -4   7   2    5.52    3.00   0 
  -3   5   0  196.44    3.28   0 
  -3   9   4   -0.50    2.42   0 
  -2  -7  15    0.20    2.92   0 
  -2  -6  10    6.34    3.09   0 
  -2  -5   7  225.23    4.44   0 
  -2   9   4    6.78    2.97   0 
  -1  -6  10   10.98    3.10   0 
  -1  -5   7  194.52    3.88   0 
  -1  -3   3    2.85    3.81   0 
  -1   7   1    0.44    2.52   0 
   0  -7  16    6.10    2.93   0 
   0  -4   5    4.19    3.32   0 
   0   9   4    1.55    3.06   0 
   1  -5   8   42.75    3.21   0 
   1   5   0  234.24    4.34   0 
   2  -6  13   62.30    3.23   0 
   2  -5   9   11.07    3.12   0 
   3  -5  11   75.28    2.82   0 
   3   6   2   12.85    3.81   0 
   3   7   3   87.43    4.06   0 
   4  -5  14   53.35    3.03   0 
   4  -3   7   16.58    2.79   0 
   4  -2   5  221.34    4.21   0 
   4   4   2  146.26    6.58   0 
   4   8   6    1.33    3.92   0 
   5  -3   9   98.98    3.59   0 
   5   5   4    1.75    5.80   0 
   6  -3  13   28.87    3.17   0 
   7  -1  11    4.01    3.62   0 
   7   0   9    1.37    3.59   0 
   7   1   8   82.85    4.40   0 
  -9   5   7    7.88    3.04   0 
  -8   5   5   32.13    3.15   0 
  -8   6   6   12.68    2.92   0 
  -7   0   4  226.09    5.23   0 
  -6  -6  13    5.36    4.00   0 
  -6   2   2  320.94    4.96   0 
  -6   3   2   90.32    4.26   0 
  -6   4   2  154.79    3.79   0 
  -6   7   4    6.42    2.38   0 
  -5   2   1   35.97    3.62   0 
  -5   3   1    4.15    3.37   0 
  -5   7   3   18.04    2.58   0 
  -4   9   5   18.05    2.43   0 
  -3  -7  14    5.70    3.60   0 
  -3  -5   7   23.11    3.69   0 
  -3  -4   5  167.79    4.46   0 
  -3   1   0 1046.56    7.51   0 
  -3   6   1  182.49    3.71   0 
  -2   5   0   30.79    3.16   0 
  -1  -7  14    1.33    2.87   0 
  -1   9   4    0.45    2.48   0 
   0  -7  15    4.85    2.89   0 
   0  -6  10   18.17    3.30   0 
   0  -5   7   75.05    3.44   0 
   0  -3   3  117.01    3.79   0 
   1  -6  11    2.11    3.01   0 
   1  -1   1    0.54    3.89   0 
   1   8   3   24.66    3.23   0 
   2  -4   6  169.00    3.56   0 
   2  -3   4   83.86    3.40   0 
   2   3   0  377.14    5.96   0 
   3  -6  15   32.36    3.01   0 
   3  -6  16    5.55    2.38   0 
   3  -5  10    3.45    3.13   0 
   3  -4   7   23.07    3.10   0 
   3  -3   5  138.07    3.65   0 
   3   4   1  363.81    6.46   0 
   4  -5  13   49.60    2.63   0 
   4  -4   9  192.84    3.98   0 
   5  -1   5   15.91    3.69   0 
   5   0   4  868.47    6.86   0 
   5   6   5   -0.62    5.04   0 
   6  -3  12   65.25    3.43   0 
   6  -2   9   48.54    3.38   0 
   6   0   6  107.36    4.12   0 
   7  -2  13    5.30    3.47   0 
   8   1  12   -0.64    3.94   0 
   8   3  11    6.40    4.90   0 
 -10   1   9    3.01    4.03   0 
  -8   1   5    3.20    3.61   0 
  -8   4   5   18.01    3.12   0 
  -6   8   6    2.14    2.94   0 
  -4   5   1  138.13    3.05   0 
  -4   8   4   -0.73    2.97   0 
  -3   4   0   47.68    2.70   0 
  -3   7   2    1.46    2.53   0 
  -3   9   5   -2.33    3.00   0 
  -2   8   3    1.48    3.03   0 
  -1   8   3  123.78    3.76   0 
   0  -7  14    0.42    3.00   0 
   0   5   0    2.24    3.45   0 
   0   8   3   12.22    3.35   0 
   1  -4   5  471.02    4.53   0 
   1   7   2    8.22    3.18   0 
   1   9   5   18.58    3.36   0 
   2  -6  12   -2.60    2.41   0 
   2  -5   8  232.00    3.70   0 
   2   8   4    2.95    3.19   0 
   2   9   6    5.42    3.58   0 
   3  -6  14   14.52    2.95   0 
   3   8   5    3.59    3.80   0 
   4  -5  12   31.41    3.21   0 
   5  -4  11   92.74    3.38   0 
   5  -3   8    2.23    3.22   0 
   6  -3  11   42.65    3.37   0 
   6  -1   7    1.12    3.23   0 
   6   1   5    3.20    4.27   0 
   7  -2  12    5.48    3.55   0 
   7  -1  10  117.48    3.70   0 
   7   2   7    4.02    5.09   0 
   8   2  11    2.60    4.10   0 
 -10   2   9   -0.69    3.59   0 
 -10   3   9    4.70    3.67   0 
  -9   1   7    2.65    3.63   0 
  -9   4   7    2.43    2.96   0 
  -8   2   5    3.07    3.98   0 
  -8   3   5   12.71    3.20   0 
  -7  -5  11   -0.77    4.83   0 
  -7  -1   5   16.02    4.96   0 
  -7   6   5   41.27    3.24   0 
  -7   7   6    0.13    2.42   0 
  -6   0   3    3.82    3.98   0 
  -6   5   3   48.66    3.33   0 
  -6   7   5   33.00    3.05   0 
  -5   0   2  174.29    5.22   0 
  -5   5   2   30.11    2.75   0 
  -5   7   4    8.17    3.06   0 
  -5   8   5   20.15    2.51   0 
  -4  -7  14    4.70    3.07   0 
  -4   6   2   15.24    3.08   0 
  -4   7   3  129.76    3.60   0 
  -4   9   6    0.92    2.83   0 
  -3   2   0  245.31    4.25   0 
  -3   3   0  148.75    3.71   0 
  -2  -7  13    1.87    3.07   0 
  -2  -6   9  191.87    3.91   0 
  -2   6   1    3.88    2.48   0 
  -2   7   2    2.14    3.22   0 
  -2   9   5   23.81    2.92   0 
  -1  -7  13   53.93    3.28   0 
  -1  -6   9    6.73    3.15   0 
  -1   6   1   78.59    3.67   0 
  -1   7   2   17.70    3.28   0 
  -1   9   5    6.99    3.07   0 
   0  -7  13   -1.28    3.23   0 
   0  -6   9  105.34    3.58   0 
   0   6   1   18.58    3.44   0 
   0   7   2    1.67    3.42   0 
   0   9   5   28.69    3.30   0 
   1  -7  15   40.81    2.64   0 
   1  -6  10   64.56    3.42   0 
   1  -5   7  128.67    3.13   0 
   1   4   0   75.14    4.27   0 
   2  -6  11  160.09    3.46   0 
   2   5   1  127.01    4.25   0 
   3  -6  13   13.93    3.03   0 
   3  -5   9  141.61    3.58   0 
   4  -5  11   31.37    3.16   0 
   4  -4   8   34.32    3.35   0 
   4   7   5    0.67    4.22   0 
   5  -5  15   16.86    2.99   0 
   5  -4  10   56.68    3.49   0 
   5  -2   6  127.47    3.74   0 
   6  -4  14   22.19    3.07   0 
   6  -2   8   29.00    3.47   0 
   7   0   8  152.91    4.54   0 
   8   1  11    2.00    4.12   0 
 -10   0  10   19.44    4.23   0 
  -9   2   7    9.88    3.70   0 
  -9   3   7   16.98    3.21   0 
  -9   5   8   12.91    3.12   0 
  -8   5   6    6.60    3.06   0 
  -7   4   4   37.33    3.30   0 
  -6  -6  12   14.21    4.01   0 
  -6   6   4   26.48    2.58   0 
  -5  -5   8   62.97    4.35   0 
  -5   6   3   34.09    2.65   0 
  -4   4   1   61.34    3.56   0 
  -3   5   1   26.47    3.20   0 
  -3   9   6    0.94    3.03   0 
  -2  -7  12    8.64    2.99   0 
  -2  -5   6    9.88    3.80   0 
  -2   4   0  309.21    3.88   0 
  -1  -7  12    1.27    2.94   0 
  -1  -5   6   41.54    3.47   0 
   0  -5   6  113.76    3.69   0 
   1  -7  14   -0.10    2.39   0 
   1  -3   3   25.47    2.65   0 
   1   8   4    0.61    3.16   0 
   2   6   2    8.55    4.00   0 
   2   7   3  105.89    3.74   0 
   3  -6  12   15.15    3.00   0 
   3  -4   6  463.25    4.59   0 
   3  -2   3   -0.61    3.28   0 
   3  -1   2 2080.41    9.76   0 
   3   7   4   -0.31    3.95   0 
   4  -2   4  276.59    4.39   0 
   4  -1   3  116.65    3.84   0 
   4   8   7   24.06    4.19   0 
   5  -5  13   16.74    3.06   0 
   5  -5  14    8.51    2.53   0 
   5   1   3    5.54    4.73   0 
   6  -4  13    5.54    2.98   0 
   6  -3  10   98.27    3.57   0 
   7  -2  11   42.07    3.34   0 
   7  -1   9    1.33    3.68   0 
   7   1   7    8.41    4.10   0 
   8   0  12   68.20    4.05   0 
  -8   0   6  181.58    4.83   0 
  -7   1   4   56.37    3.90   0 
  -7   3   4  132.50    3.76   0 
  -7   5   5    8.52    3.07   0 
  -7   7   7   -0.17    2.92   0 
  -6   8   7    5.53    2.29   0 
  -5  -7  14    3.34    3.61   0 
  -5   4   2   51.84    3.55   0 
  -5   8   6    2.36    2.88   0 
  -4  -7  13   15.60    3.19   0 
  -4  -5   7  163.83    4.51   0 
  -4   8   5    3.91    2.39   0 
  -4   9   7   13.04    3.03   0 
  -3   6   2   14.07    3.10   0 
  -3   7   3    2.21    3.27   0 
  -2  -4   4  117.16    4.30   0 
  -2   8   4   -1.04    3.09   0 
  -2   9   6    6.63    2.94   0 
  -1  -6   8    6.28    3.12   0 
  -1   4   0   76.87    3.41   0 
  -1   8   4    6.30    3.12   0 
   0  -7  12    5.63    3.05   0 
   0  -4   4  390.73    4.76   0 
   0   8   4    6.36    3.27   0 
   0   9   6    4.21    3.56   0 
   1  -7  13   21.36    2.68   0 
   1  -6   9   41.64    2.80   0 
   2  -7  15   33.27    2.54   0 
   2  -6  10    1.08    2.48   0 
   2  -5   7   50.36    3.23   0 
   2   8   5   33.33    3.84   0 
   2   9   7    1.30    3.66   0 
   3  -5   8    8.99    3.10   0 
   3  -3   4  598.83    5.03   0 
   3   5   2   35.98    4.30   0 
   3   6   3   31.52    4.57   0 
   3   8   6    2.54    4.29   0 
   4  -6  14    4.08    2.95   0 
   4  -5  10   56.39    2.71   0 
   4  -4   7  182.32    3.95   0 
   4   6   4   18.73    4.39   0 
   5  -4   9   55.37    3.44   0 
   6  -4  12   29.03    3.21   0 
   6  -1   6  390.02    4.68   0 
   6   0   5    3.39    4.16   0 
   7  -3  13    0.17    3.02   0 
   8   0  11    5.19    3.59   0 
   8   2  10   45.17    4.29   0 
  -9   4   8    7.14    3.09   0 
  -9   5   9    1.67    3.05   0 
  -8   4   6   59.33    2.85   0 
  -8   5   7   21.28    3.28   0 
  -8   6   8    4.93    2.97   0 
  -7   2   4   37.64    3.28   0 
  -7   6   6    5.33    2.48   0 
  -6   3   3   34.97    3.57   0 
  -6   5   4   12.36    3.23   0 
  -6   7   6    5.75    2.87   0 
  -5   7   5    3.01    3.03   0 
  -4  -6   9    1.49    3.74   0 
  -4   1   1  369.76    5.09   0 
  -4   2   1   11.90    3.23   0 
  -4   3   1  146.55    3.37   0 
  -4   5   2    7.78    3.03   0 
  -4   6   3   25.14    3.06   0 
  -4   7   4    4.31    3.02   0 
  -3  -5   6   39.18    3.70   0 
  -3   8   5   50.80    3.40   0 
  -2  -6   8    3.89    3.20   0 
  -2   1   0   13.07    3.75   0 
  -2   3   0  438.39    4.35   0 
  -2   5   1  530.71    4.61   0 
  -2   7   3   69.23    3.61   0 
  -1   9   6    3.05    3.04   0 
   0  -7  11   -0.78    2.97   0 
   0  -6   8   48.80    3.33   0 
   1  -7  12    6.91    3.14   0 
   1  -5   6   50.01    3.39   0 
   1  -4   4   62.55    3.29   0 
   1   3   0 1560.91    9.38   0 
   1   5   1  215.22    4.78   0 
   1   7   3   58.15    3.57   0 
   2  -7  13    4.18    2.94   0 
   2  -2   2  616.39    5.27   0 
   4  -6  13   23.44    3.15   0 
   4  -5   9   26.37    3.26   0 
   4  -3   5   -1.83    3.45   0 
   4   0   2  502.92    6.17   0 
   5  -5  12   11.91    2.74   0 
   5  -2   5    0.76    3.37   0 
   5  -1   4   11.61    3.39   0 
   6  -3   9   13.33    2.58   0 
   6  -2   7   16.34    3.27   0 
   7  -3  12   25.43    3.22   0 
   7  -2  10   25.24    3.40   0 
   8  -1  12    1.50    3.62   0 
   8   1  10    1.04    3.68   0 
  -8   3   6   30.49    3.28   0 
  -7   4   5   95.40    3.62   0 
  -7   7   8   -1.01    2.95   0 
  -6   1   3    2.66    3.05   0 
  -6   2   3   12.08    3.22   0 
  -6   6   5   32.89    2.57   0 
  -6   8   8   -0.74    2.31   0 
  -5   3   2  315.15    4.09   0 
  -5   5   3   10.51    2.57   0 
  -5   6   4    0.63    3.18   0 
  -5   8   7   22.31    2.97   0 
  -3   4   1  553.31    4.85   0 
  -3   9   7    3.88    2.39   0 
  -2   6   2  190.94    3.75   0 
  -1   5   1   24.22    3.49   0 
  -1   7   3    2.52    3.26   0 
   0   7   3  154.62    3.85   0 
   1  -7  11   71.44    3.35   0 
   1  -6   8    9.82    3.13   0 
   1   6   2   36.94    3.45   0 
   1   9   7   33.18    3.37   0 
   2  -6   9  170.59    3.24   0 
   2  -1   1   25.00    3.82   0 
   3  -6  10   22.13    2.99   0 
   4  -6  12    1.08    2.86   0 
   5  -5  11    4.40    3.09   0 
   5  -4   8  158.42    3.77   0 
   6  -4  11    4.31    2.48   0 
  -1   3   0 1526.52    7.37   0 
   2  -7  12    4.11    2.41   0 
   3  -7  14    0.93    2.39   0 
   5  -3   6   19.05    2.91   0 
  -9  -4  -5    3.57    3.53   0 
  -9  -3  -7   -0.19    2.91   0 
  -8  -6   2   -0.37    3.31   0 
  -8  -4  -5   11.66    3.49   0 
  -8  -3  -7    9.20    3.52   0 
  -7  -5  -2   11.01    2.99   0 
  -7   1 -11    2.85    3.93   0 
  -6  -6   4   37.46    3.89   0 
  -6  -4  -4   12.12    3.61   0 
  -6  -2  -8   28.84    3.20   0 
  -6   0 -10   27.98    3.74   0 
  -5  -4  -3    2.55    3.53   0 
  -4  -5   3  121.57    4.42   0 
  -3  -4   1  586.04    6.01   0 
  -2  -4   8  169.00    6.73   0 
  -2   9  -2    1.80    4.39   0 
  -2  10   1   -0.49    4.43   0 
  -1  -1  19    4.65    4.74   0 
  -1   9   2    9.44    3.94   0 
   0  -1  14  533.68    7.20   0 
   0   1  18   64.67    4.80   0 
   0   2  19    1.91    4.43   0 
   0   3  -3  116.09    6.68   0 
   0   3  19    3.50    3.67   0 
   0   4  19   16.45    3.73   0 
   0   7  16    5.59    3.37   0 
   0   8   4    5.77    3.69   0 
   0   8   5   16.29    3.88   0 
   0   8  12    6.22    3.66   0 
   1   1   5   78.40    4.54   0 
   1   1  10    8.98    4.14   0 
   1   1  11    0.38    4.54   0 
   1   2   3  350.40    5.68   0 
   1   2  13   28.12    4.28   0 
   1   3   2  486.95    5.96   0 
   1   3  14   15.36    4.01   0 
   1   4   2    2.89    4.09   0 
   1   4  13    2.33    3.16   0 
   1   5   3  103.75    4.59   0 
   1   5  12   13.09    3.96   0 
   1   6   6   12.27    3.72   0 
   1   6   7   31.92    3.84   0 
   1   6   8    8.63    3.69   0 
   1   6   9   52.64    4.00   0 
  -9  -5  -2    0.24    2.89   0 
  -8  -2  -8  121.63    4.14   0 
  -8   1 -11    5.06    3.69   0 
  -7  -6   3   59.42    3.37   0 
  -7  -4  -4  154.06    4.00   0 
  -7  -2  -8  144.37    4.25   0 
  -6  -6   5   43.08    3.87   0 
  -6  -6  15    3.36    4.92   0 
  -6  -3  -6  204.16    3.86   0 
  -6  -1  -9   14.36    3.27   0 
  -6   2 -11    5.31    3.80   0 
  -5  -5   1   29.13    3.93   0 
  -5  -3  -5  296.62    4.45   0 
  -5   1 -10   24.79    4.10   0 
  -4  -5   4    0.25    4.48   0 
  -4  -5  15    0.76    6.22   0 
  -4  -4  -1  458.58    5.39   0 
  -4  -3  -4  413.72    4.54   0 
  -4  -2  -6   -0.94    3.17   0 
  -3  -3  -2  493.28    5.50   0 
  -3  -1  -6   32.23    4.18   0 
  -2  -3  18  121.28    8.21   0 
  -1  -2   1  962.84    9.39   0 
  -1   0  21   -0.02    4.37   0 
  -1   1  22   13.14    3.77   0 
   0   0  17    1.13    4.71   0 
   0   4  -3   18.53    5.05   0 
   0   5  19   14.66    3.71   0 
   0   7   0   -0.42    4.60   0 
   0   8   3   15.80    3.97   0 
   0   8  13   29.59    3.72   0 
   1   1  12    5.13    4.51   0 
   1   2  14  170.21    4.60   0 
   1   4  14  142.23    4.40   0 
   1   5  13  137.83    3.64   0 
   1   5  14    2.82    3.48   0 
   1   6   5   23.99    3.89   0 
   1   6  10   62.07    3.36   0 
   1   6  11    2.07    3.62   0 
   1   6  12   47.85    3.72   0 
  -9  -4  -4   40.08    3.62   0 
  -9  -3  -6   13.12    3.63   0 
  -9  -1  -9    3.19    2.86   0 
  -8  -6   3   40.69    3.16   0 
  -8  -5  -1    7.73    3.74   0 
  -8  -4  -4    1.33    3.46   0 
  -8  -1  -9   10.77    3.74   0 
  -8   0 -10  128.12    4.28   0 
  -8   2 -11    6.54    4.45   0 
  -7  -6   4    1.88    3.80   0 
  -7  -5  -1   77.51    3.31   0 
  -7  -3  -6    9.68    3.41   0 
  -7  -1  -9   -0.72    2.97   0 
  -7   0 -10   38.91    3.30   0 
  -7   2 -11   44.97    4.10   0 
  -6  -6   6   24.55    4.02   0 
  -6  -6  14    7.51    4.80   0 
  -6  -5   0   97.07    4.02   0 
  -6  -4  -3  112.02    4.11   0 
  -6   3 -11   42.55    4.74   0 
  -6   4 -11    9.35    4.34   0 
  -5  -4  -2  407.10    4.95   0 
  -5  -1  -8   44.89    4.17   0 
  -5   0  -9   -1.90    4.07   0 
  -4  -1  -7   43.36    4.24   0 
  -4   1  -9   10.10    3.86   0 
  -3  -4   2    5.42    3.98   0 
  -3   0  -7    2.72    4.53   0 
  -2  -3   1  209.95    5.09   0 
  -2   2  -7  115.34    6.28   0 
  -2   7  -6    9.65    7.13   0 
  -2  10   0    5.03    4.49   0 
  -1   8  -2    0.31    4.47   0 
   0   2  20   27.29    4.34   0 
   0   3  20   14.96    3.73   0 
   0   6  -2  244.67    5.71   0 
   0   8   2    5.38    3.71   0 
   1   1   4 1256.74    9.05   0 
   1   1  13   19.87    4.59   0 
   1   2   2  293.69    5.68   0 
   1   3  15   23.17    3.89   0 
   1   4   1   24.58    4.18   0 
   1   4  15   35.07    3.80   0 
   1   5  15   36.79    3.87   0 
   1   6   4    4.23    4.06   0 
   1   6  13   54.55    3.81   0 
  -8  -6   4    1.94    3.79   0 
  -8   3 -11    7.89    4.48   0 
  -7  -5   0    8.94    3.59   0 
  -7   4 -11   45.06    5.13   0 
  -6  -6   8    2.64    4.17   0 
  -6  -6   9    6.91    4.34   0 
  -6  -6  13    4.94    4.76   0 
  -6  -5   1   37.17    3.87   0 
  -6  -3  -5   36.95    3.73   0 
  -6  -2  -7   19.29    3.93   0 
  -6   6 -10    1.88    6.05   0 
  -5  -5   2   29.33    4.06   0 
  -5  -5  18    2.96    6.85   0 
  -5   5 -10    9.22    5.89   0 
  -4  -5   5  215.43    4.84   0 
  -4  -4   0  205.37    4.70   0 
  -4   0  -8    6.27    4.09   0 
  -3  -2  -4  635.72    5.40   0 
  -2  -2  -2  574.80    5.79   0 
  -1  -1  20    9.26    4.89   0 
  -1   6  -5   24.57    6.14   0 
  -1  10   4   -1.20    3.94   0 
   0  -1  15    4.57    4.46   0 
   0   5  -3  487.34    7.52   0 
   0   9   6    1.68    3.85   0 
   0   9   8   -0.51    2.75   0 
   0   9   9    1.70    2.99   0 
   1   2  15  194.06    4.61   0 
   1   3   1   18.58    4.23   0 
   1   3  16   22.46    3.95   0 
   1   4  16   74.98    3.87   0 
   1   6  14   31.62    3.69   0 
   1   7   6   35.64    4.05   0 
   1   7   7  112.59    4.26   0 
   1   7   8    2.96    3.11   0 
   1   7   9  121.21    3.49   0 
   1   7  10    1.40    3.70   0 
   1   7  11   86.55    3.97   0 
  -9  -5   0    2.42    3.54   0 
  -9  -3  -5    7.29    3.50   0 
  -9  -2  -7   21.69    3.01   0 
  -9  -1  -8   42.58    3.59   0 
  -9   0  -9   -0.33    4.08   0 
  -8  -6   5    4.92    3.70   0 
  -8  -5   0   23.92    3.64   0 
  -8  -4  -3   74.71    3.91   0 
  -8  -2  -7    6.65    3.63   0 
  -8   1 -10    6.44    4.32   0 
  -7  -4  -3   -1.51    2.82   0 
  -7  -3  -5   46.98    3.70   0 
  -7   1 -10  124.02    4.37   0 
  -6   0  -9   -2.10    3.72   0 
  -5  -5   3    8.45    3.94   0 
  -5  -3  -4   12.40    3.69   0 
  -4  -5   6    0.56    4.21   0 
  -4  -5  14   13.83    5.94   0 
  -4  -3  -3   20.57    3.08   0 
  -4  -2  -5  225.60    4.55   0 
  -3  -4   3   67.02    4.71   0 
  -3  -3  -1  533.04    6.03   0 
  -3   9  -5    8.44    5.19   0 
  -1   0  22    3.01    4.20   0 
   0   0  18  116.94    4.58   0 
   0   1  20   27.76    4.38   0 
   0   2  21    4.32    4.20   0 
   0   7  -1   59.33    4.25   0 
   0   8   1   15.91    3.95   0 
   0   9   4    1.22    3.76   0 
   1   0   8 2255.94   11.40   0 
   1   1  14   30.93    4.03   0 
   1   2  16  130.09    4.18   0 
   1   3  17    7.40    3.49   0 
   1   4  17   25.21    3.76   0 
   1   5   1  200.07    4.87   0 
   1   5  16   -1.92    2.87   0 
   1   6   2   36.33    4.04   0 
   1   6  15    8.11    2.84   0 
   1   7   4   44.60    4.28   0 
   1   7   5  113.19    3.60   0 
   1   7  13   31.56    3.62   0 
  -8  -6   6   15.03    3.74   0 
  -8  -3  -5   12.30    3.01   0 
  -8   0  -9    1.13    3.63   0 
  -7  -6   8   -0.28    4.17   0 
  -7  -5   1  104.95    4.24   0 
  -7  -1  -8   80.62    4.12   0 
  -7   0  -9    2.83    3.79   0 
  -6  -5   2   16.18    3.96   0 
  -6  -4  -2   24.28    3.02   0 
  -5  -4  -1    8.52    3.82   0 
  -5   3 -10   39.82    4.50   0 
  -5   4 -10   63.26    5.74   0 
  -4  -5   7  181.96    5.18   0 
  -4   2  -9    4.26    4.46   0 
  -2   0  -5   -0.35    4.82   0 
  -1  -2  18   39.85    5.63   0 
  -1   0  -3    0.99    4.81   0 
  -1   2  -5   27.45    7.83   0 
  -1   9  -1    6.40    4.58   0 
  -1  10   2    1.48    4.30   0 
   0  -1  16  134.90    5.11   0 
   0   8   0   -1.70    4.58   0 
   1   0   7   -1.95    4.54   0 
   1   0  10  911.10    7.26   0 
   1   0  11    9.97    4.37   0 
   1   1   3   15.24    4.56   0 
   1   1  15    2.54    3.64   0 
   1   2  17    6.22    4.37   0 
   1   5  17   14.89    2.88   0 
   1   6  16    7.23    2.94   0 
   1   7   3   61.00    4.11   0 
   1   7  15   39.42    3.65   0 
   1   8  10    6.24    3.66   0 
  -9  -4  -2   28.39    3.67   0 
  -9  -2  -6   44.85    3.79   0 
  -8  -6   7    4.86    3.64   0 
  -8  -6   8    9.45    4.31   0 
  -8  -5   1    7.22    3.05   0 
  -8  -4  -2    1.47    3.47   0 
  -8   2 -10   48.01    4.51   0 
  -7  -6  10    4.82    4.31   0 
  -7  -4  -2   62.71    3.85   0 
  -6  -3  -4  250.71    4.42   0 
  -6  -2  -6    5.44    3.71   0 
  -6   2 -10  104.63    4.61   0 
  -5  -5   4   97.35    4.12   0 
  -5  -1  -7    0.50    3.87   0 
  -5   0  -8  239.45    4.83   0 
  -4  -5   8   37.49    4.66   0 
  -4  -5  13   11.12    5.45   0 
  -4  -4   1   64.47    4.23   0 
  -3  -1  -5    1.66    3.99   0 
  -3   2  -8 1224.96    9.18   0 
  -2   1  -6 1485.37   10.17   0 
  -1  -1  21    4.23    4.64   0 
   0   0  19    1.33    4.19   0 
   0   6  -3    2.88    5.05   0 
   0   7  -2   -1.16    4.48   0 
   1   0   6   27.79    4.85   0 
   1   0  12  453.73    5.59   0 
   1   1  16   44.17    4.60   0 
   1   2   1   61.55    4.77   0 
   1   3   0 1446.99    9.52   0 
   1   3  18   52.94    4.00   0 
   1   5   0  233.99    4.92   0 
   1   5  18    6.81    3.72   0 
   1   6   1  668.31    6.22   0 
   1   6  17   22.30    3.08   0 
   1   8   6   -1.66    3.59   0 
   1   8   7   22.53    3.08   0 
   1   8  11   -1.18    2.96   0 
   1   8  12    2.71    3.54   0 
   2   4   8    7.29    3.59   0 
   2   4   9    6.33    3.64   0 
  -9  -5   2    9.86    3.64   0 
  -9  -3  -4    1.10    2.89   0 
  -9   1  -9    3.82    3.53   0 
  -8  -6   9    3.72    3.71   0 
  -8  -6  10   13.87    4.46   0 
  -8  -5   2   15.75    3.74   0 
  -8  -3  -4   73.74    3.78   0 
  -8  -2  -6   59.80    3.96   0 
  -7  -6  12    4.71    3.61   0 
  -7  -5   2    7.49    2.87   0 
  -7  -3  -4    9.30    3.56   0 
  -7  -2  -6  234.97    3.84   0 
  -6  -5   3   57.83    3.91   0 
  -6  -4  -1    8.18    3.61   0 
  -6   3 -10  115.80    5.14   0 
  -5  -5   5   11.87    3.82   0 
  -5  -4   0  171.75    4.44   0 
  -5  -3  -3   77.74    3.90   0 
  -5  -2  -5    1.39    3.70   0 
  -4  -5   9  126.98    5.03   0 
  -4  -5  10    2.36    4.68   0 
  -4  -5  11  130.70    5.47   0 
  -4  -5  12   32.49    5.10   0 
  -4  -3  -2  205.96    3.82   0 
  -3  -4   4   13.04    3.77   0 
  -3  -2  -3   -1.59    2.75   0 
  -2  -3  19    5.68    8.14   0 
  -2  -2  -1  531.39    6.20   0 
  -2  -2  22   10.31    5.43   0 
  -2   3  -7   29.72    6.66   0 
  -1  -2   2  185.17    6.32   0 
  -1  -1  -1   -0.26    3.92   0 
   0  -1  17   16.36    4.88   0 
   0   1  21    6.57    3.71   0 
   0   2  22   31.78    3.90   0 
   1   0  13    3.00    3.84   0 
   1   2  18  115.48    4.48   0 
   1   3  19    5.78    3.61   0 
   1   4  19   23.81    3.73   0 
   1   5  19    1.18    3.55   0 
   1   7   2    8.89    3.68   0 
   1   8   4    2.46    3.92   0 
   1   8   5   45.20    3.97   0 
   2   3   8  664.59    5.82   0 
   2   3   9    0.40    3.78   0 
   2   3  10  362.50    4.96   0 
   2   3  11   35.08    3.90   0 
   2   4   6  163.05    4.36   0 
   2   4   7  337.16    4.26   0 
   2   4  10   38.42    2.96   0 
   2   4  11  133.38    4.14   0 
   2   5   7   59.71    3.81   0 
   2   5   8  237.08    4.39   0 
   2   5   9    9.29    2.97   0 
   2   5  10    8.40    3.74   0 
   2   5  11    6.47    3.67   0 
  -9  -4  -1    5.71    2.92   0 
  -9   0  -8   74.85    4.11   0 
  -8  -4  -1   72.34    3.97   0 
  -8  -1  -7   -0.84    3.76   0 
  -8   1  -9    8.49    3.79   0 
  -8   3 -10    4.46    4.35   0 
  -7  -5   3   69.14    3.97   0 
  -7  -4  -1   35.26    3.80   0 
  -7  -1  -7    5.20    3.66   0 
  -7   1  -9    2.47    4.37   0 
  -7   3 -10   17.44    4.52   0 
  -7   5 -10    5.70    4.81   0 
  -6  -5   4   15.25    3.86   0 
  -6  -1  -7    2.32    3.10   0 
  -6   0  -8   66.85    4.07   0 
  -6   1  -9   11.91    3.71   0 
  -6   4 -10   44.00    5.26   0 
  -6   5 -10   66.83    5.21   0 
  -5  -5  17   12.92    5.62   0 
  -4  -4   2  163.56    4.73   0 
  -4   0  -7    1.70    4.09   0 
  -4   1  -8  245.40    4.87   0 
  -4   3  -9  186.29    6.06   0 
  -4   5  -9   37.21    6.77   0 
  -3  -3   0  142.49    4.84   0 
  -3   0  -6 1120.06    7.57   0 
  -3   1  -7    3.99    4.41   0 
  -2  -1  -3  549.20    6.42   0 
  -1   9  -2    3.32    4.37   0 
   0  -2  10   59.13    6.99   0 
   0  -2  11  102.37    6.94   0 
   0   8  -1   13.96    4.70   0 
   1   0  14  372.15    5.97   0 
   1   1  17    6.33    3.65   0 
   1   2  19    9.97    4.34   0 
   1   4  20   15.92    3.64   0 
   1   6   0   45.96    4.13   0 
   1   9   9   12.03    3.83   0 
   2   3   6  554.82    5.52   0 
   2   3   7   21.92    3.06   0 
   2   3  12  184.30    4.37   0 
   2   3  13  128.82    4.20   0 
   2   4   5  544.31    5.54   0 
   2   4  13  228.34    4.64   0 
   2   5   5  112.00    4.21   0 
   2   5   6   73.03    3.27   0 
   2   5  12   51.12    3.22   0 
   2   5  13   27.31    3.64   0 
   2   6   7   84.72    4.06   0 
   2   6   8   15.83    3.79   0 
   2   6   9  223.67    4.72   0 
   2   6  11  161.19    4.13   0 
   2   6  12    2.18    3.56   0 
  -9  -3  -3   17.57    3.43   0 
  -9  -2  -5    3.00    3.46   0 
  -8  -3  -3    2.63    3.41   0 
  -8  -2  -5   30.71    3.68   0 
  -8   0  -8   81.86    4.14   0 
  -7  -3  -3   27.69    3.67   0 
  -7   0  -8  157.14    4.33   0 
  -7   4 -10   18.75    4.71   0 
  -6  -4   0   27.80    3.74   0 
  -6  -3  -3   19.05    3.02   0 
  -6  -2  -5   15.64    3.48   0 
  -5  -5   6  119.57    4.59   0 
  -5  -4   1  104.97    4.22   0 
  -5   2  -9    5.53    4.55   0 
  -4   4  -9  205.57    6.81   0 
  -3  -4   5  163.54    4.44   0 
  -3   3  -8    9.86    5.25   0 
  -2  -3   3  655.67    7.39   0 
  -1  -2  19   75.77    5.79   0 
  -1  -1  22   18.11    4.71   0 
  -1   1  -4 1229.12   12.89   0 
  -1   5  -6   48.55    9.68   0 
  -1   8  -4    4.17    5.54   0 
  -1  10   0    1.74    4.04   0 
   0  -2   9    1.33    6.85   0 
   0  -2  12   15.25    6.39   0 
   0  -1  18   61.70    5.05   0 
   0   1  22    2.82    3.68   0 
   0   4  -4  367.35    8.42   0 
   0  10   4    3.99    3.70   0 
   1   0   5    0.50    4.09   0 
   1   0  15    3.48    4.50   0 
   1   1   2 2666.17   14.19   0 
   1   1  18   66.72    4.77   0 
   1   3  20   24.84    3.78   0 
   1   4  -1  490.78    6.33   0 
   1   5  -1   24.70    4.51   0 
   1   9   8   13.58    3.10   0 
   2   2   8   70.23    4.18   0 
   2   2   9  199.56    4.75   0 
   2   2  10   50.16    4.24   0 
   2   2  11  207.35    4.68   0 
   2   3   5   65.13    3.98   0 
   2   3  14   82.52    4.04   0 
   2   4   4  246.51    4.61   0 
   2   4  15   48.42    3.85   0 
   2   5   4   69.10    4.29   0 
   2   5  14   35.38    3.16   0 
   2   5  15   56.99    3.98   0 
   2   6   5   68.78    4.17   0 
   2   6   6   30.03    3.89   0 
   2   6  13   78.15    3.93   0 
   2   7   9    5.96    3.70   0 
   2   7  10    0.62    3.79   0 
 -10  -3  -2   16.67    3.60   0 
 -10  -2  -4   20.21    3.54   0 
  -9  -5   4   10.31    3.63   0 
  -8  -4   0    3.38    3.57   0 
  -7  -5   4   57.28    3.84   0 
  -7  -4   0    4.97    3.72   0 
  -7  -2  -5    7.77    3.04   0 
  -6  -5   5   88.51    3.99   0 
  -5  -5   7   10.33    3.70   0 
  -5  -5  16    4.26    5.32   0 
  -5  -3  -2   99.72    3.45   0 
  -5  -1  -6    0.56    3.09   0 
  -4  -4   3   12.64    4.65   0 
   0   5  -4   63.74    5.51   0 
   0   9   0   -3.20    4.38   0 
   0  10   3    2.72    3.74   0 
   1   2  20   23.55    3.82   0 
   1   3  21   -0.96    3.56   0 
   1   8   2    3.31    3.82   0 
   1   9   5   20.42    3.79   0 
   2   2   7  105.72    4.42   0 
   2   2  12  101.22    4.36   0 
   2   2  13   15.49    4.01   0 
   2   3  15   23.42    3.81   0 
   2   4  16   42.34    3.71   0 
   2   5  16   22.23    3.63   0 
   2   6   4   69.37    4.28   0 
   2   6  15   22.72    3.74   0 
   2   7   6    6.09    3.80   0 
   2   7   7   12.32    3.77   0 
   2   7   8    7.16    2.98   0 
   2   7  12    4.41    3.42   0 
 -10  -1  -5    1.30    3.55   0 
  -9  -4   1    7.89    3.50   0 
  -9  -3  -2    2.57    3.28   0 
  -9   0  -7    4.00    3.49   0 
  -9   1  -8   33.29    3.68   0 
  -8  -5   5   28.74    3.88   0 
  -8  -1  -6  174.15    4.15   0 
  -7  -5   5    8.33    3.91   0 
  -7  -1  -6    9.10    3.71   0 
  -7   2  -9    2.98    3.99   0 
  -6  -5   6    1.57    3.68   0 
  -6  -4   1  135.76    4.18   0 
  -6  -3  -2  270.32    4.32   0 
  -6  -1  -6  409.24    5.00   0 
  -6   2  -9   57.53    4.26   0 
  -5  -5   8   61.77    4.17   0 
  -5   0  -7    4.68    3.87   0 
  -5   1  -8   38.95    4.22   0 
  -4  -2  -3   67.78    3.80   0 
  -4  -1  -5   -1.75    3.74   0 
  -3  -4   6   51.50    4.39   0 
  -3  -3   1   36.23    3.95   0 
  -3  -1  -4  468.60    5.45   0 
  -3   9  -6    2.31    8.29   0 
   0  -2  13  110.84    6.69   0 
   0   2  -3   29.62    8.41   0 
   0   8  -2    3.77    4.34   0 
   0  10   2    4.75    4.33   0 
   1   0  16  367.53    5.95   0 
   1   1  19    6.13    4.09   0 
   1   2   0  461.53    7.07   0 
   1   3  -1  111.22    5.29   0 
   1   6  -1   79.28    4.26   0 
   1   9   4    8.44    3.76   0 
   2   2  14    7.05    3.81   0 
   2   3  16   49.72    3.81   0 
   2   4   3  185.04    4.64   0 
   2   4  17    2.78    3.66   0 
   2   5   3   85.61    4.39   0 
   2   5  17   48.14    3.89   0 
   2   6  16    3.87    3.57   0 
   2   7  14    8.66    3.42   0 
   2   7  15   30.23    3.56   0 
 -10  -4   2   -0.81    3.50   0 
 -10  -3  -1    4.04    2.79   0 
  -9  -5   6    4.83    3.54   0 
  -8  -3  -2  114.02    3.38   0 
  -8  -2  -4    7.23    3.50   0 
  -8   0  -7   -2.16    3.46   0 
  -8   1  -8   31.77    3.67   0 
  -8   3  -9    7.22    4.43   0 
  -7  -4   1    6.44    3.78   0 
  -7  -3  -2    3.87    3.71   0 
  -7  -2  -4  177.35    4.26   0 
  -7   0  -7   -1.16    3.65   0 
  -7   1  -8   77.58    4.11   0 
  -6  -2  -4    6.94    3.49   0 
  -6   0  -7    2.73    3.93   0 
  -6   1  -8  386.05    5.18   0 
  -5  -5   9   27.44    4.73   0 
  -5  -5  15   48.93    5.19   0 
  -5   3  -9  104.27    5.12   0 
  -5   6  -9   13.81    6.00   0 
  -4   2  -8    7.08    4.09   0 
  -4   7  -8    4.09    8.81   0 
  -3  -4  16   62.52    9.28   0 
  -3   4  -8   99.71    6.69   0 
  -3   5  -8   10.75    7.41   0 
  -2  -2   0 1728.02    9.97   0 
  -2   8  -6    5.19    7.10   0 
  -1  -2  20   16.26    5.54   0 
   0  -2   8  139.58    9.34   0 
   0  -2  14   30.73    5.89   0 
   0  -1  19    5.77    4.61   0 
   0   6  -4    1.82    5.09   0 
   1   0  17    5.89    4.50   0 
   1   2  21   12.56    3.70   0 
   2   2   5   12.15    3.70   0 
   2   2  15   18.47    3.69   0 
   2   3   3   45.84    3.80   0 
   2   3  17   32.30    3.77   0 
   2   4  18   13.57    3.58   0 
   2   6   3  188.54    4.73   0 
   2   6  17   15.14    3.61   0 
   2   7   4   17.76    4.06   0 
   2   8   8    5.55    3.70   0 
   2   8   9   63.56    3.25   0 
   2   8  10    2.00    2.95   0 
   2   8  11   34.28    3.25   0 
 -10  -4   3   14.16    3.58   0 
  -9  -5   7   12.21    3.64   0 
  -9  -3  -1   23.78    3.43   0 
  -9  -1  -5    4.71    3.59   0 
  -9   2  -8   10.40    3.79   0 
  -8  -5   6    8.94    2.94   0 
  -8   4  -9   11.10    4.52   0 
  -7   3  -9   15.21    3.96   0 
  -6  -5   8    0.60    4.45   0 
  -6  -4   2  161.02    4.34   0 
  -6   3  -9   15.02    4.62   0 
  -5  -5  10   20.62    3.86   0 
  -5  -5  11   29.46    4.51   0 
  -5  -5  12   76.62    5.25   0 
  -5  -5  13   35.74    5.12   0 
  -5  -5  14   11.19    4.81   0 
  -5  -1  -5   17.68    3.89   0 
  -5   4  -9   52.47    4.88   0 
  -4  -4   4  183.96    4.68   0 
  -4  -3   0   14.22    3.90   0 
  -4   0  -6   95.40    4.41   0 
  -4   1  -7   40.65    4.59   0 
  -3  -4   7  160.75    5.03   0 
  -2  -3   4   21.15    3.77   0 
  -2   4  -7  384.37   11.18   0 
  -2   9  -5    5.53    5.82   0 
  -1   6  -6   15.95    7.89   0 
   0   0  22   38.19    4.41   0 
   0  10   1   -1.49    4.39   0 
   1   1  20   75.25    5.01   0 
   1   5  -2   19.42    4.47   0 
   1   7  -1   -0.53    4.59   0 
   1   8   0    5.05    4.53   0 
   1   9   2    5.65    4.30   0 
   2   1   8  740.87    6.55   0 
   2   1   9   -1.85    3.98   0 
   2   1  11   27.94    4.14   0 
   2   1  12  104.17    4.29   0 
   2   1  13   20.56    4.67   0 
   2   2  16   34.09    3.84   0 
   2   4   2  156.20    4.66   0 
   2   5   2   44.82    3.57   0 
   2   6   2    5.46    4.05   0 
   2   7   3  112.82    4.33   0 
   2   8   6    5.49    3.60   0 
 -10  -3   0   22.53    2.94   0 
 -10  -2  -2    7.86    3.43   0 
 -10  -1  -4   14.84    3.61   0 
  -9  -2  -3   -2.62    2.85   0 
  -9   0  -6   62.02    3.85   0 
  -9   1  -7    1.13    3.67   0 
  -8  -3  -1    4.32    3.31   0 
  -8  -1  -5   13.15    3.62   0 
  -8   2  -8  102.78    4.27   0 
  -7  -5   7    1.15    3.82   0 
  -7  -3  -1  185.46    4.34   0 
  -7   4  -9    6.22    4.38   0 
  -6  -5   9   91.00    4.99   0 
  -6  -5  17    7.67    5.22   0 
  -6  -3  -1   15.49    3.59   0 
  -6   6  -9   28.33    5.56   0 
  -5  -4   3  149.35    4.54   0 
  -5  -2  -3   30.58    3.80   0 
  -5   5  -9   80.02    5.55   0 
  -3  -4   8   73.72    5.33   0 
  -3  -3   2  370.53    5.38   0 
  -3   0  -5   -2.00    3.79   0 
  -3   2  -7   34.66    4.65   0 
  -1  10  -2    6.26    4.30   0 
   0   8  -3   17.54    4.88   0 
   1  -1  10    6.95    4.97   0 
   1  -1  11    2.26    4.79   0 
   1  -1  12    9.08    4.64   0 
   1   0  18   31.38    4.39   0 
   1   4  -2   30.11    4.57   0 
   1   6  -2    4.27    4.43   0 
   2   1   7  185.70    4.71   0 
   2   1  14  181.75    4.48   0 
   2   2   4  333.76    5.04   0 
   2   2  17   -1.63    3.75   0 
 -10  -4   4    3.54    2.87   0 
 -10  -3   1    5.14    3.45   0 
 -10   0  -5    1.64    3.54   0 
  -9  -5   9    7.57    3.68   0 
  -9  -4   3   22.53    3.04   0 
  -9  -3   0    7.57    3.51   0 
  -8  -5   8    8.71    3.67   0 
  -8  -2  -3   12.95    2.84   0 
  -8   0  -6   12.57    3.66   0 
  -8   1  -7    5.32    3.75   0 
  -7  -5   9    0.51    4.45   0 
  -7  -2  -3   13.57    3.61   0 
  -7  -1  -5   54.09    3.33   0 
  -7   2  -8  128.38    4.87   0 
  -7   5  -9   31.41    4.59   0 
  -6  -5  10    2.45    4.24   0 
  -6  -4   3  165.70    4.36   0 
  -6  -2  -3  341.70    4.53   0 
  -6  -1  -5    0.68    2.81   0 
  -6   4  -9   23.37    4.42   0 
  -6   5  -9   39.43    5.14   0 
  -5  -3   0  338.62    5.01   0 
  -5   0  -6  641.66    5.95   0 
  -5   2  -8  191.44    4.67   0 
  -4  -4   5    5.16    3.66   0 
  -4  -2  -2  194.84    4.44   0 
  -4  -1  -4  359.18    5.07   0 
  -3  -2  -1    5.44    3.56   0 
  -3   1  -6   29.57    4.67   0 
  -2  -1  -2  820.10    7.20   0 
  -2   1  -5   17.65    4.63   0 
  -2   2  -6  152.49    5.95   0 
   0  -2  15   33.17    5.72   0 
   0   7  -4   12.41    5.10   0 
   0  10   0    6.01    4.52   0 
   1  -1   9    6.25    5.14   0 
   1  -1  13   21.73    4.34   0 
   1   1   1    1.64    4.86   0 
   1   1  21    4.74    3.66   0 
   1   9   1    8.80    4.37   0 
   2   1  15    2.74    3.55   0 
   2   2  18   77.59    4.30   0 
   2   3   2   22.00    3.85   0 
   2   4   1    2.29    4.11   0 
   2   5   1  123.83    4.64   0 
   2   6   1  146.93    4.76   0 
   2   9   6   10.76    3.88   0 
   2   9   7    7.35    3.85   0 
   3   4   9   32.25    3.76   0 
   3   4  10  213.93    4.40   0 
   3   4  11    2.36    3.80   0 
   3   4  12  138.82    4.13   0 
   3   5   8    8.11    3.64   0 
   3   5   9  134.61    4.20   0 
   3   5  10    0.09    2.85   0 
   3   5  11   78.76    3.17   0 
   3   5  12    4.17    3.59   0 
   3   5  13   55.65    3.90   0 
   3   6   9   22.38    3.66   0 
   3   6  10   27.55    3.69   0 
   3   6  12   15.61    3.66   0 
 -10  -2  -1   10.48    3.52   0 
 -10  -1  -3    2.27    3.51   0 
  -9  -4   4    2.55    3.58   0 
  -9  -1  -4   11.68    2.97   0 
  -9   2  -7   24.38    4.35   0 
  -8  -3   0   64.04    3.67   0 
  -8   3  -8   38.01    4.60   0 
  -7  -4   3    6.65    3.81   0 
  -7   0  -6  214.73    4.47   0 
  -7   1  -7    9.06    3.98   0 
  -6  -5  12   19.23    4.24   0 
  -6  -5  13   19.59    5.04   0 
  -6  -3   0  351.95    4.71   0 
  -6   0  -6  111.86    4.45   0 
  -6   1  -7   -0.48    4.33   0 
  -6   2  -8   33.21    4.16   0 
  -5  -4   4   22.79    4.03   0 
  -5   1  -7    4.05    3.85   0 
  -4  -3   1  141.69    4.49   0 
  -3  -4   9   38.50    4.94   0 
  -3  -4  15    3.43    7.67   0 
  -3  -1  -3  309.66    4.96   0 
  -2  -3   5   96.65    5.46   0 
  -1  -2  21    4.26    5.64   0 
  -1  -1   0  958.94   10.82   0 
  -1   8  -5   52.27    6.08   0 
  -1   9  -4    6.22    5.66   0 
   0  -2  16  145.57    6.54   0 
   1  -1  14   28.60    4.38   0 
   1   0  19    2.25    4.35   0 
   2   1  16  147.03    4.61   0 
   2   2   3   13.01    3.76   0 
   2   2  19    0.29    4.26   0 
   2   3  20    8.50    3.73   0 
   2   9   5    8.77    3.85   0 
   3   3  10   58.78    4.13   0 
   3   3  11   22.27    3.87   0 
   3   4   7   26.27    3.72   0 
   3   4   8   91.05    3.17   0 
   3   4  13   25.68    3.23   0 
   3   4  14   56.92    3.91   0 
   3   5   6   47.34    3.70   0 
   3   5   7  123.13    3.52   0 
   3   5  14   10.43    3.03   0 
   3   5  15    7.88    3.60   0 
   3   6   7    1.80    3.80   0 
   3   6   8   48.10    3.36   0 
   3   6  13   16.21    2.91   0 
   3   6  14   15.47    3.59   0 
   3   7   9   20.89    3.79   0 
   3   7  11  100.45    4.02   0 
 -10   0  -4   11.49    3.62   0 
  -9  -3   1   19.37    3.57   0 
  -9   0  -5    5.89    3.65   0 
  -9   1  -6   32.28    3.84   0 
  -8  -5  11   16.40    3.79   0 
  -8  -5  12    3.73    4.26   0 
  -8  -4   4    6.81    3.66   0 
  -8  -1  -4  229.42    4.44   0 
  -7  -5  11    4.03    4.28   0 
  -7  -3   0    6.20    2.90   0 
  -6  -4   4  143.24    4.25   0 
  -5  -2  -2  473.16    5.15   0 
  -5  -1  -4   13.05    4.12   0 
  -4  -4   6  198.22    4.70   0 
  -3  -4  10  133.36    6.27   0 
  -2  -2   1   26.79    4.28   0 
  -1   0  -2  451.93    9.00   0 
   0  -1  21    6.57    4.81   0 
   1  -1   8  208.87    5.69   0 
   1  -1  15   -1.03    4.22   0 
   1   9   0    6.61    4.60   0 
   1  10   2    0.46    4.38   0 
   2   1  17   13.62    3.96   0 
   2   5   0   35.53    4.92   0 
   2   7   1  222.09    4.75   0 
   2   8   2    6.70    3.97   0 
   2   9   4    8.19    4.00   0 
   3   3   8    9.16    4.02   0 
   3   3   9  144.18    3.63   0 
   3   3  12   27.80    3.21   0 
   3   3  13   66.62    3.92   0 
   3   3  14   82.96    4.25   0 
   3   4   6  484.70    5.19   0 
   3   4  15   70.55    3.40   0 
   3   4  16   39.27    4.02   0 
   3   5   5  221.73    4.54   0 
   3   5  16   20.96    3.66   0 
   3   6   6   89.91    3.60   0 
   3   6  15   27.11    3.05   0 
   3   6  16    4.02    3.51   0 
   3   7   7   47.05    3.90   0 
   3   7   8    2.39    3.01   0 
   3   7  13   25.99    3.07   0 
   3   7  14    3.90    3.56   0 
 -10  -2   0    1.12    3.41   0 
 -10   1  -5   -1.08    3.71   0 
  -9  -4   5   10.25    3.62   0 
  -9  -2  -1    3.49    3.47   0 
  -9  -1  -3    3.11    3.72   0 
  -8  -3   1    8.45    3.60   0 
  -8   0  -5    3.43    3.74   0 
  -8   2  -7    5.73    3.96   0 
  -8   4  -8   13.24    4.46   0 
  -7  -5  13   11.65    3.96   0 
  -7  -5  14    7.51    4.40   0 
  -7  -5  15    7.60    4.58   0 
  -7  -2  -2   92.03    3.85   0 
  -7  -1  -4   -0.24    3.67   0 
  -7   3  -8   19.90    3.86   0 
  -6  -2  -2    6.78    3.73   0 
  -6  -1  -4  325.52    4.79   0 
  -6   3  -8   77.69    5.38   0 
  -5  -4   5  225.82    4.91   0 
  -5   3  -8    1.53    4.69   0 
  -4  -4  19   18.47    7.45   0 
  -4   0  -5    1.49    4.04   0 
  -3  -4  11   49.35    5.68   0 
  -3  -4  14   72.81    7.62   0 
   0  10  -1   -1.11    4.76   0 
   1  -1  16   52.81    5.10   0 
   1   0   3   -0.10    5.47   0 
   1   0  20   15.98    4.29   0 
   1   3  -2  886.13    8.96   0 
   1   5  -3   14.81    5.18   0 
   2   1   5   15.38    3.83   0 
   2   1  18   45.73    4.46   0 
   2   2  20   59.77    4.14   0 
   2   3   1  522.21    6.07   0 
   2   6   0    4.58    4.10   0 
   3   3   7  143.65    4.28   0 
   3   3  15   25.00    3.72   0 
   3   4   5   16.55    3.96   0 
   3   4  17   18.62    3.69   0 
   3   6   5   45.25    3.28   0 
   3   7   6    4.72    3.85   0 
   3   8   8    5.21    3.65   0 
   3   8   9    6.25    3.79   0 
   3   8  10    4.75    3.74   0 
   3   8  11    1.38    3.00   0 
 -10  -3   3    2.28    3.61   0 
 -10  -1  -2   57.42    3.33   0 
  -9  -3   2    6.40    3.62   0 
  -9   3  -7    3.41    3.89   0 
  -8  -4   5   21.81    3.84   0 
  -8   1  -6  167.22    4.35   0 
  -7  -4   5  118.05    4.30   0 
  -7  -3   1   19.94    3.81   0 
  -7   0  -5    3.98    3.83   0 
  -6  -4   5   33.31    4.05   0 
  -6  -3   1    8.01    3.65   0 
  -5   7  -8    0.56    6.52   0 
  -4  -4   7    1.56    3.71   0 
  -4  -3   2    2.46    3.95   0 
  -4  -2  -1    8.30    3.68   0 
  -4   1  -6  819.77    6.89   0 
  -4   2  -7  450.33    5.95   0 
  -4   4  -8   37.61    5.51   0 
  -3  -4  12   75.18    6.48   0 
  -3  -4  13  100.89    7.22   0 
  -1   7  -6   35.73    7.99   0 
   0  -2  17    8.49    5.44   0 
   0   5  -5   76.13    7.10   0 
   0   8  -4    5.23    5.05   0 
   0   9  -3   36.21    5.13   0 
   1  -1   7  478.76    7.74   0 
   1   2  -1  924.00    9.50   0 
   1   6  -3  117.20    5.25   0 
   1   8  -2    2.16    4.87   0 
   2   0  10    6.48    4.44   0 
   2   0  11   -1.39    3.69   0 
   2   0  12  121.30    4.43   0 
   2   0  13    2.11    4.47   0 
   2   2  21   -3.31    4.68   0 
   2   4   0  302.41    5.46   0 
   2   7   0    5.86    4.17   0 
   3   2   9   16.84    4.17   0 
   3   2  10  306.18    4.99   0 
   3   2  11  153.16    4.51   0 
   3   2  12  207.92    4.67   0 
   3   2  13    7.89    3.98   0 
   3   3   6  232.02    4.49   0 
   3   4   4  226.98    4.93   0 
   3   4  18    2.27    3.60   0 
   3   6   4    8.54    3.92   0 
   3   7   5   99.03    3.64   0 
   3   8   6    8.07    3.86   0 
   3   8   7    2.84    4.10   0 
 -10   0  -3    4.72    3.64   0 
  -9  -4   7    2.53    3.61   0 
  -9   0  -4  104.44    3.55   0 
  -9   1  -5    2.70    3.65   0 
  -9   2  -6   44.72    3.96   0 
  -8  -4   6   81.39    4.04   0 
  -8  -3   2   95.35    4.12   0 
  -8  -2  -1    5.09    2.86   0 
  -8  -1  -3   -0.12    2.97   0 
  -7   1  -6    8.17    3.86   0 
  -7   2  -7    2.28    3.74   0 
  -7   4  -8   40.66    4.09   0 
  -7   6  -8    5.97    4.82   0 
  -6   0  -5    2.06    4.17   0 
  -6   2  -7   22.29    4.46   0 
  -6   7  -8   18.15    5.81   0 
  -5  -4   6    5.41    4.02   0 
  -5   0  -5   -0.92    4.01   0 
  -4  -1  -3  100.66    3.48   0 
  -4   6  -8    1.36    6.81   0 
  -3   0  -4 2645.69   11.40   0 
  -3   3  -7  155.88    5.98   0 
  -2  -3   6  150.01    6.02   0 
  -1  -2  22   20.34    6.29   0 
   0  -1  22    7.48    4.96   0 
   0   6  -5  163.56    6.87   0 
   1  -1  17    8.24    4.30   0 
   1   0  21    1.35    4.31   0 
   1   7  -3    5.52    5.26   0 
   1   9  -1    0.85    4.40   0 
   2   0   9    0.68    3.99   0 
   2   0  14  138.40    4.60   0 
   2   0  15    1.37    4.58   0 
   2   9   2   -2.58    3.94   0 
   3   2   8 1233.80    7.34   0 
   3   2  14  193.65    4.53   0 
   3   2  15   14.80    4.10   0 
   3   3   5  142.37    4.24   0 
   3   3  17   -0.70    3.04   0 
   3   3  18   34.44    3.81   0 
   3   5   3  153.37    4.68   0 
   3   6   3   32.75    4.26   0 
   3   7   4    1.51    4.21   0 
   3   8   5    4.76    3.60   0 
 -10  -3   4   12.52    3.02   0 
 -10  -2   1    8.49    3.01   0 
 -10  -1  -1    0.81    3.61   0 
 -10   1  -4    7.30    3.68   0 
  -9  -4   8    2.01    3.85   0 
  -9  -3   3   60.08    3.58   0 
  -9  -2   0   71.91    3.33   0 
  -9  -1  -2   -2.72    3.12   0 
  -8   3  -7    7.63    3.93   0 
  -7  -3   2   81.12    4.19   0 
  -7  -2  -1    1.31    3.14   0 
  -7  -1  -3   -0.03    3.74   0 
  -7   5  -8    0.23    4.36   0 
  -6  -4   6  123.46    4.42   0 
  -6  -2  -1   58.88    3.91   0 
  -6   1  -6  405.57    5.59   0 
  -6   4  -8    4.76    4.54   0 
  -5  -4   7   76.61    4.94   0 
  -5  -3   2  326.95    5.22   0 
  -5  -2  -1  165.30    3.73   0 
  -5  -1  -3    5.02    3.74   0 
  -5   1  -6    4.90    3.98   0 
  -5   4  -8  175.36    5.62   0 
  -4  -4   8  108.66    4.50   0 
  -3  -3   4  957.88    7.98   0 
  -3  -1  -2 2030.62    9.79   0 
  -2  -1  -1   26.12    4.48   0 
  -2   0  -3   -0.41    4.32   0 
   0  -2  18   21.23    5.99   0 
   0  10  -2    7.59    4.57   0 
   1  -1  18   65.36    5.40   0 
   1   4  -3  635.04    7.90   0 
   1  10   0    6.33    4.69   0 
   2   0   8    2.33    3.89   0 
   2   0  16   29.96    5.00   0 
   2   1  20    6.38    4.47   0 
   2   5  -1  576.60    6.29   0 
   2   6  -1    5.89    4.13   0 
   2   8   0    6.82    4.77   0 
   3   2   7   34.55    4.38   0 
   3   2  16   63.87    4.20   0 
   3   4   3   68.39    4.68   0 
   3   9   7   16.05    3.79   0 
 -10  -3   5    5.09    3.79   0 
 -10  -2   2   10.94    3.66   0 
  -9  -3   4   13.43    3.95   0 
  -9   3  -6   12.09    3.87   0 
  -8  -4   7   11.36    3.76   0 
  -8  -3   3   44.93    4.02   0 
  -8  -2   0    8.82    3.55   0 
  -8  -1  -2  171.26    4.42   0 
  -8   1  -5   14.73    3.83   0 
  -7  -4   7   93.47    4.28   0 
  -6  -4   7    7.55    4.32   0 
  -6  -3   2   86.35    3.44   0 
  -6  -1  -3   12.18    3.05   0 
  -6   5  -8   41.25    5.68   0 
  -6   6  -8    1.56    5.19   0 
  -5   5  -8    7.96    5.07   0 
  -5   6  -8   15.52    5.62   0 
  -4  -4   9   63.64    4.82   0 
  -4  -4  18    2.03    7.02   0 
  -4  -3   3  256.96    5.09   0 
   2   0  17    1.82    4.61   0 
   2   3   0  427.07    6.05   0 
   2   7  -1  271.70    5.34   0 
   3   2  17   25.63    4.14   0 
   3   6   2   16.30    4.24   0 
   3   9   5    9.40    3.87   0 
   3   9   6   -3.60    3.11   0 
   4   5   9   34.65    3.98   0 
   4   5  11   30.66    3.86   0 
   4   5  12   39.56    3.93   0 
   4   5  14   57.99    3.98   0 
   4   6  10    2.01    3.78   0 
   4   6  11   46.32    3.86   0 
   4   6  12    2.90    3.62   0 
   4   6  13   16.68    3.99   0 
   4   6  14    1.96    3.66   0 
   4   7  12    8.43    3.65   0 
 -10  -1   0   70.91    4.12   0 
 -10   0  -2    3.20    3.04   0 
 -10   1  -3   -1.96    3.73   0 
  -9  -4  10    4.52    3.81   0 
  -9  -2   1    1.31    3.00   0 
  -9   1  -4   16.99    3.66   0 
  -9   2  -5    2.62    3.70   0 
  -8   4  -7   11.02    3.94   0 
  -7  -3   3   93.99    4.44   0 
  -7  -2   0  268.90    4.55   0 
  -7   0  -4  128.98    4.52   0 
  -5  -4   8    5.34    4.56   0 
  -4  -4  10  125.67    5.70   0 
  -4  -2   0  229.79    4.78   0 
  -4   0  -4   63.38    4.44   0 
  -3   1  -5   -1.37    4.23   0 
  -3   2  -6  800.42    8.28   0 
  -2  -2   2  718.76    7.85   0 
  -2   9  -6    7.50    8.72   0 
  -1  -2   4    5.67    6.01   0 
   1  -1  19    7.20    5.12   0 
   1   8  -3  180.44    5.57   0 
   1   9  -2   11.87    4.72   0 
   2   0   7   -1.52    4.24   0 
   2   1  21    2.86    3.63   0 
   2   4  -1   31.76    4.38   0 
   3   1  11    1.98    3.98   0 
   3   1  12  177.93    4.90   0 
   3   1  13   80.33    4.41   0 
   3   9   4    6.76    4.01   0 
   4   4   9  210.33    4.56   0 
   4   4  10    1.04    3.94   0 
   4   4  11   64.18    3.36   0 
   4   4  12   35.47    3.26   0 
   4   4  13    8.94    3.87   0 
   4   4  14   29.16    4.04   0 
   4   5   8   98.52    3.54   0 
   4   5  16    4.14    3.76   0 
   4   6   7  136.13    4.23   0 
   4   6   8    1.58    3.04   0 
   4   7   8    8.30    4.05   0 
   4   7   9    3.34    2.95   0 
   4   7  10    1.04    3.08   0 
 -10  -2   3    7.40    3.72   0 
 -10   2  -4   15.07    3.83   0 
  -9   4  -6   20.50    4.04   0 
  -8  -4   9   -0.41    3.89   0 
  -8  -2   1  161.22    4.34   0 
  -8   0  -3    6.39    3.84   0 
  -8   5  -7    5.85    4.60   0 
  -7  -1  -2   16.33    3.76   0 
  -7   1  -5   64.59    4.21   0 
  -7   2  -6  265.83    4.94   0 
  -6  -4   8   76.32    4.08   0 
  -6  -3   3   41.38    4.26   0 
  -6  -2   0  346.74    4.89   0 
  -6   0  -4   36.82    4.19   0 
  -6   3  -7    5.32    4.10   0 
  -5  -3   3  107.97    4.54   0 
  -5  -2   0  433.11    5.25   0 
  -5   3  -7   50.04    4.88   0 
  -4  -1  -2  466.49    5.53   0 
  -4   3  -7   24.54    4.75   0 
  -3  -2   1  331.02    5.45   0 
  -2  -3   7   43.02    5.98   0 
   0  -2  19    4.62    5.37   0 
   0   9  -4    4.40    5.62   0 
   2   0  18   75.27    4.34   0 
   2   1   3  535.39    6.62   0 
   2   6  -2  227.76    5.66   0 
   2   8  -1    6.32    4.21   0 
   2   9   0    7.15    4.23   0 
   3   1   9   12.05    4.15   0 
   3   1  10   39.22    3.50   0 
   3   1  14   79.58    4.32   0 
   3   1  15    2.48    3.80   0 
   3   2   5  136.21    4.46   0 
   3   2  19    7.63    4.03   0 
   3   3   3   33.91    3.35   0 
   3   5   1   62.06    4.57   0 
   3   6   1   56.28    4.47   0 
   4   4   7  209.94    4.47   0 
   4   4   8   34.77    3.32   0 
   4   4  15    3.95    3.09   0 
   4   4  16   37.75    3.75   0 
   4   5   6   15.08    3.80   0 
   4   6   6   12.96    4.09   0 
   4   7   6    8.30    3.90   0 
   4   7   7    5.00    3.24   0 
   4   8   8   -2.44    3.92   0 
 -10  -1   1   -1.61    3.64   0 
 -10   0  -1    2.90    3.81   0 
  -9  -2   2   31.10    3.30   0 
  -9   0  -2  122.10    4.48   0 
  -8  -1  -1    9.85    3.74   0 
  -8   3  -6   65.45    4.35   0 
  -7  -4   9   87.86    4.43   0 
  -7  -3   4  146.01    4.59   0 
  -7   4  -7   31.99    4.58   0 
  -6  -4   9    7.84    4.69   0 
  -6  -1  -2  633.03    5.80   0 
  -6   1  -5    4.29    4.21   0 
  -6   2  -6   12.20    4.48   0 
  -5  -4   9  104.26    4.70   0 
  -5  -1  -2   23.45    3.84   0 
  -4  -4  11   56.58    4.94   0 
  -4  -4  17   51.49    6.53   0 
  -4  -3   4  128.33    4.63   0 
  -4   1  -5   -1.27    4.08   0 
  -4   2  -6    3.48    4.42   0 
  -3  -3   5    7.67    4.16   0 
  -2   3  -6  544.57    9.56   0 
  -1   8  -6   -0.67    7.53   0 
   0   4  -5    1.82    7.49   0 
   0  10  -3    3.91    5.09   0 
   1  -1  20   99.58    5.71   0 
   1   1   0 1034.34   11.43   0 
   1   5  -4  279.20    6.75   0 
   2   0  19    0.80    4.56   0 
   2   5  -2    1.60    4.61   0 
   2   7  -2    5.23    4.98   0 
   3   1  16  138.90    4.51   0 
   3   2  20   -0.56    3.97   0 
   4   3  10  241.24    4.74   0 
   4   3  11   13.51    3.42   0 
   4   3  12   77.63    3.60   0 
   4   3  13   11.63    3.27   0 
   4   3  14   89.74    4.25   0 
   4   3  15   34.01    3.95   0 
   4   4   6    7.55    3.79   0 
   4   4  17    8.20    3.77   0 
   4   5   5   15.43    4.01   0 
   4   7   5    6.37    3.80   0 
   4   8   7   43.11    4.10   0 
 -10  -3   8   27.52    3.96   0 
 -10   1  -2   55.72    3.98   0 
  -9  -1   0    9.58    3.09   0 
  -9   1  -3    3.92    3.90   0 
  -8  -4  11    6.23    3.85   0 
  -8  -3   5   11.78    4.02   0 
  -8   1  -4  213.50    4.80   0 
  -8   2  -5   27.64    4.08   0 
  -7  -4  10    1.32    3.89   0 
  -7  -2   1   11.43    3.67   0 
  -7   0  -3    1.02    3.96   0 
  -7   5  -7    6.20    4.53   0 
  -6  -3   4   -2.16    4.12   0 
  -5  -4  10   33.89    4.80   0 
  -5  -4  19    0.83    6.11   0 
  -5  -3   4  148.32    4.70   0 
  -5   1  -5   14.52    4.24   0 
  -5   2  -6  135.40    4.74   0 
  -4  -4  16   11.58    5.98   0 
  -3   4  -7   30.30    6.11   0 
  -2   1  -4 1047.49    9.40   0 
   0  -2  20   35.57    6.50   0 
   0   8  -5   11.70    6.06   0 
   2   0  20   60.89    4.82   0 
   3   1   7    5.38    4.20   0 
   3   1  17   -1.52    4.07   0 
   3   2   4  725.72    6.27   0 
   3   3   2  504.96    5.70   0 
   3   4   1  431.52    5.64   0 
   3   6   0    4.91    5.08   0 
   3   8   1   69.31    4.52   0 
   3   9   2    2.20    4.64   0 
   4   3   8  329.13    4.86   0 
   4   3  16   25.40    4.00   0 
   4   6   4   25.57    4.24   0 
 -10  -1   2   42.90    3.84   0 
 -10   0   0    4.87    3.66   0 
 -10   2  -3    6.98    3.07   0 
  -9  -3   7   20.29    3.99   0 
  -9  -2   3    1.75    2.97   0 
  -9   2  -4   78.50    4.19   0 
  -8  -4  13    2.46    4.37   0 
  -8  -2   2    7.28    3.19   0 
  -8   0  -2   18.53    3.88   0 
  -8   4  -6   32.02    4.17   0 
  -7  -3   5    4.89    4.10   0 
  -7  -1  -1   17.07    3.77   0 
  -7   3  -6    5.85    4.57   0 
  -7   6  -7   10.27    4.51   0 
  -6  -4  10   60.83    4.62   0 
  -6  -2   1    5.58    3.78   0 
  -6   4  -7   96.53    5.47   0 
  -5  -4  11   65.93    5.30   0 
  -5  -2   1   37.12    3.93   0 
  -5   8  -7    2.38    6.77   0 
  -4  -4  13   37.84    5.25   0 
  -4  -4  14   38.17    5.38   0 
  -4  -4  15  107.21    6.48   0 
  -4  -2   1   12.16    3.40   0 
  -4   8  -7   34.33    8.58   0 
  -3  -1  -1  142.10    4.58   0 
  -3   0  -3    3.29    4.05   0 
  -2   2  -5   13.30    5.21   0 
   1  -1  21   -1.42    5.09   0 
   1   0   2  445.23    9.22   0 
   1   3  -3    0.39    5.28   0 
   1   9  -3    3.74    4.65   0 
   1  10  -2    5.36    4.75   0 
   2   3  -1  204.31    5.37   0 
   2   4  -2  532.17    7.11   0 
   2   8  -2   -1.31    4.73   0 
   3   1  18  132.86    4.88   0 
   3   5   0  214.47    5.02   0 
   3   7   0   40.16    4.24   0 
   4   2  12   64.09    4.29   0 
   4   2  13   11.57    4.68   0 
   4   3   7   16.57    3.17   0 
   4   4   5    8.00    3.28   0 
   4   5   4  128.47    3.88   0 
   4   7   4    4.68    4.00   0 
 -10  -2   5   30.52    3.29   0 
  -9  -3   8   90.37    4.40   0 
  -9   0  -1   -4.69    3.70   0 
  -9   4  -5    2.51    3.87   0 
  -8  -4  15    1.39    3.89   0 
  -8  -1   0  167.16    4.42   0 
  -7  -4  12    7.77    3.85   0 
  -7   2  -5    5.39    3.80   0 
  -6  -4  11    5.67    4.29   0 
  -6  -1  -1   -0.10    3.70   0 
  -6   0  -3    1.22    3.87   0 
  -6   7  -7    3.52    5.69   0 
  -5  -4  12   13.52    5.02   0 
  -5   4  -7    0.57    4.66   0 
  -4  -3   5   51.37    4.22   0 
  -4   0  -3   -0.91    4.19   0 
  -4   4  -7  185.20    6.35   0 
  -3  -3   6  741.71    7.80   0 
  -1  -1   1   17.30    5.37   0 
  -1   1  -3   17.21    5.59   0 
   1   8  -4    4.21    5.20   0 
   2  -1  12  111.38    5.07   0 
   2  -1  13   23.00    4.64   0 
   2  -1  14  189.67    5.66   0 
   2   0   5   -0.40    4.37   0 
   2   0  21    5.46    4.42   0 
   3   1   6   33.20    4.44   0 
   3   1  19    3.22    3.96   0 
   3   8   0    1.39    4.70   0 
   4   2   9    8.91    4.06   0 
   4   2  10   14.72    4.22   0 
   4   2  11   15.24    4.11   0 
   4   2  15    1.36    3.82   0 
   4   3   6  300.10    4.85   0 
   4   4   4   10.48    3.99   0 
   4   5   3  100.07    4.53   0 
   4   7   3   25.27    4.19   0 
   4   8   4    7.72    4.22   0 
   4   9   5    6.84    3.98   0 
   5   6  10   12.33    3.62   0 
   5   6  11   32.91    3.98   0 
   5   6  12    0.33    3.80   0 
   5   6  13   17.96    3.74   0 
 -10  -1   3    3.81    3.62   0 
 -10   1  -1    2.71    3.08   0 
  -9   1  -2    3.30    3.74   0 
  -9   3  -4    1.02    3.95   0 
  -8  -2   3   21.54    3.88   0 
  -8   1  -3    0.12    3.96   0 
  -8   2  -4    7.12    3.93   0 
  -8   3  -5   12.89    4.03   0 
  -7  -4  13   19.56    4.13   0 
  -7  -4  15   15.13    4.80   0 
  -7  -4  16    3.16    4.50   0 
  -7  -3   6  106.70    4.36   0 
  -7  -2   2   97.09    3.48   0 
  -6  -4  18    2.89    5.12   0 
  -6  -3   5   65.45    3.72   0 
  -6   1  -4  291.89    5.21   0 
  -6   3  -6  206.21    5.80   0 
  -6   5  -7    8.96    4.61   0 
  -6   6  -7   54.40    5.46   0 
  -5  -4  13    7.19    4.70   0 
  -5  -4  14   87.89    5.48   0 
  -5  -4  15    2.89    5.03   0 
  -5  -4  16   41.80    5.22   0 
  -5  -3   5   27.49    4.22   0 
  -5  -1  -1   -0.29    3.60   0 
  -5   0  -3   -3.26    3.68   0 
  -4  -1  -1   28.17    3.75   0 
  -2  -3   8  219.56    7.27   0 
  -2  -1   0   12.53    4.56   0 
   0  -2  21    0.07    6.49   0 
   1   2  -2  178.12    6.68   0 
   2  -1  11   31.54    4.40   0 
   2  -1  15    2.61    4.56   0 
   2   1   2  841.77    7.57   0 
   2   2   0 1820.46   10.65   0 
   2   6  -3   81.19    5.11   0 
   3   0  12  463.42    6.18   0 
   3   0  13   -2.95    4.52   0 
   3   2   3    0.24    2.98   0 
   3   3   1  560.13    6.48   0 
   3   4   0   51.69    4.52   0 
   3   6  -1  241.37    5.82   0 
   4   2  16  114.27    4.47   0 
   4   2  17    4.68    3.99   0 
   4   3   5   -1.88    3.57   0 
   5   5   9   80.63    4.18   0 
   5   5  10    7.12    3.76   0 
   5   5  11    7.00    3.18   0 
   5   5  12   17.11    3.04   0 
   5   5  13   14.99    3.16   0 
   5   5  14   11.11    3.89   0 
   5   5  15   12.66    3.95   0 
   5   6   9   12.41    3.28   0 
   5   7   9   33.80    4.05   0 
   5   7  10   -3.01    3.11   0 
   5   7  11   20.99    3.18   0 
 -10   0   1   -4.34    3.00   0 
  -9  -2   5   12.09    4.04   0 
  -9   0   0   46.11    4.03   0 
  -9   2  -3   -1.53    3.82   0 
  -8  -1   1    1.02    3.61   0 
  -8   0  -1   -0.73    3.87   0 
  -7  -1   0   43.52    3.92   0 
  -6  -4  14   35.51    4.71   0 
  -6  -4  15   14.71    4.63   0 
  -6  -4  16    3.17    4.55   0 
  -6  -2   2  328.55    5.00   0 
  -6   2  -5    7.37    4.28   0 
  -5   5  -7  163.96    6.21   0 
  -4  -2   2  421.61    5.90   0 
  -3   1  -4  490.70    6.58   0 
  -3   5  -7  146.88    7.89   0 
  -2   0  -2 1468.01   10.80   0 
   1  -2  14  178.62    7.35   0 
   1  -1   5   79.12    6.29   0 
   1   4  -4  159.88    6.52   0 
   2  -1  10  828.79    7.99   0 
   2  -1  16  158.82    5.33   0 
   2   9  -2    2.85    4.67   0 
   3   0  10  899.09    7.53   0 
   3   0  11   -3.01    4.24   0 
   3   0  14   55.72    4.17   0 
   3   0  15    5.43    4.34   0 
   3   1   5    0.50    4.05   0 
   3   5  -1   30.10    4.47   0 
   3   7  -1   22.80    4.32   0 
   3   9   0    3.35    4.63   0 
   4   2   7  476.05    5.71   0 
   4   2  18   43.83    4.31   0 
   4   4   3  438.15    5.42   0 
   4   5   2   42.11    4.31   0 
   4   6   2   35.58    3.64   0 
   4   7   2    7.98    4.14   0 
   4   9   4   -1.88    3.19   0 
   5   4  10   68.43    4.06   0 
   5   4  11   85.76    4.26   0 
   5   4  12   57.21    3.58   0 
   5   4  13    7.50    3.94   0 
   5   4  14    4.16    3.82   0 
   5   4  15   24.63    3.93   0 
   5   5   8    5.63    3.12   0 
   5   6   7    4.39    3.87   0 
   5   7   8    2.03    3.19   0 
 -10  -1   4   75.09    4.02   0 
 -10   1   0   60.44    4.11   0 
  -9   4  -4   19.54    4.59   0 
  -8  -3   8    3.92    3.88   0 
  -8   4  -5    8.66    4.01   0 
  -7  -3   7    7.64    4.08   0 
  -7   1  -3    4.68    3.87   0 
  -6  -3   6    8.75    3.61   0 
  -6   0  -2   55.54    4.19   0 
  -5  -3   6  222.75    4.96   0 
  -5   1  -4   12.78    4.26   0 
  -5   2  -5    0.30    4.73   0 
  -5   3  -6   18.99    4.29   0 
  -5   6  -7    0.65    5.66   0 
  -5   7  -7  123.10    7.05   0 
  -4  -3   6   29.72    4.27   0 
  -4   1  -4  360.46    5.53   0 
  -4   3  -6  294.42    5.89   0 
  -4   5  -7   21.61    5.93   0 
  -3  -3   7    1.41    4.70   0 
  -3   3  -6  233.51    6.39   0 
  -3   7  -7   48.00    9.56   0 
   0   9  -5   37.39    6.28   0 
   1  -2  12  633.74   10.13   0 
   1  -2  13   26.76    5.96   0 
   1  -2  15  208.56    7.00   0 
   1   9  -4   -2.35    5.16   0 
   1  10  -3   13.04    5.49   0 
   2  -1   9   -0.75    5.23   0 
   2  -1  17   17.10    4.58   0 
   2   8  -3    4.90    4.84   0 
   3   0   9   -3.28    4.71   0 
   3   0  16   36.67    4.23   0 
   3   0  17   -1.09    4.57   0 
   4   2  19    4.70    4.10   0 
   4   3   4  452.48    5.49   0 
   4   6   1   40.06    4.40   0 
   4   8   2    3.99    4.01   0 
   4   9   3    7.73    3.94   0 
   5   4   9   53.30    3.55   0 
   5   4  16    5.59    3.86   0 
   5   5   6    4.34    4.01   0 
   5   5   7  163.12    3.89   0 
   5   7   6    3.46    3.84   0 
   5   8   7    8.07    3.91   0 
 -10   2  -1   11.70    3.88   0 
 -10   3  -2   13.79    3.96   0 
  -9  -3  11    2.46    3.91   0 
  -9  -3  12   14.45    4.68   0 
  -9   1  -1   18.49    3.91   0 
  -8   1  -2  164.20    4.60   0 
  -7   2  -4  167.78    4.78   0 
  -7   3  -5   43.50    4.06   0 
  -7   6  -6    9.70    5.28   0 
  -6  -3   7  192.11    5.72   0 
  -6  -2   3   12.24    4.00   0 
  -6   4  -6   -0.38    4.92   0 
  -4   2  -5  230.47    5.76   0 
  -4   7  -7    3.62    6.51   0 
  -3   2  -5  134.71    5.59   0 
  -3   6  -7    6.00    7.96   0 
  -1   9  -6    0.68    8.00   0 
   0   6  -6    5.14    7.51   0 
   0   7  -6    7.44    6.99   0 
   1  -2  11   42.02    7.07   0 
   1  -2  16  140.18    6.99   0 
   1   7  -5    0.71    5.41   0 
   2  -1  18   46.46    5.22   0 
   2   0   4 1555.77   10.48   0 
   3   0  18   26.25    4.82   0 
   3   2   2  293.18    4.53   0 
   4   1  11    0.45    4.25   0 
   4   1  12  475.14    5.72   0 
   4   1  13    7.75    4.06   0 
   4   1  14  100.70    4.33   0 
   4   1  15   11.22    3.92   0 
   4   2   6    1.38    3.40   0 
   4   5   1  174.65    5.07   0 
   4   7   1   63.68    4.56   0 
   4   9   2   -0.06    3.96   0 
   5   3  10   43.07    4.33   0 
   5   3  11   30.42    4.14   0 
   5   3  12   44.47    4.15   0 
   5   3  13    0.41    4.02   0 
   5   3  15   10.32    3.94   0 
   5   6   5    2.97    3.89   0 
   5   8   6    5.22    4.10   0 
 -10  -2   9    2.56    4.08   0 
 -10  -1   5    4.41    3.86   0 
  -9  -3  13    2.55    4.17   0 
  -9  -2   7   11.14    3.94   0 
  -9   0   1    4.36    3.72   0 
  -9   2  -2  113.06    4.29   0 
  -9   3  -3   16.19    3.97   0 
  -8  -3  10    5.36    4.18   0 
  -8  -1   2  185.09    4.43   0 
  -8   0   0   40.50    4.03   0 
  -8   3  -4   62.26    4.14   0 
  -8   5  -5    5.62    4.14   0 
  -7  -2   4   50.37    4.18   0 
  -7  -1   1    3.05    3.07   0 
  -7   0  -1    7.92    3.80   0 
  -5  -3   7   62.05    4.94   0 
  -5  -1   0  147.15    4.25   0 
  -5   0  -2  409.74    5.62   0 
  -4  -3   7  283.45    5.99   0 
  -4  -1   0  272.09    5.10   0 
  -4   6  -7  121.62    7.38   0 
  -3  -2   3   11.11    4.31   0 
  -3   0  -2   10.86    4.23   0 
  -2  -3   9  180.80    6.88   0 
   0  -2  22   49.09    7.53   0 
   1  -2  17    9.95    5.66   0 
   2  -1  19    8.85    5.13   0 
   2   3  -2  395.07    6.49   0 
   2   4  -3    6.89    5.07   0 
   3   0   8 1278.32    8.35   0 
   3   0  19    4.43    4.78   0 
   3   1   4  483.33    5.94   0 
   3   3   0  141.38    5.06   0 
   3   4  -1  581.83    6.49   0 
   3   6  -2   13.89    4.60   0 
   3   7  -2    0.91    4.28   0 
   3   9  -1    5.65    4.24   0 
   4   1   9    8.67    4.31   0 
   4   1  10  511.93    6.02   0 
   4   1  16   19.19    4.28   0 
   4   1  17   15.21    4.64   0 
   4   2   5  232.28    5.07   0 
   4   3   3   24.61    4.18   0 
   5   3   8   -1.39    3.88   0 
   5   3   9  110.59    4.53   0 
   5   3  16   57.86    4.30   0 
   5   3  17   -1.22    3.91   0 
   5   4   6  128.04    4.57   0 
   5   7   4    8.29    4.16   0 
   5   8   5    4.66    4.06   0 
 -10  -1   6   38.09    4.13   0 
 -10   0   3    3.39    3.74   0 
 -10   2   0    0.22    3.67   0 
  -9  -1   4   24.86    4.06   0 
  -7  -3   9    0.37    4.24   0 
  -6  -3   8   12.47    4.33   0 
  -6   1  -3   10.35    4.21   0 
  -6   3  -5   40.88    4.86   0 
  -5  -2   3    1.05    4.51   0 
  -4  -2   3   46.25    4.82   0 
  -4   0  -2  478.36    6.07   0 
  -1  -2   5    7.56    6.24   0 
  -1   3  -5  573.86   15.72   0 
   1  -2  18  132.58    7.19   0 
   1   8  -5   76.68    6.28   0 
   2  -1   8  745.25    8.29   0 
   2  -1  20    7.76    5.11   0 
   2   1   1   28.66    4.78   0 
   2   7  -4    4.26    5.02   0 
   3   5  -2  248.37    5.43   0 
   3   8  -2    4.47    4.21   0 
   4   1  18   11.07    4.67   0 
   4   7   0   10.61    4.39   0 
   5   3   7   53.45    4.22   0 
   5   4   5   95.58    4.46   0 
   5   5   4    3.83    4.32   0 
   6   6  11   14.45    3.93   0 
 -10  -2  11    7.61    3.92   0 
 -10   3  -1    8.85    3.88   0 
  -9  -2   8    0.70    4.11   0 
  -9   0   2  171.62    4.70   0 
  -9   1   0    9.98    3.23   0 
  -9   4  -3   11.88    4.09   0 
  -8  -3  12    3.26    4.08   0 
  -8  -2   6  134.19    4.64   0 
  -8  -1   3   10.04    3.75   0 
  -8   1  -1   11.10    3.95   0 
  -8   4  -4   -0.14    4.08   0 
  -7  -2   5   60.42    4.25   0 
  -7  -1   2  117.43    4.31   0 
  -7   1  -2   15.98    4.05   0 
  -6  -2   4  312.83    5.20   0 
  -6  -1   1   23.04    3.92   0 
  -6   0  -1    1.55    3.93   0 
  -6   2  -4    0.76    4.35   0 
  -6   5  -6   43.15    5.25   0 
  -5   4  -6  113.87    5.74   0 
  -3  -3   8  628.16    7.81   0 
  -2  -2   4  470.09    7.50   0 
  -1   2  -4  745.12   14.53   0 
   0   8  -6   13.92    6.69   0 
   1  -2  10  501.43    9.80   0 
   1   5  -5  141.38    6.61   0 
   2   2  -1   28.48    4.78   0 
   2   8  -4    0.79    4.91   0 
   3   0   7   -0.16    4.30   0 
   3   2   1   10.71    3.97   0 
   4   1  19    2.65    4.80   0 
   4   4   1  408.01    5.13   0 
   4   8   0    3.39    4.36   0 
   5   2  11   13.09    4.31   0 
   5   2  12  174.62    4.93   0 
   5   2  13   10.89    3.99   0 
   5   2  15   21.80    4.09   0 
   5   5   3  138.43    4.73   0 
   5   6   3   58.42    3.67   0 
   6   5  10   63.88    4.09   0 
   6   5  11   10.16    3.95   0 
   6   5  12   10.20    3.99   0 
   6   5  13   29.64    4.15   0 
   6   6   9   28.42    4.12   0 
   6   6  10    3.17    2.94   0 
 -10  -1   7    2.44    3.88   0 
 -10   0   4   12.41    3.13   0 
 -10   1   2   43.06    4.04   0 
  -9  -2   9    9.17    4.19   0 
  -9  -1   5    0.71    3.82   0 
  -9   2  -1    1.34    3.87   0 
  -9   3  -2    2.11    3.77   0 
  -8  -3  13    5.75    4.07   0 
  -8   0   1    2.20    3.85   0 
  -8   2  -2    8.56    4.06   0 
  -8   3  -3   -2.83    3.75   0 
  -7  -3  10   83.25    4.44   0 
  -7   0   0  368.35    4.91   0 
  -7   2  -3    7.97    4.14   0 
  -7   3  -4    6.90    3.93   0 
  -6  -3   9   30.95    4.05   0 
  -6   6  -6    3.74    4.81   0 
  -6   7  -6    5.29    5.28   0 
  -5  -3   8  313.85    5.48   0 
  -5   1  -3    5.82    4.20   0 
  -4  -3   8  106.22    4.53   0 
  -2  -3  10  245.36    8.17   0 
   0   5  -6  124.39   10.56   0 
   1  -2  19   12.79    6.46   0 
   2  -1  21    4.96    5.66   0 
   2   5  -4   17.17    4.78   0 
   3   1   3  318.94    5.59   0 
   3   9  -2    3.95    4.29   0 
   4   1   7   35.73    4.71   0 
   4   7  -1  123.67    5.32   0 
   4   9   0   10.09    4.25   0 
   5   2   9    5.50    4.11   0 
   5   2  10  324.26    5.36   0 
   5   2  16    2.82    4.07   0 
   5   2  17    5.95    3.91   0 
   5   3   6   23.93    3.18   0 
   5   4   4   14.83    3.34   0 
   5   6   2   68.36    4.40   0 
   5   7   2   -0.72    3.99   0 
   6   4  12   35.08    4.11   0 
   6   4  13    6.28    4.06   0 
   6   4  14   27.05    4.03   0 
   6   5   8   45.98    4.23   0 
   6   5   9   43.84    3.49   0 
   6   6   8   -4.28    3.31   0 
   6   7   7   10.15    4.07   0 
 -10  -1   8   15.30    4.05   0 
 -10   3   0   22.07    3.97   0 
  -9  -2  10    0.07    4.07   0 
  -9   0   3    1.28    3.89   0 
  -9   1   1    0.41    3.91   0 
  -9   5  -3    7.30    3.99   0 
  -8  -3  14    6.06    4.04   0 
  -8  -3  15    8.24    4.12   0 
  -8  -1   4  117.09    4.59   0 
  -8   5  -4   18.76    4.28   0 
  -7  -2   6   58.50    4.23   0 
  -7   5  -5   39.05    4.08   0 
  -6  -3  10    5.27    4.54   0 
  -5  -3   9    2.70    4.90   0 
  -5  -2   4   64.47    4.50   0 
  -5   0  -1   11.49    4.03   0 
  -5   2  -4  680.18    6.86   0 
  -5   3  -5  246.06    5.44   0 
  -4   1  -3  115.86    4.68   0 
  -4   4  -6    5.17    4.75   0 
  -3  -3   9  129.17    5.91   0 
  -2  -1   1   17.44    4.93   0 
  -2   1  -3  518.03    7.69   0 
  -2   4  -6  174.03    8.96   0 
   1   9  -5    7.28    6.18   0 
   2  -1   7  177.32    5.68   0 
   2   0   3   -1.30    4.60   0 
   3   0   6 1083.86    8.07   0 
   3   3  -1   37.18    4.62   0 
   3   4  -2    5.14    4.33   0 
   3   6  -3  456.69    6.14   0 
   4   1   6  852.39    6.98   0 
   4   4   0  206.91    5.31   0 
   4   6  -1   82.22    4.54   0 
   5   2   8  198.98    4.87   0 
   5   3   5  286.42    4.80   0 
   5   4   3    4.63    3.77   0 
   5   5   2    9.64    4.19   0 
   5   8   2    2.71    4.38   0 
   6   4   9   32.21    4.04   0 
   6   4  10   37.82    4.21   0 
   6   4  11    7.38    3.27   0 
   6   5   7    4.96    4.02   0 
   6   6   6    0.08    3.97   0 
   6   7   6    3.53    4.04   0 
 -10   0   5   -2.68    3.02   0 
 -10   1   3    7.30    3.81   0 
  -9  -1   6  113.99    3.84   0 
  -9   2   0   71.25    4.32   0 
  -9   4  -2   21.94    3.91   0 
  -8  -2   8  173.25    4.83   0 
  -8   0   2   28.32    3.86   0 
  -8   1   0  164.84    4.73   0 
  -8   6  -4   -0.95    4.51   0 
  -7  -3  12  116.13    4.64   0 
  -7  -3  13    5.46    4.97   0 
  -7   1  -1   15.54    4.01   0 
  -7   6  -5    3.34    4.51   0 
  -7   7  -5   11.56    4.76   0 
  -6  -2   5   23.90    3.63   0 
  -6  -1   2  250.42    4.84   0 
  -6   1  -2  592.16    6.28   0 
  -6   4  -5  108.32    4.81   0 
  -5   5  -6    1.09    5.00   0 
  -4  -3   9   73.58    4.94   0 
  -4  -2   4 1051.30    7.92   0 
  -4  -1   1  367.28    5.54   0 
  -3  -1   1    4.91    4.35   0 
  -3   1  -3  313.78    6.08   0 
  -3   4  -6  505.28    8.96   0 
   1   1  -1   18.48    5.84   0 
   3  -1  14   89.35    5.69   0 
   3   5  -3   44.31    5.19   0 
   4   0  12   66.93    5.07   0 
   4   0  13    1.01    4.64   0 
   4   0  14   96.92    5.39   0 
   4   0  15    0.10    4.71   0 
   4   2   3   58.91    3.48   0 
   4   3   1  144.06    4.72   0 
   4   5  -1  151.00    4.92   0 
   5   6   1  113.63    4.79   0 
   5   8   1   26.40    4.14   0 
   6   4   8    3.14    3.85   0 
   6   5   6   57.44    4.19   0 
   6   7   5    7.41    4.14   0 
 -10  -1   9    0.74    3.28   0 
 -10   2   2    4.54    3.98   0 
  -9  -2  11    5.86    3.27   0 
  -9  -2  12    5.39    4.10   0 
  -9  -1   7    7.16    4.10   0 
  -9   0   4  135.25    4.42   0 
  -9   3  -1   18.80    4.08   0 
  -8  -2   9    4.41    4.17   0 
  -8  -1   5    3.74    4.01   0 
  -8   2  -1    2.06    4.04   0 
  -8   4  -3   56.92    4.45   0 
  -7  -3  14   60.93    4.55   0 
  -7  -2   7    9.21    4.28   0 
  -7   0   1    0.40    3.86   0 
  -7   4  -4  133.39    5.01   0 
  -6  -3  11   62.67    4.66   0 
  -6   0   0  158.22    4.53   0 
  -5  -3  10  250.68    5.80   0 
  -5   8  -6    1.80    6.07   0 
  -4   0  -1    6.87    4.10   0 
  -4   2  -4  278.32    6.25   0 
  -4   3  -5    1.89    4.54   0 
  -2  -3  11   -0.37    6.74   0 
   0   9  -6    3.21    7.60   0 
   1  -2  20   33.66    6.80   0 
   3  -1  12  160.97    5.41   0 
   3  -1  13   79.56    5.33   0 
   3  -1  15    7.56    4.91   0 
   3  -1  16  133.67    5.42   0 
   3   9  -3    0.39    4.90   0 
   4   0  11    4.14    4.22   0 
   4   0  16  130.63    4.83   0 
   4   0  17   -1.17    4.74   0 
   5   1  13    1.22    4.64   0 
   5   3   4   12.28    3.39   0 
   5   4   2  426.40    5.57   0 
   5   5   1  112.13    4.66   0 
   6   3  11   45.72    4.44   0 
   6   3  12   64.48    3.67   0 
   6   3  13   35.11    3.56   0 
   6   3  14   12.59    4.07   0 
   6   3  15    6.66    3.93   0 
   6   4   7  108.10    3.72   0 
   6   5   5    5.67    4.00   0 
   6   6   4    4.80    4.32   0 
   6   7   4    0.21    4.12   0 
   6   8   4   -3.11    4.01   0 
 -10  -1  10   15.87    4.14   0 
 -10   1   4   65.50    4.35   0 
 -10   3   1    1.19    4.10   0 
  -9  -2  13    5.91    4.06   0 
  -9   1   2   10.30    3.30   0 
  -9   5  -2    3.86    3.96   0 
  -8   3  -2  100.90    4.54   0 
  -7  -3  17   12.85    5.02   0 
  -7  -1   4   62.92    4.01   0 
  -7   3  -3   22.61    4.03   0 
  -6  -3  12   53.42    4.81   0 
  -6  -2   6  234.53    5.00   0 
  -5  -3  11   16.98    5.16   0 
  -5  -2   5   96.53    4.84   0 
  -5  -1   2 1026.14    7.12   0 
  -5   1  -2   24.80    5.23   0 
  -5   6  -6   16.84    5.55   0 
  -5   7  -6    5.39    5.72   0 
  -4  -3  10   88.79    5.28   0 
  -3  -3  10   52.46    4.93   0 
  -3  -3  21    5.74    7.55   0 
  -3   0  -1    2.06    4.11   0 
  -2  -3  19    4.43    9.96   0 
  -2   0  -1    0.36    4.98   0 
   1  -2   9   59.50    6.97   0 
   1  -1   4 1220.35   13.87   0 
   2   3  -3  659.54    8.27   0 
   2   6  -5    7.18    5.85   0 
   3  -1  11    6.64    4.73   0 
   3  -1  17    5.53    4.89   0 
   3   0   5   -6.15    4.27   0 
   3   1   2 2051.47   10.41   0 
   3   2   0  266.16    5.24   0 
   4   0  10  138.66    5.03   0 
   4   1   5    0.54    3.53   0 
   4   2   2  216.68    4.96   0 
   4   6  -2   17.81    4.28   0 
   4   8  -2    5.62    4.18   0 
   5   1  12  130.09    4.68   0 
   5   1  14  219.52    5.09   0 
   5   1  15    1.92    4.22   0 
   5   1  16   67.11    4.41   0 
   5   2   6  133.47    3.99   0 
   5   3   3   79.19    4.37   0 
   5   6   0    2.66    4.32   0 
   5   7   0    1.06    4.06   0 
   5   8   0   -0.25    4.89   0 
   6   3   8   78.90    4.46   0 
   6   3   9   16.11    4.11   0 
   6   4   6    0.31    3.22   0 
   6   7   3    8.12    4.26   0 
 -10  -1  11    2.31    4.14   0 
 -10   0   7   -0.60    3.14   0 
 -10   2   3    7.12    4.01   0 
  -9  -2  14    5.63    4.13   0 
  -9  -1   8   73.40    4.55   0 
  -9   2   1    0.13    4.03   0 
  -9   4  -1    8.60    3.93   0 
  -8  -1   6  161.20    4.61   0 
  -8   0   3    1.81    3.78   0 
  -8   5  -3    2.77    4.04   0 
  -7  -2   8   14.21    4.30   0 
  -7   5  -4    5.86    4.71   0 
  -6  -3  13   17.64    4.33   0 
  -6  -1   3   -3.20    3.94   0 
  -6   5  -5    0.75    4.97   0 
  -5   4  -5   78.78    5.33   0 
  -4  -2   5    1.10    4.54   0 
  -4   5  -6   13.46    5.54   0 
  -3   2  -4  656.91    8.21   0 
  -3   3  -5  136.62    6.48   0 
  -2  -2   5   -0.04    4.83   0 
  -2   2  -4  350.08    7.78   0 
   1  -2  21   12.24    7.58   0 
   1   7  -6    2.05    5.99   0 
   2   1   0   15.29    5.12   0 
   2   4  -4  115.68    5.87   0 
   3  -1  10   43.73    4.85   0 
   3  -1  18  141.24    5.84   0 
   3   6  -4   19.80    5.31   0 
   3   8  -4    0.58    5.27   0 
   4   0   9    3.34    4.26   0 
   4   0  19    1.35    4.84   0 
   4   3   0   19.47    4.57   0 
   4   4  -1   65.74    4.88   0 
   4   5  -2    4.06    4.49   0 
   5   1   9  127.65    4.87   0 
   5   1  10   18.48    4.32   0 
   5   1  17   -0.61    4.24   0 
   5   2   5   -1.63    4.17   0 
   6   3   7    1.86    4.19   0 
   6   6   3   30.54    3.54   0 
   7   5  10    2.93    4.10   0 
   7   6   8    7.90    3.90   0 
 -10   0   8   32.48    4.26   0 
 -10   1   5    0.65    3.31   0 
 -10   3   2   38.78    4.28   0 
  -9  -1   9    2.59    4.20   0 
  -9   1   3    3.48    3.95   0 
  -9   3   0    6.66    3.92   0 
  -8   6  -3   30.23    5.02   0 
  -7   0   2   44.43    4.07   0 
  -7   1   0   45.14    4.33   0 
  -6  -3  17    7.92    4.91   0 
  -6  -3  19    4.05    4.91   0 
  -6  -2   7    1.95    4.47   0 
  -6   0   1    0.36    4.04   0 
  -6   1  -1   -1.74    4.22   0 
  -6   6  -5   53.33    5.06   0 
  -5  -3  12  158.85    5.27   0 
  -5  -2   6   14.18    4.40   0 
  -5   0   0 1169.27    7.26   0 
  -5   2  -3   30.61    5.29   0 
  -4  -3  11   39.89    4.96   0 
  -4  -3  21    1.85    6.24   0 
  -4  -1   2  379.66    5.66   0 
  -3  -3  11   11.93    5.47   0 
  -3  -2   5  213.96    5.61   0 
  -2  -3  12  162.95    8.06   0 
  -2   3  -5   63.42    6.66   0 
  -1  -1   2 2629.16   19.61   0 
   1   8  -6    4.98    6.05   0 
   3   4  -3   63.36    4.77   0 
   4   0   8   11.55    4.53   0 
   4   1   4  368.54    5.86   0 
   5   1   8   40.92    4.71   0 
   5   7  -1   31.05    4.44   0 
   6   2  11    6.89    4.18   0 
   6   2  12  140.12    4.52   0 
   6   2  13    4.87    4.22   0 
   6   2  14   78.12    4.69   0 
   6   2  15   -0.43    4.17   0 
   6   2  16   40.90    4.89   0 
   6   4   4   11.35    4.39   0 
   6   5   3    0.16    4.30   0 
   6   7   2    2.26    4.17   0 
   6   8   2    0.97    4.20   0 
   7   5   9   38.93    4.33   0 
   7   6   7    7.33    4.17   0 
 -10   1   6   37.70    4.19   0 
 -10   2   4    5.65    4.10   0 
  -9   0   6   29.99    4.14   0 
  -9   5  -1   20.63    4.27   0 
  -8  -1   7    4.02    4.10   0 
  -8   0   4   56.62    4.18   0 
  -8   2   0    2.24    3.32   0 
  -8   3  -1    2.39    4.16   0 
  -8   4  -2    4.98    4.02   0 
  -7  -1   5   10.61    3.50   0 
  -7   2  -1    2.31    4.13   0 
  -7   4  -3   -2.40    4.75   0 
  -7   6  -4    6.26    4.93   0 
  -7   7  -4    1.82    5.02   0 
  -6   4  -4   10.54    4.90   0 
  -6   7  -5    3.98    4.73   0 
  -5  -3  13   88.93    5.49   0 
  -5  -3  20    2.58    5.51   0 
  -5   3  -4    8.13    4.44   0 
  -4  -3  12   94.09    5.41   0 
  -4   1  -2  442.85    6.18   0 
  -3  -3  20   12.62    7.65   0 
  -3   9  -6    2.67    9.15   0 
   2  -2  14    2.14    5.92   0 
   2  -2  15   20.54    5.85   0 
   2   2  -2  739.97    8.41   0 
   2   5  -5  264.88    6.91   0 
   2   9  -5   32.59    5.96   0 
   3  -1   9   12.30    4.16   0 
   3  -1  20   42.55    5.82   0 
   3   0   4 2763.33   12.09   0 
   3   9  -4    1.99    4.99   0 
   4   6  -3   44.68    5.48   0 
   4   8  -3    2.71    4.96   0 
   5   2   4  752.94    6.46   0 
   5   3   2  109.93    3.87   0 
   6   2   9   58.34    4.39   0 
   6   2  10   97.88    4.72   0 
   7   4   9   10.30    3.93   0 
   7   4  10   16.93    4.12   0 
   7   4  11   38.40    3.74   0 
   7   4  12   12.35    3.44   0 
   7   5   7   11.79    3.95   0 
   7   6   6    9.30    4.34   0 
 -10   0   9   -1.31    3.46   0 
 -10   3   3    0.66    4.08   0 
  -9   1   4   23.05    4.07   0 
  -9   2   2   32.60    3.65   0 
  -9   3   1   17.55    4.20   0 
  -9   4   0   37.43    4.64   0 
  -8  -2  13    3.06    4.25   0 
  -8   1   2  155.00    4.06   0 
  -7  -2  10    4.16    4.35   0 
  -7   3  -2    3.71    4.16   0 
  -6  -2   8  326.15    5.86   0 
  -6  -1   4   19.05    3.45   0 
  -6   2  -2    6.62    3.58   0 
  -5  -3  15   11.86    5.10   0 
  -5  -3  18    6.03    5.37   0 
  -5  -3  19    9.75    5.17   0 
  -5  -1   3   34.37    3.51   0 
  -4  -3  20   60.50    6.64   0 
  -4   0   0  902.84    7.34   0 
  -4   6  -6   13.68    5.72   0 
  -4   8  -6    0.90    6.09   0 
  -3  -3  12    5.49    5.50   0 
  -3  -1   2 1047.14    8.42   0 
  -2  -3  13   -0.15    6.92   0 
  -2  -3  18  127.66   10.02   0 
  -1  -2   6  270.92   10.05   0 
   1   2  -3  890.92   12.14   0 
   1   9  -6   -0.95    7.27   0 
   2  -2  13   17.45    5.74   0 
   2  -2  16   34.64    5.91   0 
   2  -2  17    3.31    5.97   0 
   2   0   2 1412.79   11.00   0 
   3   5  -4  142.26    5.10   0 
   4   0   7   -1.45    4.60   0 
   4   2   1    7.19    3.39   0 
   4   4  -2  179.94    5.41   0 
   5   1   7    2.61    3.62   0 
   5   4   0  177.83    5.17   0 
   5   5  -1   18.85    4.69   0 
   5   9  -1   14.84    4.54   0 
   6   2   8   31.95    4.54   0 
   6   3   5   33.54    3.61   0 
   6   4   3  111.77    4.69   0 
   6   5   2   25.15    3.63   0 
   6   6   1  136.33    4.81   0 
   6   8   1   26.03    4.43   0 
   7   4   8   42.94    4.22   0 
   7   5   6    2.89    4.08   0 
   7   7   5   28.46    3.52   0 
 -10   0  10   18.50    3.58   0 
 -10   1   7   -0.81    4.02   0 
  -9   0   7    2.68    3.32   0 
  -8  -2  15   -2.96    4.30   0 
  -8  -1   8   18.65    3.51   0 
  -8   0   5    4.57    3.86   0 
  -8   2   1  149.08    4.70   0 
  -7  -1   6  265.39    5.29   0 
  -7   0   3   -2.38    3.28   0 
  -7   1   1   -0.18    3.89   0 
  -5  -3  16    7.94    4.97   0 
  -5  -3  17   26.09    5.20   0 
  -5  -2   7   65.98    4.72   0 
  -5   1  -1    1.45    4.28   0 
  -4  -3  13   52.57    5.31   0 
  -4  -3  14   84.60    5.91   0 
  -4  -3  19    0.06    6.25   0 
  -4  -2   6  537.19    6.55   0 
  -4   4  -5    9.63    4.88   0 
  -4   7  -6    2.94    6.22   0 
  -3  -3  13  105.94    6.88   0 
  -3  -3  19   14.09    7.29   0 
  -3   5  -6   42.58    6.02   0 
  -2  -1   2   69.74    5.46   0 
   2  -2  12  111.24    6.31   0 
   3  -1   8   37.81    4.40   0 
   3   1   1  138.68    4.27   0 
   3   2  -1  358.02    6.05   0 
   4   1   3  108.43    4.09   0 
   4   3  -1  156.82    5.22   0 
   4   5  -3  123.12    5.10   0 
   5   1   6    1.48    4.37   0 
   5   2   3   35.70    4.17   0 
   5   3   1   96.37    4.76   0 
   5   7  -2    9.27    4.43   0 
   5   8  -2    2.26    4.99   0 
   6   2   7   23.87    4.35   0 
   6   3   4  266.81    5.11   0 
   7   3  13    2.59    4.14   0 
   7   5   5   60.02    4.50   0 
   7   6   4    8.90    4.18   0 
   7   7   4    6.35    3.36   0 
 -10   1   8   12.35    4.15   0 
 -10   3   4    5.60    4.15   0 
  -9  -1  13    3.85    4.24   0 
  -9   0   8   36.28    4.40   0 
  -9   1   5   -1.08    4.07   0 
  -9   2   3    0.93    3.38   0 
  -9   5   0    7.36    4.02   0 
  -8   1   3    3.51    4.22   0 
  -8   3   0   57.06    4.52   0 
  -8   4  -1   55.91    4.34   0 
  -8   6  -2    3.37    4.08   0 
  -7   5  -3   59.60    4.62   0 
  -6  -2   9    8.11    4.55   0 
  -6  -1   5   96.86    4.54   0 
  -6   0   2  599.71    5.57   0 
  -6   1   0  286.77    4.70   0 
  -6   5  -4   56.68    4.81   0 
  -5   0   1    9.13    3.31   0 
  -4  -3  16   56.48    5.72   0 
  -4  -3  18   62.88    5.87   0 
  -4   2  -3   62.31    4.83   0 
  -3  -2   6  124.30    5.70   0 
  -3   1  -2 1939.37   11.50   0 
  -2  -3  14  199.31    9.23   0 
  -2  -3  15    6.20    7.99   0 
  -2  -3  17   16.44    8.91   0 
   1  -2   8  718.88   12.29   0 
   1   5  -6   41.04    7.68   0 
   2  -2  18   97.85    6.15   0 
   2  -1   5   15.34    5.17   0 
   2   7  -6    1.51    6.02   0 
   4   0   6   88.09    4.92   0 
   4   7  -4    3.00    5.30   0 
   5   0  11    1.59    4.20   0 
   5   0  12  140.08    4.86   0 
   5   0  13    3.67    4.38   0 
   5   0  14   45.26    4.60   0 
   5   0  15   -0.49    4.38   0 
   5   0  16   14.02    4.47   0 
   5   6  -2    5.82    4.38   0 
   5   9  -2   -2.82    5.06   0 
   6   1  13   20.33    4.14   0 
   6   1  14   23.44    4.31   0 
   6   1  15    4.09    5.04   0 
   6   2   6   11.47    4.07   0 
   6   4   2   30.67    3.57   0 
   6   7   0    1.03    4.20   0 
   6   8   0   -6.24    4.34   0 
   7   3   9   14.98    4.28   0 
   7   3  10   18.01    3.56   0 
   7   4   6   47.91    4.35   0 
   7   5   4    7.14    4.26   0 
   7   6   3    2.93    4.32   0 
   7   7   3   66.93    4.72   0 
 -10   2   6    4.13    4.21   0 
 -10   4   3   17.70    4.27   0 
  -9  -1  14   20.20    4.44   0 
  -9   3   2    5.28    4.22   0 
  -9   4   1    5.79    3.92   0 
  -8   0   6  191.74    5.14   0 
  -7  -1   7    3.97    4.29   0 
  -7   0   4  225.69    4.83   0 
  -7   6  -3    4.44    4.85   0 
  -6  -2  10  235.42    6.16   0 
  -5  -2   8   41.53    4.53   0 
  -5  -1   4  688.77    6.80   0 
  -5   4  -4   22.27    4.92   0 
  -5   6  -5    3.01    4.80   0 
  -5   8  -5    4.78    5.76   0 
  -4  -1   3    6.14    3.62   0 
  -3  -3  14   17.62    5.84   0 
  -3  -3  15   84.73    6.85   0 
  -3   0   0    5.46    4.39   0 
  -2  -3  16  188.79    9.97   0 
  -2  -2   6  933.34   10.12   0 
   2  -2  11  197.47    7.01   0 
   2  -2  19    2.56    6.14   0 
   2   8  -6    3.56    6.11   0 
   3  -1   7    4.03    5.09   0 
   3   0   3    0.76    4.50   0 
   3   6  -5   41.31    5.38   0 
   4  -1  13    8.98    5.13   0 
   4  -1  14   98.43    5.53   0 
   4  -1  15    7.53    4.95   0 
   4  -1  16   19.04    4.93   0 
   4   2   0  241.55    5.14   0 
   4   6  -4   12.18    5.21   0 
   5   0  10  170.64    4.99   0 
   5   0  17    5.20    4.29   0 
   5   1   5   16.84    4.59   0 
   5   4  -1  107.03    4.90   0 
   6   1  10  146.24    5.10   0 
   6   1  11    9.31    4.35   0 
   6   1  16    4.20    4.32   0 
   7   3   8   18.17    3.71   0 
   7   7   2    6.82    4.30   0 
 -10   1   9    4.86    3.28   0 
 -10   3   5   -1.90    4.14   0 
  -9  -1  15   -0.20    4.25   0 
  -9   0   9    2.62    3.54   0 
  -9   1   6  116.20    4.65   0 
  -9   2   4   86.02    4.59   0 
  -8  -1  10    0.91    3.55   0 
  -8   1   4  113.09    4.67   0 
  -8   2   2    4.38    4.09   0 
  -8   5  -1    5.39    4.19   0 
  -7  -2  14   30.06    4.59   0 
  -7   7  -3   43.46    5.36   0 
  -6   6  -4    5.22    4.83   0 
  -6   7  -4    2.82    5.25   0 
  -6   8  -4   -0.21    4.62   0 
  -5   7  -5   26.02    5.52   0 
  -4  -2   7   -0.91    4.39   0 
  -3  -3  16    6.44    6.01   0 
  -3   6  -6   87.48    7.42   0 
  -2   1  -2  967.74   10.66   0 
  -2   5  -6   81.09    8.84   0 
   3   3  -3  115.05    5.20   0 
   3   4  -4   15.76    4.45   0 
   3   9  -5    1.87    5.00   0 
   4  -1  11   -3.07    5.09   0 
   4  -1  17   17.38    5.11   0 
   4  -1  18    1.61    5.34   0 
   4   0   5   -0.98    4.54   0 
   4   1   2  460.63    5.99   0 
   4   9  -4    0.07    4.96   0 
   5   0   9    1.44    4.50   0 
   5   2   2  430.72    5.03   0 
   5   3   0  370.34    5.86   0 
   5   7  -3   28.08    5.28   0 
   6   1   9   18.08    4.40   0 
   6   2   5   10.42    3.40   0 
   6   4   1    4.94    4.36   0 
   6   5   0   91.60    4.71   0 
   6   7  -1   12.55    4.26   0 
   7   2  11   47.56    4.30   0 
   7   2  12    9.01    4.03   0 
   7   2  13    9.69    4.36   0 
   7   2  14   15.14    4.21   0 
   7   3   7   26.38    3.46   0 
   7   4   4  167.78    4.65   0 
   7   5   3   82.47    3.91   0 
 -10   1  10   11.48    4.17   0 
 -10   2   7    7.04    3.39   0 
  -9   4   2   12.39    4.19   0 
  -9   5   1   31.35    4.21   0 
  -8  -1  11    0.97    4.27   0 
  -8   0   7   -3.02    4.35   0 
  -8   3   1    5.52    4.30   0 
  -8   4   0    6.84    3.94   0 
  -7  -2  15    0.00    4.50   0 
  -7  -2  16   40.27    4.65   0 
  -7  -1   8  244.57    5.24   0 
  -6   0   3    1.03    3.39   0 
  -6   1   1   20.93    4.31   0 
  -5  -2   9   91.79    5.47   0 
  -4   0   1    4.93    4.15   0 
  -4   1  -1   27.47    4.50   0 
  -4   5  -5   14.59    5.75   0 
  -3   2  -3    1.93    4.83   0 
  -3   4  -5   15.83    5.57   0 
  -3   8  -6    3.03    7.76   0 
  -2   0   0   47.88    5.46   0 
   2  -2  10   51.66    6.14   0 
   2  -2  20   62.30    6.74   0 
   2   3  -4   24.70    5.17   0 
   2   4  -5  144.14    6.89   0 
   2   9  -6    7.36    6.50   0 
   4  -1  10  517.33    7.06   0 
   4   3  -2    5.11    4.66   0 
   4   4  -3   11.79    4.81   0 
   5   0   8  243.81    5.53   0 
   5   1   4   18.37    4.61   0 
   5   6  -3   44.65    4.63   0 
   6   1   8  410.56    5.90   0 
   6   2   4    3.98    4.25   0 
   7   2   9    4.55    4.27   0 
   7   2  10   26.63    4.46   0 
   7   3   6   11.85    3.43   0 
   7   5   2    6.49    4.31   0 
   7   7   1   20.51    4.38   0 
   8   4   9   14.27    4.28   0 
   8   5   7    3.85    4.03   0 
 -10   1  11    0.58    4.09   0 
 -10   2   8   29.25    4.19   0 
 -10   3   6   18.27    4.17   0 
  -9   0  11    8.63    4.24   0 
  -9   2   5   12.31    4.12   0 
  -8  -1  12    9.76    4.15   0 
  -8   6  -1   31.90    4.45   0 
  -7  -1   9    1.23    4.52   0 
  -7   2   1   12.42    4.20   0 
  -7   5  -2    4.39    4.19   0 
  -6  -2  12   99.34    4.80   0 
  -5  -1   5   -0.97    4.68   0 
  -5   1   0  124.75    4.24   0 
  -4  -2   8  206.88    6.37   0 
  -3  -2   7   92.48    5.54   0 
  -3  -1   3   64.09    4.83   0 
  -3   7  -6    5.53    7.35   0 
   2   1  -1   16.03    4.39   0 
   3  -1   6   33.22    5.23   0 
   4  -1   9   10.15    4.86   0 
   4   5  -4    1.93    4.70   0 
   5   2   1  219.27    5.01   0 
   5   4  -2   54.71    4.88   0 
   5   9  -3    6.60    4.49   0 
   6   1   7    0.82    4.49   0 
   6   4   0   28.52    4.58   0 
   6   5  -1   34.67    4.63   0 
   6   7  -2    7.19    5.13   0 
   7   4   3   -3.21    3.42   0 
   7   6   1    2.79    4.45   0 
   8   4   8   16.07    4.29   0 
   8   5   6   26.65    3.51   0 
 -10   1  12    1.13    4.36   0 
  -9   0  12    8.59    4.29   0 
  -9   1   8   69.67    4.59   0 
  -8  -1  13    5.92    4.34   0 
  -8   0   8  431.36    5.91   0 
  -8   1   5    4.93    3.33   0 
  -8   2   3   18.46    3.51   0 
  -8   5   0   21.20    4.34   0 
  -7   1   3    7.41    3.22   0 
  -7   3   0    6.22    4.31   0 
  -7   4  -1   34.17    4.04   0 
  -7   6  -2    3.97    4.86   0 
  -6  -1   7   13.74    4.31   0 
  -6   2   0  318.14    5.69   0 
  -6   5  -3    1.24    4.54   0 
  -5  -2  10   56.42    5.57   0 
  -5   5  -4    7.43    5.08   0 
  -4  -1   4    1.83    4.51   0 
  -4   9  -5    6.28    6.93   0 
  -1   1  -2 2762.54   22.11   0 
   2  -2  21    5.20    6.65   0 
   3   2  -2  204.73    5.74   0 
   4   0   4   57.40    4.97   0 
   4   1   1   30.29    4.41   0 
   4   2  -1   16.98    4.41   0 
   4   8  -5    1.63    5.41   0 
   5   0   7    1.14    4.64   0 
   5   1   3    6.23    4.19   0 
   5   3  -1    1.78    4.75   0 
   5   5  -3    9.33    4.53   0 
   6   3   1   18.68    4.28   0 
   7   2   7    2.53    4.28   0 
   7   3   4    3.57    4.18   0 
   7   4   2   72.57    4.50   0 
   7   7   0   -0.20    4.27   0 
   8   3  10    8.64    4.32   0 
   8   3  11    9.18    4.25   0 
 -10   3   7   12.28    4.28   0 
  -9   0  13    2.02    4.21   0 
  -9   2   6   57.18    4.66   0 
  -9   4   3   17.88    4.31   0 
  -9   5   2    6.17    4.20   0 
  -8  -1  15   10.38    4.27   0 
  -8   0   9   -0.82    4.33   0 
  -8   3   2   84.42    4.71   0 
  -8   4   1   60.09    4.30   0 
  -7   0   6   50.71    4.42   0 
  -7   7  -2    5.26    4.84   0 
  -6  -2  14   80.56    5.69   0 
  -6   0   4  702.73    5.86   0 
  -6   1   2  236.40    5.17   0 
  -6   4  -2   25.09    4.92   0 
  -5   2  -1  171.34    5.32   0 
   2  -2   9  202.03    7.25   0 
   2  -1   4 1029.73   10.41   0 
   2   0   1    1.72    5.22   0 
   2   2  -3  143.98    6.60   0 
   2   5  -6    9.80    5.98   0 
   3  -2  13   11.96    5.72   0 
   3  -2  14  204.31    6.45   0 
   3  -2  15   15.96    5.54   0 
   3  -2  16   73.24    6.21   0 
   3   0   2   10.24    4.67   0 
   3   8  -6   -3.06    5.39   0 
   4  -1   8  225.82    5.48   0 
   4   6  -5   -4.73    5.69   0 
   5   0   6  653.42    6.70   0 
   6   0  12  103.40    4.71   0 
   6   0  13    4.23    4.55   0 
   6   0  14  146.24    5.03   0 
   6   0  15    0.31    4.21   0 
   7   1  12   33.96    4.39   0 
   7   1  14   38.59    4.60   0 
   7   2   6  289.61    5.38   0 
   7   6   0   11.24    3.49   0 
   8   3   8   52.24    4.40   0 
   8   3   9    6.90    3.59   0 
   8   6   3   39.03    4.42   0 
 -10   2  10   16.13    4.26   0 
 -10   3   8   32.63    4.35   0 
  -9   0  14    3.79    4.56   0 
  -9   3   5    3.81    4.28   0 
  -8  -1  17   -4.14    4.35   0 
  -8   1   6  134.85    4.12   0 
  -8   2   4  104.34    4.68   0 
  -8   6   0   -1.95    4.14   0 
  -7  -1  11    8.39    4.50   0 
  -6  -2  15   16.92    4.65   0 
  -6  -2  16   25.87    5.44   0 
  -6  -2  18    0.42    5.54   0 
  -6  -2  19   14.68    5.44   0 
  -6  -2  20    2.95    5.59   0 
  -6  -1   8    1.66    4.56   0 
  -6   3  -1   17.52    4.63   0 
  -6   6  -3   19.74    5.18   0 
  -6   8  -3   11.22    5.73   0 
  -5  -2  11    6.24    4.66   0 
  -5  -1   6  499.89    6.31   0 
  -5   3  -2   97.66    5.63   0 
  -5   4  -3    3.55    5.39   0 
  -5   6  -4   21.74    5.76   0 
  -4  -2   9   15.76    5.16   0 
  -4   3  -3   19.31    5.06   0 
  -4   4  -4    8.47    4.90   0 
  -4   6  -5  221.68    6.94   0 
  -4   8  -5   55.37    6.85   0 
  -3   0   1    0.78    4.54   0 
  -2  -2   7  126.70    6.50   0 
  -2  -1   3  294.31    6.91   0 
   1  -1   3   19.09    6.91   0 
   1   7  -7  107.81    9.34   0 
   3  -2  12  211.87    7.04   0 
   3  -2  17   28.75    5.87   0 
   3  -2  18    7.16    6.06   0 
   3   6  -6    1.18    5.36   0 
   4   4  -4  220.96    6.33   0 
   5  -1  14  226.38    6.27   0 
   5  -1  15    2.37    5.09   0 
   5   2   0  464.18    5.99   0 
   5   6  -4    4.54    4.45   0 
   5   9  -4    5.28    4.51   0 
   6   0  10   26.68    4.60   0 
   6   0  11    3.45    4.39   0 
   6   1   5    2.08    4.40   0 
   6   2   2   13.10    4.40   0 
   6   4  -1  134.62    4.37   0 
   6   5  -2   17.59    4.76   0 
   6   8  -3   12.74    4.66   0 
   7   1  10  123.82    4.73   0 
   7   1  11    4.37    4.25   0 
   7   2   5   -0.73    4.47   0 
   7   3   3   28.24    3.56   0 
   7   4   1   38.29    4.54   0 
   7   5   0   11.94    4.42   0 
   8   3   7    5.87    4.26   0 
   8   5   3    6.16    4.33   0 
   8   6   2    4.93    4.42   0 
  -9   2   7    5.46    4.20   0 
  -9   4   4    6.71    4.22   0 
  -9   5   3   14.26    4.29   0 
  -8   5   1    3.03    4.86   0 
  -7   0   7    2.27    4.13   0 
  -7   3   1   20.29    4.51   0 
  -7   5  -1   56.54    4.86   0 
  -6   0   5    2.28    4.23   0 
  -6   7  -3   10.64    4.87   0 
  -5  -2  12   62.11    5.70   0 
  -5   1   1   68.08    4.42   0 
  -5   8  -4    1.88    5.66   0 
  -4  -1   5    4.75    4.67   0 
  -4   0   2  394.26    5.70   0 
  -4   7  -5    1.88    5.63   0 
  -3  -2   8   90.78    5.67   0 
  -3   1  -1  137.16    5.38   0 
  -2   2  -3   14.95    5.94   0 
   1  -2   7   11.59    8.41   0 
   3  -2  11  153.01    6.55   0 
   3  -2  19   13.44    6.72   0 
   3  -1   5    1.90    4.62   0 
   3   9  -6    2.44    5.43   0 
   4  -1   7   41.63    4.74   0 
   4   0   3    0.95    4.88   0 
   4   3  -3  281.49    6.05   0 
   5  -1  12  123.21    5.41   0 
   5  -1  13    5.60    4.58   0 
   5  -1  16   62.52    5.53   0 
   5  -1  17    9.92    4.99   0 
   5   0   5   -3.91    4.84   0 
   5   1   2   25.78    4.13   0 
   6   0   9    0.69    4.35   0 
   6   3   0  367.90    4.95   0 
   6   6  -3   17.28    4.72   0 
   7   1   9   -0.06    4.45   0 
   7   3   2    1.39    4.28   0 
   8   2  12   13.05    4.64   0 
   8   4   4   -0.49    3.54   0 
 -10   3   9    0.00    3.36   0 
  -9   1  11    2.94    4.18   0 
  -9   2   8    5.42    4.17   0 
  -9   3   6   45.09    4.36   0 
  -8   0  11    3.15    4.43   0 
  -8   1   7   -1.81    3.47   0 
  -8   4   2   12.38    4.21   0 
  -7   4   0    5.49    4.26   0 
  -7   6  -1    1.43    4.93   0 
  -6  -1   9    4.79    4.71   0 
  -6   2   1    5.22    4.46   0 
  -6   5  -2   23.64    5.35   0 
  -5   7  -4    3.39    5.18   0 
  -3  -1   4 1282.43    9.66   0 
  -2   4  -5  508.35   10.25   0 
   3   3  -4  933.73    8.47   0 
   3   4  -5  177.77    5.48   0 
   4   1   0  307.32    5.47   0 
   4   5  -5  227.29    5.74   0 
   5  -1  10   20.37    5.35   0 
   5  -1  11    3.93    4.46   0 
   5  -1  18   27.48    5.54   0 
   5   3  -2  307.39    5.27   0 
   5   5  -4  108.05    5.07   0 
   5   7  -5    8.38    5.32   0 
   5   8  -5   21.92    5.78   0 
   6   0   8   60.93    4.86   0 
   6   1   4  311.72    4.81   0 
   7   1   8   85.77    4.75   0 
   7   4   0    9.77    4.62   0 
   7   7  -2    0.44    4.75   0 
   8   2   9    0.49    4.42   0 
   8   2  10   45.88    3.60   0 
   8   3   5   14.68    4.29   0 
   8   6   1   54.02    3.91   0 
  -9   4   5    3.82    4.39   0 
  -9   5   4   12.41    4.38   0 
  -8   1   8   15.36    4.48   0 
  -8   6   1   17.32    4.38   0 
  -7   0   8    4.22    4.28   0 
  -7   1   5   10.70    3.53   0 
  -7   2   3   68.32    4.42   0 
  -7   7  -1   15.13    5.09   0 
  -6   1   3    5.81    3.33   0 
  -5  -2  21    4.87    5.11   0 
  -5  -1   7   12.81    4.90   0 
  -2   6  -6   23.96    7.94   0 
  -1  -2   7  158.89    8.68   0 
   1   1  -2 3112.90   22.49   0 
   2  -2   8   71.53    6.50   0 
   3  -2  10  313.46    7.36   0 
   3  -2  20    1.21    7.04   0 
   3   1  -1    7.98    3.93   0 
   3   5  -6   42.79    6.31   0 
   4   2  -2  497.82    6.95   0 
   4   7  -6    4.54    5.30   0 
   5   6  -5  139.08    6.74   0 
   6   0   7   -1.37    4.69   0 
   6   2   1   56.78    3.81   0 
   6   3  -1    9.64    4.66   0 
   6   7  -4    2.22    4.73   0 
   7   6  -2   25.84    4.64   0 
   8   3   4   82.29    4.84   0 
   8   4   2   -0.20    4.46   0 
   8   5   1   -0.31    4.27   0 
   8   6   0    2.26    4.29   0 
  -9   1  13    2.53    4.43   0 
  -8   0  13    0.42    4.42   0 
  -8   2   6  125.85    4.89   0 
  -8   3   4  161.17    5.19   0 
  -8   5   2   16.05    4.35   0 
  -7  -1  15    5.51    4.42   0 
  -7   0   9    5.70    4.57   0 
  -7   3   2   85.43    4.91   0 
  -7   5   0    9.71    4.28   0 
  -6  -1  10   40.91    4.78   0 
  -6   0   6  168.50    5.02   0 
  -6   3   0  345.64    6.07   0 
  -6   4  -1    7.18    4.27   0 
  -5  -2  19    4.53    5.55   0 
  -5   0   4    2.27    3.48   0 
  -5   2   0  418.31    6.21   0 
  -5   5  -3   96.12    5.81   0 
  -4  -2  11   71.02    5.45   0 
  -3  -2   9   44.86    5.47   0 
  -2   3  -4   79.88    6.35   0 
   3   0   1    1.86    4.60   0 
   3   2  -3   11.67    4.90   0 
   4  -1   6  788.36    7.53   0 
   4   9  -6    4.43    5.83   0 
   5  -1   9  117.93    4.94   0 
   5   0   4  859.95    6.97   0 
   5   1   1    0.25    4.23   0 
   5   2  -1   35.82    3.83   0 
   6   1   3   15.01    3.65   0 
   6   6  -4   37.10    4.65   0 
   7   1   6   11.72    4.50   0 
   7   2   3    7.76    3.61   0 
   8   2   7   -0.13    3.63   0 
  -9   1  15    0.50    4.40   0 
  -9   2  10    5.73    4.21   0 
  -9   4   6   30.05    4.48   0 
  -9   5   5   15.40    4.45   0 
  -8   0  15    4.37    4.41   0 
  -8   1   9   11.25    4.30   0 
  -8   4   3    3.25    3.54   0 
  -7  -1  17    2.06    4.56   0 
  -7  -1  18    1.10    4.59   0 
  -7  -1  19    2.62    4.81   0 
  -7   1   6  268.85    5.28   0 
  -7   4   1    7.54    4.38   0 
  -6   6  -2   10.20    4.29   0 
  -6   7  -2    4.73    5.14   0 
  -6   8  -2    1.78    5.10   0 
  -5  -2  16  200.70    5.52   0 
  -5  -2  17    2.32    5.21   0 
  -5  -1   8  425.80    6.40   0 
  -5   1   2  989.77    7.61   0 
  -5   3  -1   79.44    5.62   0 
  -4  -1   6   72.66    5.05   0 
  -4   2  -1    7.41    4.52   0 
  -3   2  -2  279.49    6.18   0 
  -2  -2   8 1061.13   11.16   0 
   2   6  -7   19.71    6.87   0 
   3  -1   4  492.60    7.11   0 
   3   7  -7    6.29    6.27   0 
   4  -2  15    0.91    5.70   0 
   4   0   2  466.59    6.01   0 
   5  -1   8   37.26    4.87   0 
   5   3  -3  115.56    5.25   0 
   5   4  -4   19.55    4.81   0 
   6   0   6  108.84    5.26   0 
   7   0  11    0.67    4.56   0 
   7   0  13    4.09    4.42   0 
   7   0  14   10.54    4.44   0 
   7   1   5   70.73    4.93   0 
   7   2   2   94.06    4.61   0 
   7   3   0   10.23    4.51   0 
   7   4  -1    4.10    3.72   0 
   7   5  -2    4.76    3.85   0 
   8   1  11    3.79    4.28   0 
   8   2   6   61.42    4.08   0 
   8   3   3   -2.06    4.21   0 
   9   3   7    2.95    4.26   0 
   9   4   5    6.60    3.57   0 
   9   5   3   -0.14    4.43   0 
  -9   2  11    4.86    4.28   0 
  -9   3   8   79.58    3.92   0 
  -8   0  17    0.27    4.41   0 
  -8   1  10    6.88    4.53   0 
  -8   3   5   13.53    4.40   0 
  -8   6   2    1.70    4.37   0 
  -7   0  10    2.19    4.56   0 
  -7   2   4   42.88    3.65   0 
  -7   6   0   10.08    4.37   0 
  -6   0   7   -2.61    4.32   0 
  -6   1   4   22.70    3.52   0 
  -5   6  -3   38.07    5.69   0 
  -4  -2  12  192.52    6.00   0 
  -4   0   3    2.30    3.39   0 
  -2   0   1   -0.06    5.25   0 
   2  -1   3  545.74    8.76   0 
   2   1  -2   68.28    5.80   0 
   3  -2   9   15.21    4.97   0 
   4  -2  13   10.62    5.04   0 
   4  -2  14  153.98    5.96   0 
   4  -2  16  122.73    6.36   0 
   4  -2  17    5.75    5.66   0 
   4   3  -4  130.96    5.29   0 
   4   4  -5    4.81    4.45   0 
   5   0   3   -5.37    5.14   0 
   5   5  -5    9.52    4.68   0 
   6  -1  13   17.11    5.21   0 
   6  -1  14   20.07    5.23   0 
   6  -1  15    4.63    5.44   0 
   6   1   2  664.52    6.64   0 
   6   4  -3  175.06    4.59   0 
   6   5  -4   15.83    4.58   0 
   7   0  10   36.77    4.69   0 
   7   6  -3   68.67    5.02   0 
   8   2   5   27.15    3.74   0 
   9   4   4   31.56    3.70   0 
   9   5   2    3.04    4.26   0 
  -9   2  12    6.60    4.38   0 
  -9   3   9    7.45    4.21   0 
  -9   5   6    1.61    4.30   0 
  -8   1  11    8.91    4.43   0 
  -8   4   4    2.89    4.42   0 
  -8   5   3   20.73    4.48   0 
  -7   0  11    3.18    4.55   0 
  -7   1   7    1.39    4.34   0 
  -7   3   3  100.09    4.89   0 
  -7   5   1   77.18    4.95   0 
  -7   7   0   -1.05    4.22   0 
  -6  -1  13   -1.74    4.49   0 
  -6   3   1    3.51    4.60   0 
  -6   5  -1   13.40    4.43   0 
  -5  -1   9   -0.18    4.64   0 
  -5   0   5    1.80    4.23   0 
  -5   7  -3   30.40    5.24   0 
  -5   8  -3    6.92    4.79   0 
  -4  -2  13   32.98    5.48   0 
  -4  -2  21    7.38    5.22   0 
  -4   1   1  358.67    5.82   0 
  -4   3  -2  215.16    5.67   0 
  -3  -2  10  333.81    6.80   0 
  -3  -1   5    1.59    4.79   0 
  -3   3  -3   27.19    5.41   0 
  -2  -1   4  326.11    7.52   0 
  -2   1  -1   25.05    5.39   0 
   2   3  -5   98.56    5.89   0 
   4  -2  12   61.98    5.53   0 
   4   1  -1  400.07    6.09   0 
   4   5  -6    3.90    5.49   0 
   5  -1   7    4.43    4.49   0 
   5   1   0  153.64    4.91   0 
   5   2  -2  301.12    6.05   0 
   5   7  -6    3.44    4.70   0 
   5   8  -6    5.04    5.40   0 
   6  -1  11   15.42    5.52   0 
   6  -1  12   50.73    4.74   0 
   6  -1  16    4.17    5.16   0 
   6   0   5    2.91    4.85   0 
   7   0   9   -1.06    4.47   0 
   7   1   4    4.21    4.26   0 
   7   2   1    7.45    4.42   0 
   7   5  -3   82.34    4.85   0 
   8   1   8   36.19    4.67   0 
   8   2   4    8.83    4.32   0 
   8   4   0    6.74    4.59   0 
   8   5  -1    5.94    4.58   0 
   9   3   5   11.83    4.54   0 
  -9   2  13    6.42    4.36   0 
  -8   1  12   10.12    4.59   0 
  -8   2   8  153.16    4.13   0 
  -8   6   3   39.31    4.67   0 
  -7   0  12   -0.51    4.61   0 
  -7   2   5   57.56    4.48   0 
  -7   4   2  105.17    4.93   0 
  -6  -1  14  216.59    5.33   0 
  -6   0   8  245.43    5.61   0 
  -6   1   5   99.56    4.60   0 
  -5   2   1   37.83    4.76   0 
   4   2  -3   53.12    5.31   0 
   5   6  -6    6.77    4.73   0 
   6  -1  10  140.31    5.10   0 
   6   2  -1    3.69    4.46   0 
   6   6  -5   43.80    4.67   0 
   7   0   8  137.58    5.12   0 
   7   6  -4    4.59    4.53   0 
   7   7  -4    3.79    4.57   0 
   8   3   1    8.97    4.22   0 
   8   6  -2    3.62    4.35   0 
   9   2   8   16.59    4.43   0 
   9   4   2   29.98    4.51   0 
   9   5   1   31.45    4.69   0 
  -9   2  14    2.69    3.51   0 
  -7   1   8  202.67    4.46   0 
  -6   2   3   12.50    3.52   0 
   4   0   1   13.93    3.67   0 
   6   0   4   34.06    3.83   0 
   7   1   3    3.77    3.65   0 
   9   2   7   21.79    3.65   0 
;
_shelx_hkl_checksum              97174
loop_
_space_group_symop_operation_xyz
'x, y, z'
'-x, y+1/2, -z+1/2'
'-x, -y, -z'
'x, -y-1/2, z-1/2'
loop_
_atom_site_label
_atom_site_type_symbol
_atom_site_fract_x
_atom_site_fract_y
_atom_site_fract_z
_atom_site_U_iso_or_equiv
_atom_site_adp_type
_atom_site_occupancy
_atom_site_site_symmetry_order
_atom_site_calc_flag
_atom_site_refinement_flags_posn
_atom_site_refinement_flags_adp
_atom_site_refinement_flags_occupancy
_atom_site_disorder_assembly
_atom_site_disorder_group
Se1 Se 0.72385(5) 0.22039(6) 0.47987(2) 0.03634(19) Uani 1 1 d . . . . .
F1 F 0.5683(3) 0.5830(4) 0.41091(17) 0.0463(7) Uani 1 1 d . . . . .
F2 F 0.4942(4) -0.0473(3) 0.36905(17) 0.0466(7) Uani 1 1 d . . . . .
N1 N -0.0030(6) 0.3831(7) 0.1545(2) 0.0557(12) Uani 1 1 d . . . . .
O1 O 0.8715(4) 0.3451(6) 0.3472(2) 0.0536(9) Uani 1 1 d . . . . .
C1 C 0.5358(5) 0.2658(6) 0.3937(3) 0.0329(9) Uani 1 1 d . . . . .
C2 C 0.4823(5) 0.4424(6) 0.3713(2) 0.0335(9) Uani 1 1 d . . . . .
C3 C 0.3433(5) 0.4809(6) 0.3109(3) 0.0373(9) Uani 1 1 d . . . . .
H3 H 0.3079 0.6027 0.2980 0.045 Uiso 1 1 calc R U . . .
C4 C 0.2578(5) 0.3329(7) 0.2699(2) 0.0362(9) Uani 1 1 d . . . . .
C5 C 0.3086(6) 0.1541(7) 0.2884(3) 0.0373(9) Uani 1 1 d . . . . .
H5 H 0.2506 0.0545 0.2593 0.045 Uiso 1 1 calc R U . . .
C6 C 0.4455(6) 0.1262(6) 0.3503(3) 0.0353(9) Uani 1 1 d . . . . .
C7 C 0.1121(6) 0.3644(7) 0.2054(3) 0.0422(10) Uani 1 1 d . . . . .
C8 C 0.9050(6) 0.2937(6) 0.4164(3) 0.0372(9) Uani 1 1 d . . . . .
C9 C 1.0815(6) 0.2752(7) 0.4653(3) 0.0411(10) Uani 1 1 d . . . . .
H9A H 1.1325 0.1595 0.4516 0.062 Uiso 1 1 calc R U . . .
H9B H 1.0737 0.2776 0.5242 0.062 Uiso 1 1 calc R U . . .
H9C H 1.1537 0.3765 0.4521 0.062 Uiso 1 1 calc R U . . .
loop_
_atom_site_aniso_label
_atom_site_aniso_U_11
_atom_site_aniso_U_22
_atom_site_aniso_U_33
_atom_site_aniso_U_23
_atom_site_aniso_U_13
_atom_site_aniso_U_12
Se1 0.0313(3) 0.0466(3) 0.0292(3) 0.00633(16) -0.00135(17) 0.00363(17)
F1 0.0432(15) 0.0372(14) 0.0526(15) -0.0036(12) -0.0106(12) -0.0036(11)
F2 0.0530(17) 0.0310(13) 0.0535(16) 0.0033(11) 0.0007(13) 0.0039(11)
N1 0.048(2) 0.078(3) 0.035(2) -0.003(2) -0.0108(18) 0.008(2)
O1 0.0420(18) 0.079(3) 0.0385(17) 0.0205(18) 0.0024(14) 0.0089(18)
C1 0.0266(19) 0.042(2) 0.0302(19) 0.0013(16) 0.0035(16) 0.0004(16)
C2 0.030(2) 0.036(2) 0.0316(19) -0.0030(16) -0.0030(16) -0.0005(16)
C3 0.034(2) 0.038(2) 0.038(2) 0.0038(17) -0.0018(17) 0.0024(17)
C4 0.032(2) 0.048(2) 0.0260(18) -0.0018(17) -0.0024(16) 0.0020(18)
C5 0.037(2) 0.039(2) 0.0337(19) -0.0067(18) 0.0007(17) -0.0051(19)
C6 0.036(2) 0.035(2) 0.0343(19) 0.0018(17) 0.0047(17) 0.0031(17)
C7 0.040(2) 0.055(3) 0.0289(19) -0.0017(19) -0.0019(18) 0.002(2)
C8 0.032(2) 0.041(2) 0.037(2) 0.0045(18) 0.0006(17) 0.0057(17)
C9 0.032(2) 0.052(3) 0.037(2) 0.0036(19) 0.0002(18) 0.0049(19)
loop_
_atom_type_symbol
_atom_type_description
_atom_type_scat_dispersion_real
_atom_type_scat_dispersion_imag
_atom_type_scat_source
C C 0.0033 0.0016 'International Tables Vol C Tables 4.2.6.8 and 6.1.1.4'
H H 0.0000 0.0000 'International Tables Vol C Tables 4.2.6.8 and 6.1.1.4'
F F 0.0171 0.0103 'International Tables Vol C Tables 4.2.6.8 and 6.1.1.4'
N N 0.0061 0.0033 'International Tables Vol C Tables 4.2.6.8 and 6.1.1.4'
O O 0.0106 0.0060 'International Tables Vol C Tables 4.2.6.8 and 6.1.1.4'
Se Se -0.0929 2.2259 'International Tables Vol C Tables 4.2.6.8 and 6.1.1.4'
loop_
_geom_angle_atom_site_label_1
_geom_angle_atom_site_label_2
_geom_angle_atom_site_label_3
_geom_angle
_geom_angle_site_symmetry_1
_geom_angle_site_symmetry_3
_geom_angle_publ_flag
C1 Se1 C8 95.71(18) . . ?
C6 C1 C2 116.3(4) . . ?
C6 C1 Se1 122.1(3) . . ?
C2 C1 Se1 121.6(3) . . ?
F1 C2 C3 118.1(4) . . ?
F1 C2 C1 118.5(3) . . ?
C3 C2 C1 123.4(4) . . ?
C2 C3 C4 117.1(4) . . ?
C2 C3 H3 121.5 . . ?
C4 C3 H3 121.5 . . ?
C5 C4 C3 121.9(4) . . ?
C5 C4 C7 118.5(4) . . ?
C3 C4 C7 119.7(4) . . ?
C6 C5 C4 117.8(4) . . ?
C6 C5 H5 121.1 . . ?
C4 C5 H5 121.1 . . ?
F2 C6 C5 118.0(4) . . ?
F2 C6 C1 118.4(4) . . ?
C5 C6 C1 123.6(4) . . ?
N1 C7 C4 177.7(6) . . ?
O1 C8 C9 126.2(4) . . ?
O1 C8 Se1 121.6(3) . . ?
C9 C8 Se1 112.2(3) . . ?
C8 C9 H9A 109.5 . . ?
C8 C9 H9B 109.5 . . ?
H9A C9 H9B 109.5 . . ?
C8 C9 H9C 109.5 . . ?
H9A C9 H9C 109.5 . . ?
H9B C9 H9C 109.5 . . ?
loop_
_geom_bond_atom_site_label_1
_geom_bond_atom_site_label_2
_geom_bond_distance
_geom_bond_site_symmetry_2
_geom_bond_publ_flag
Se1 C1 1.911(4) . ?
Se1 C8 1.969(5) . ?
F1 C2 1.345(5) . ?
F2 C6 1.351(5) . ?
N1 C7 1.142(6) . ?
O1 C8 1.189(5) . ?
C1 C6 1.380(6) . ?
C1 C2 1.394(6) . ?
C2 C3 1.387(5) . ?
C3 C4 1.394(6) . ?
C3 H3 0.9500 . ?
C4 C5 1.391(7) . ?
C4 C7 1.453(5) . ?
C5 C6 1.377(6) . ?
C5 H5 0.9500 . ?
C8 C9 1.498(6) . ?
C9 H9A 0.9800 . ?
C9 H9B 0.9800 . ?
C9 H9C 0.9800 . ?
loop_
_geom_torsion_atom_site_label_1
_geom_torsion_atom_site_label_2
_geom_torsion_atom_site_label_3
_geom_torsion_atom_site_label_4
_geom_torsion
_geom_torsion_site_symmetry_1
_geom_torsion_site_symmetry_2
_geom_torsion_site_symmetry_3
_geom_torsion_site_symmetry_4
_geom_torsion_publ_flag
C6 C1 C2 F1 -178.9(4) . . . . ?
Se1 C1 C2 F1 1.1(6) . . . . ?
C6 C1 C2 C3 2.0(7) . . . . ?
Se1 C1 C2 C3 -177.9(3) . . . . ?
F1 C2 C3 C4 179.1(4) . . . . ?
C1 C2 C3 C4 -1.8(7) . . . . ?
C2 C3 C4 C5 0.1(7) . . . . ?
C2 C3 C4 C7 -179.4(4) . . . . ?
C3 C4 C5 C6 1.2(7) . . . . ?
C7 C4 C5 C6 -179.2(4) . . . . ?
C4 C5 C6 F2 179.3(4) . . . . ?
C4 C5 C6 C1 -0.9(7) . . . . ?
C2 C1 C6 F2 179.1(4) . . . . ?
Se1 C1 C6 F2 -0.9(6) . . . . ?
C2 C1 C6 C5 -0.6(7) . . . . ?
Se1 C1 C6 C5 179.4(4) . . . . ?
