#------------------------------------------------------------------------------
#$Date: 2020-10-04 06:14:26 +0300 (Sun, 04 Oct 2020) $
#$Revision: 257078 $
#$URL: file:///home/coder/svn-repositories/cod/cif/4/51/75/4517505.cif $
#------------------------------------------------------------------------------
#
# This file is available in the Crystallography Open Database (COD),
# http://www.crystallography.net/
#
# All data on this site have been placed in the public domain by the
# contributors.
#
data_4517505
loop_
_publ_author_name
'Stenger-Smith, Jenny'
'Kamariza, Mireille'
'Chakraborty, Indranil'
'Ouattara, Ramatoulaye'
'Bertozzi, Carolyn R.'
'Mascharak, Pradip K.'
_publ_section_title
;
 Enhanced Bactericidal Effects of Pyrazinamide Toward Mycobacterium
 smegmatis and Mycobacterium tuberculosis upon Conjugation to a
 {Au(I)-triphenylphosphine}+ Moiety
;
_journal_issue                   12
_journal_name_full               'ACS Omega'
_journal_page_first              6826
_journal_page_last               6833
_journal_paper_doi               10.1021/acsomega.0c00071
_journal_volume                  5
_journal_year                    2020
_chemical_formula_moiety         'C5 H4 Au Cl2 N3 O'
_chemical_formula_sum            'C5 H4 Au Cl2 N3 O'
_chemical_formula_weight         389.98
_space_group_crystal_system      triclinic
_space_group_IT_number           2
_space_group_name_Hall           '-P 1'
_space_group_name_H-M_alt        'P -1'
_atom_sites_solution_hydrogens   mixed
_audit_creation_date             2019-10-04
_audit_creation_method
;
Olex2 1.2
(compiled May 18 2018 14:05:52 for OlexSys, GUI svn.r5506)
;
_cell_angle_alpha                94.664(2)
_cell_angle_beta                 106.878(2)
_cell_angle_gamma                91.649(2)
_cell_formula_units_Z            2
_cell_length_a                   6.6857(10)
_cell_length_b                   7.2848(11)
_cell_length_c                   8.9057(13)
_cell_measurement_reflns_used    4058
_cell_measurement_temperature    298(2)
_cell_measurement_theta_max      24.760
_cell_measurement_theta_min      3.522
_cell_volume                     413.06(11)
_computing_cell_refinement       'SAINT V8.38A (?, 2016)'
_computing_data_collection       'Bruker APEX3'
_computing_data_reduction        'SAINT V8.38A (?, 2016)'
_computing_molecular_graphics    'Olex2 (Dolomanov et al., 2009)'
_computing_publication_material  'Olex2 (Dolomanov et al., 2009)'
_computing_structure_refinement  'ShelXL (Sheldrick, 2015)'
_computing_structure_solution    'ShelXT (Sheldrick, 2015)'
_diffrn_ambient_temperature      295.5
_diffrn_measured_fraction_theta_full 0.984
_diffrn_measured_fraction_theta_max 0.984
_diffrn_measurement_device_type  'Bruker D8 Quest PHOTON 100'
_diffrn_measurement_method       \w-scan
_diffrn_radiation_type           MoK\a
_diffrn_radiation_wavelength     0.71076
_diffrn_reflns_av_R_equivalents  0.0194
_diffrn_reflns_av_unetI/netI     0.0215
_diffrn_reflns_Laue_measured_fraction_full 0.984
_diffrn_reflns_Laue_measured_fraction_max 0.984
_diffrn_reflns_limit_h_max       7
_diffrn_reflns_limit_h_min       -7
_diffrn_reflns_limit_k_max       8
_diffrn_reflns_limit_k_min       -8
_diffrn_reflns_limit_l_max       10
_diffrn_reflns_limit_l_min       -10
_diffrn_reflns_number            4259
_diffrn_reflns_point_group_measured_fraction_full 0.984
_diffrn_reflns_point_group_measured_fraction_max 0.984
_diffrn_reflns_theta_full        24.761
_diffrn_reflns_theta_max         24.761
_diffrn_reflns_theta_min         3.521
_exptl_absorpt_coefficient_mu    18.403
_exptl_absorpt_correction_T_max  0.7451
_exptl_absorpt_correction_T_min  0.4168
_exptl_absorpt_correction_type   multi-scan
_exptl_absorpt_process_details
;
 SADABS 2016/2: Krause, L., Herbst-Irmer, R., Sheldrick G.M. & Stalke D.,
 J. Appl. Cryst. 48 (2015) 3-10
;
_exptl_crystal_colour            yellow
_exptl_crystal_colour_primary    yellow
_exptl_crystal_density_diffrn    3.135
_exptl_crystal_description       block
_exptl_crystal_F_000             352
_exptl_crystal_size_max          0.18
_exptl_crystal_size_mid          0.15
_exptl_crystal_size_min          0.06
_refine_diff_density_max         0.744
_refine_diff_density_min         -1.404
_refine_diff_density_rms         0.177
_refine_ls_extinction_method     none
_refine_ls_goodness_of_fit_ref   1.198
_refine_ls_hydrogen_treatment    mixed
_refine_ls_matrix_type           full
_refine_ls_number_parameters     113
_refine_ls_number_reflns         1395
_refine_ls_number_restraints     0
_refine_ls_restrained_S_all      1.198
_refine_ls_R_factor_all          0.0175
_refine_ls_R_factor_gt           0.0174
_refine_ls_shift/su_max          0.002
_refine_ls_shift/su_mean         0.000
_refine_ls_structure_factor_coef Fsqd
_refine_ls_weighting_details
'w=1/[\s^2^(Fo^2^)+(0.0268P)^2^+0.1236P] where P=(Fo^2^+2Fc^2^)/3'
_refine_ls_weighting_scheme      calc
_refine_ls_wR_factor_gt          0.0425
_refine_ls_wR_factor_ref         0.0426
_reflns_Friedel_coverage         0.000
_reflns_number_gt                1381
_reflns_number_total             1395
_reflns_threshold_expression     'I > 2\s(I)'
_cod_data_source_file            ao0c00071_si_001.cif
_cod_data_source_block           ic280_0m
_cod_depositor_comments
;Adding full bibliography for 4517503--4517505.cif.

 Adding full bibliography for 4517503--4517505.cif.
;
_cod_database_code               4517505
_shelx_shelxl_version_number     2018/3
_shelx_space_group_comment
;
The symmetry employed for this shelxl refinement is uniquely defined
by the following loop, which should always be used as a source of
symmetry information in preference to the above space-group names.
They are only intended as comments.
;
_olex2_refinement_description
;
1. Fixed Uiso
 At 1.2 times of:
  All C(H) groups
2.a Aromatic/amide H refined with riding coordinates:
 C2(H2), C3(H3A), C4(H4)
;
_shelx_res_file
;
TITL ic280_0m_a.res in P-1
    ic280_0m.res
    created by SHELXL-2018/3 at 12:25:40 on 04-Oct-2019
REM Old TITL
REM SHELXT solution in P-1: R1 0.081, Rweak 0.019, Alpha 0.037
REM <I/s> 0.000 for 0 systematic absences, Orientation as input
REM Formula found by SHELXT: C4 N O4 Cl2 Au
CELL 0.71076 6.6857 7.2848 8.9057 94.664 106.878 91.649
ZERR 2 0.001 0.0011 0.0013 0.002 0.002 0.002
LATT 1
SFAC C H Au Cl N O
UNIT 10 8 2 4 6 2

L.S. 10 0 32
PLAN  5
TEMP 22.35
list 4
fmap 2
acta
REM <olex2.extras>
REM <HklSrc "%./IC280_0m.hkl">
REM </olex2.extras>

WGHT    0.026800    0.123600
FVAR       0.70393
AU1   3    0.567017    0.779430    0.621826    11.00000    0.02757    0.03038 =
         0.01510    0.00004    0.00568   -0.00538
CL1   4    0.782731    0.852702    0.479636    11.00000    0.04935    0.05414 =
         0.03455    0.00296    0.02279   -0.01210
CL2   4    0.313767    0.666576    0.397024    11.00000    0.04261    0.05318 =
         0.01733   -0.00122    0.00024   -0.00784
O1    6    0.818230    0.917756    1.092684    11.00000    0.03736    0.05798 =
         0.01686   -0.00663    0.00315   -0.02201
N1    5    0.240667    0.619534    1.008855    11.00000    0.03057    0.05475 =
         0.01874    0.00221    0.00738   -0.01032
N2    5    0.404331    0.711463    0.773031    11.00000    0.02580    0.03493 =
         0.01842    0.00179    0.00551   -0.00168
N3    5    0.769639    0.880311    0.824539    11.00000    0.02581    0.04333 =
         0.02280   -0.00215    0.00430   -0.01587
H3    2    0.876630    0.931471    0.849902    11.00000    0.02750
C1    1    0.509027    0.759870    0.925518    11.00000    0.02482    0.02810 =
         0.01852   -0.00111    0.00332   -0.00243
C2    1    0.423441    0.714548    1.042335    11.00000    0.03225    0.04144 =
         0.02031    0.00064    0.00651   -0.00436
AFIX  43
H2    2    0.495532    0.751451    1.147041    11.00000   -1.20000
AFIX   0
C3    1    0.139678    0.572050    0.859143    11.00000    0.02803    0.06002 =
         0.03354    0.00237    0.01004   -0.01241
AFIX  43
H3A   2    0.011713    0.505396    0.833893    11.00000   -1.20000
AFIX   0
C4    1    0.219602    0.619167    0.735781    11.00000    0.02569    0.05211 =
         0.01935   -0.00089    0.00096   -0.01195
AFIX  43
H4    2    0.144536    0.586279    0.630994    11.00000   -1.20000
AFIX   0
C5    1    0.718090    0.861589    0.955254    11.00000    0.02951    0.03128 =
         0.02364   -0.00085    0.00482   -0.00606
HKLF 4




REM  ic280_0m_a.res in P-1
REM wR2 = 0.0426, GooF = S = 1.198, Restrained GooF = 1.198 for all data
REM R1 = 0.0174 for 1381 Fo > 4sig(Fo) and 0.0175 for all 1395 data
REM 113 parameters refined using 0 restraints

END

WGHT      0.0268      0.1236

REM Highest difference peak  0.744,  deepest hole -1.404,  1-sigma level  0.177
Q1    1   0.5428  0.7303  0.4544  11.00000  0.05    0.74
Q2    1   0.8009  0.8047  0.7193  11.00000  0.05    0.57
Q3    1   0.7828  0.8688  0.6674  11.00000  0.05    0.57
Q4    1   0.4853  0.6197  0.4982  11.00000  0.05    0.55
Q5    1   0.5598  0.8251  0.7865  11.00000  0.05    0.53
;
_shelx_res_checksum              96442
_shelx_hkl_file
;
  -2   0   0  284.90    9.17
   2   0   0  274.22   10.08
   2   0   0  323.01    9.00
  -3   0   0 1276.92   39.52
  -3   0   0 1330.66   39.73
   3   0   0 1240.30   40.90
   3   0   0 1385.22   39.24
  -4   0   0   28.11    2.36
  -4   0   0   27.92    2.23
   4   0   0   31.50    3.97
   4   0   0   29.56    1.43
  -5   0   0  987.73   30.17
  -5   0   0  990.50   29.96
   5   0   0  911.55   32.13
  -6   0   0 1145.21   35.77
  -6   0   0 1164.15   35.65
   6   0   0 1112.57   38.30
  -7   0   0  889.44   27.90
  -7   0   0  837.79   27.92
   7   0   0  858.81   30.81
   7  -1   0   54.19    7.77
  -7   1   0   65.66    5.05
  -7   1   0   66.66    5.05
   6  -1   0  627.48   23.59
  -6   1   0  624.37   20.74
  -6   1   0  644.77   20.57
   5  -1   0 3001.06   95.60
  -5   1   0 3185.63   93.05
  -5   1   0 3082.76   93.32
   4  -1   0 3649.94  118.46
  -4   1   0 3985.51  116.80
  -4   1   0 4039.13  116.54
   3  -1   0 1852.83   59.32
  -3   1   0 1961.80   58.07
  -3   1   0 1958.60   57.84
   2  -1   0 1394.55   45.12
  -2   1   0 1491.45   44.42
  -2   1   0 1539.16   44.26
   1  -1   0  584.38   19.99
   1  -1   0  664.54   19.60
  -1   1   0  667.26   19.62
  -1   1   0  678.05   19.36
  -1  -1   0 1818.79   57.49
  -1  -1   0 2061.33   57.98
   1   1   0 2096.10   57.43
   1   1   0 1755.01   57.83
   1   1   0 1893.53   57.47
  -2  -1   0 2185.97   64.24
  -2  -1   0 2104.19   64.28
  -3  -1   0 4981.17  148.73
  -4  -1   0 5596.77  162.38
  -4  -1   0 5280.29  162.28
   4   1   0 5286.06  164.00
   4   1   0 5551.66  161.78
  -5  -1   0 1451.51   42.79
  -5  -1   0 1426.58   42.75
   5   1   0 1250.27   44.65
   5   1   0 1421.86   41.90
  -6  -1   0  118.52    5.55
  -6  -1   0  115.27    6.17
   6   1   0  113.51    4.37
   6   1   0  107.88    8.09
  -7  -1   0    7.47    2.51
  -7  -1   0   11.83    3.16
   7   1   0   15.79    4.35
   7  -2   0  584.37   22.65
  -7   2   0  542.04   19.48
  -7   2   0  565.73   19.05
   6  -2   0  536.75   20.94
  -6   2   0  542.71   17.56
  -6   2   0  507.43   17.82
  -5   2   0   17.36    2.31
   4  -2   0  496.00   18.36
  -4   2   0  541.80   16.45
  -4   2   0  513.29   16.75
   3  -2   0  363.22   13.70
  -3   2   0  388.43   12.14
  -3   2   0  396.79   12.47
   2  -2   0 4629.40  139.09
  -1  -2   0  496.36   14.48
  -1  -2   0  448.13   14.38
  -1  -2   0  474.92   15.26
   1   2   0  433.75   14.35
   1   2   0  506.39   14.58
   1   2   0  487.09   14.42
  -2  -2   0 1434.27   42.67
   2   2   0 1402.73   42.68
  -3  -2   0  171.04    6.87
  -3  -2   0  194.42    6.41
   3   2   0  183.82    6.22
  -4  -2   0 1162.16   35.44
  -4  -2   0 1132.45   35.88
   4   2   0 1169.98   35.12
  -5  -2   0 1842.71   55.42
  -5  -2   0 1803.55   54.91
   5   2   0 1813.74   54.36
   5   2   0 1739.46   57.14
  -6  -2   0 1372.74   41.19
  -6  -2   0 1270.63   41.66
   6   2   0 1298.81   43.69
   6   2   0 1345.56   40.30
  -7  -2   0  933.79   30.80
  -7  -2   0 1025.27   32.00
   7   2   0  939.47   31.25
   7   2   0  956.14   33.83
   7  -3   0  241.98   13.77
  -7   3   0  244.09    9.90
   6  -3   0 1185.30   40.04
  -6   3   0 1167.65   36.71
   5  -3   0 1974.69   62.88
  -5   3   0 1981.56   60.12
   4  -3   0 1330.61   42.80
  -4   3   0 1333.42   40.64
   3  -3   0  795.19   24.70
   3  -3   0  780.59   26.03
  -3   3   0  798.96   24.33
   2  -3   0  422.52   13.29
   2  -3   0  403.31   14.28
  -2   3   0  405.41   12.93
  -2   3   0  425.64   12.67
   1  -3   0   77.93    3.97
   1  -3   0   80.44    3.33
  -1   3   0   76.02    2.83
  -1   3   0   71.61    2.74
   0  -3   0 1553.64   47.56
   0  -3   0 1610.51   48.72
   0   3   0 1604.01   47.56
   0   3   0 1585.71   47.69
  -1  -3   0 2025.16   63.65
  -1  -3   0 2132.17   62.42
   1   3   0 2079.33   62.40
   1   3   0 2120.80   62.70
  -2  -3   0 4058.71  127.88
  -2  -3   0 4320.80  126.51
   2   3   0 4266.37  126.42
   2   3   0 4319.16  126.72
  -3  -3   0 5931.08  177.61
   3   3   0 5891.38  177.69
   3   3   0 6038.98  177.67
  -4  -3   0 2220.06   67.51
   4   3   0 2251.54   67.45
  -5  -3   0  192.35    8.39
  -5  -3   0  196.18    7.59
   5   3   0  197.99    7.20
  -6  -3   0    5.50    1.93
  -6  -3   0   10.18    3.71
   6   3   0    3.53    1.58
   6   3   0    5.06    3.64
   6  -4   0   24.95    5.04
   6  -4   0   21.54    3.31
  -6   4   0   19.02    2.66
   5  -4   0  118.72    8.38
   5  -4   0  110.40    6.05
  -5   4   0  116.13    5.30
   4  -4   0  276.10   12.14
   4  -4   0  284.76   10.17
  -4   4   0  274.63    9.56
   3  -4   0 2011.70   61.04
   3  -4   0 1958.37   62.33
  -3   4   0 2080.43   60.06
  -3   4   0 1975.29   60.51
   2  -4   0 8691.27  263.32
   2  -4   0 8890.99  262.26
   1  -4   0 5981.37  175.14
   1  -4   0 5671.98  174.06
   0  -4   0  961.89   29.00
   0  -4   0  949.85   30.60
   0   4   0  970.25   29.05
   0   4   0  957.96   29.24
  -1  -4   0  700.42   23.92
  -1  -4   0  755.73   22.18
   1   4   0  723.26   22.19
   1   4   0  742.22   22.59
  -2  -4   0  169.25    7.85
  -2  -4   0  183.91    5.99
   2   4   0  175.06    5.85
   2   4   0  176.99    6.32
  -3  -4   0  652.75   20.05
   3   4   0  648.92   19.90
   3   4   0  632.17   20.32
  -4  -4   0 1872.54   57.26
   4   4   0 1912.48   57.18
   4   4   0 1883.12   57.41
  -5  -4   0 1641.19   49.64
   5   4   0 1605.69   49.53
   5   4   0 1612.12   49.59
  -6  -4   0 1093.85   34.48
   6   4   0 1113.71   34.24
   6   4   0 1086.60   34.77
   6  -5   0  664.74   22.89
   6  -5   0  679.80   25.27
  -6   5   0  658.95   21.95
   5  -5   0  642.00   23.35
   5  -5   0  635.34   21.47
  -5   5   0  620.05   20.48
   4  -5   0  358.99   13.08
   4  -5   0  356.38   14.69
  -4   5   0  355.15   12.05
   3  -5   0  179.97    7.17
   3  -5   0  164.93    8.64
  -3   5   0  171.10    5.81
  -3   5   0  160.83    6.26
   2  -5   0    2.82    2.26
  -2   5   0    3.39    0.91
  -2   5   0    2.72    1.10
   1  -5   0  633.61   22.04
   1  -5   0  662.20   20.44
  -1   5   0  656.04   20.15
  -1   5   0  650.50   20.16
   0  -5   0 1409.89   45.42
   0  -5   0 1474.23   43.36
   0   5   0 1456.12   43.73
   0   5   0 1421.47   43.45
  -1  -5   0 2491.73   72.59
  -1  -5   0 2386.17   74.91
   1   5   0 2405.35   72.67
   1   5   0 2421.71   73.14
  -2  -5   0 3667.37  114.45
  -2  -5   0 3833.89  111.90
   2   5   0 3695.56  111.83
   2   5   0 3785.18  112.49
  -3  -5   0 2187.39   64.77
  -3  -5   0 2112.51   67.52
   3   5   0 2161.56   65.28
   3   5   0 2138.52   64.54
  -4  -5   0  270.63    9.60
   4   5   0  279.64    9.94
   4   5   0  283.17    9.32
  -5  -5   0    3.78    1.95
   5   5   0    5.80    1.84
   5   5   0    2.35    1.66
   5  -6   0  119.48    7.48
   5  -6   0  134.19    9.47
  -5   6   0  109.01    5.94
   4  -6   0  639.29   21.93
   4  -6   0  640.10   23.32
  -4   6   0  646.61   20.72
   3  -6   0 2489.44   75.40
   3  -6   0 2441.74   76.80
  -3   6   0 2487.65   73.84
  -3   6   0 2415.15   74.24
   2  -6   0 2421.49   74.10
   2  -6   0 2411.52   75.70
  -2   6   0 2400.15   73.32
  -2   6   0 2501.20   73.20
   1  -6   0  780.65   23.78
   1  -6   0  743.54   26.17
  -1   6   0  779.97   23.81
  -1   6   0  758.46   23.72
   0  -6   0  289.50   12.37
   0  -6   0  299.84    9.49
   0   6   0  291.33   10.04
   0   6   0  296.90    9.67
  -1  -6   0   75.36    6.31
  -1  -6   0   70.62    3.03
   1   6   0   71.87    3.87
   1   6   0   74.72    3.22
  -2  -6   0  189.34   10.02
  -2  -6   0  195.73    6.57
   2   6   0  186.90    7.35
   2   6   0  191.89    6.59
  -3  -6   0 1093.46   37.50
  -3  -6   0 1127.24   34.13
   3   6   0 1108.58   33.92
   3   6   0 1132.05   34.89
  -4  -6   0 1260.10   39.93
   4   6   0 1327.68   40.63
   4   6   0 1322.95   39.75
  -5  -6   0  824.50   27.38
   5   6   0  913.20   28.08
   4  -7   0   62.00    8.23
   4  -7   0   68.37    8.10
  -4   7   0   57.96    4.62
   3  -7   0    3.45    3.17
   3  -7   0   -2.80    3.70
  -3   7   0    0.41    1.41
  -3   7   0   -0.87    1.55
   2  -7   0  172.29    7.28
   2  -7   0  167.87    9.41
  -2   7   0  163.38    6.45
  -2   7   0  167.86    6.54
   1  -7   0  618.50   19.16
   1  -7   0  618.91   22.36
  -1   7   0  600.83   19.36
  -1   7   0  608.32   19.55
   0  -7   0  975.98   33.55
   0   7   0  995.22   30.52
   0   7   0 1003.15   30.97
  -1  -7   0 1627.43   52.38
   1   7   0 1593.27   49.56
   1   7   0 1621.67   48.89
  -2  -7   0 1394.06   44.64
   2   7   0 1308.09   40.40
   2   7   0 1290.60   41.31
  -3  -7   0  287.51   14.23
   3   7   0  277.66   10.58
   3   7   0  280.78    9.46
   3  -8   0  732.64   27.09
  -3   8   0  728.00   23.16
  -3   8   0  687.49   22.74
   2  -8   0  371.42   16.64
  -2   8   0  359.58   12.50
  -2   8   0  364.52   12.42
   1  -8   0  130.39    9.74
  -1   8   0  120.80    5.45
  -1   8   0  124.99    5.76
   0  -8   0   28.06    5.47
   0   8   0   24.60    3.43
   0   8   0   23.27    3.27
  -1  -8   0   46.29    8.02
   1   8   0   45.57    4.09
   1   8   0   44.96    3.59
  -2  -8   0  460.23   20.13
   2   8   0  460.62   14.99
   2   8   0  455.11   16.02
   2   8  -1   -0.18    2.13
  -2  -8   1    4.32    4.95
   1   8  -1  244.38    8.63
   1   8  -1  246.90    9.62
  -1  -8   1  251.58   13.13
   0   8  -1  338.68   12.30
   0   8  -1  335.82   11.81
   0  -8   1  382.78   15.98
  -1   8  -1  396.20   13.25
  -1   8  -1  388.33   13.50
   1  -8   1  403.40   16.89
  -2   8  -1  680.33   21.65
  -2   8  -1  662.61   21.65
   2  -8   1  682.55   25.07
   4   7  -1  291.28   10.95
  -4  -7   1  272.67   10.02
   3   7  -1  979.43   30.98
  -3  -7   1  982.29   34.17
  -3  -7   1  960.74   30.09
   2   7  -1 2135.89   62.99
   2   7  -1 2090.09   64.01
  -2  -7   1 2112.35   66.79
  -2  -7   1 2042.29   63.19
   1   7  -1 1267.54   38.87
   1   7  -1 1255.82   38.08
  -1  -7   1 1221.79   38.14
  -1  -7   1 1266.54   41.33
   0   7  -1  197.30    7.53
   0   7  -1  173.25    6.92
   0  -7   1  209.64   10.04
   0  -7   1  201.88    7.12
  -1   7  -1    4.31    1.50
  -1   7  -1    4.63    1.60
   1  -7   1    6.27    2.08
   1  -7   1    2.76    3.12
  -2   7  -1   93.62    4.59
  -2   7  -1   93.11    4.50
   2  -7   1   96.09    7.16
   2  -7   1   95.71    5.98
  -3   7  -1  521.72   16.52
  -3   7  -1  469.69   16.08
   3  -7   1  490.41   18.54
   3  -7   1  511.74   19.16
  -4   7  -1  506.56   17.51
   4  -7   1  527.60   20.33
   4  -7   1  534.57   19.78
   5   6  -1  494.62   16.66
  -5  -6   1  478.68   16.27
   4   6  -1  162.17    6.91
  -4  -6   1  161.35    6.67
   3   6  -1    3.83    1.04
   3   6  -1    1.51    1.53
  -3  -6   1    5.86    1.58
  -3  -6   1   -0.99    3.04
   2   6  -1  492.37   16.32
   2   6  -1  507.39   15.47
  -2  -6   1  495.07   18.72
  -2  -6   1  497.96   15.76
   1   6  -1  861.78   25.91
   1   6  -1  839.49   26.51
  -1  -6   1  844.14   26.05
  -1  -6   1  847.49   28.67
   0   6  -1  949.78   28.58
   0   6  -1  942.30   28.94
   0  -6   1  931.02   28.77
   0  -6   1  912.15   30.87
  -1   6  -1 1980.46   60.80
  -1   6  -1 2036.93   60.95
   1  -6   1 1965.77   62.97
   1  -6   1 2084.07   61.47
  -2   6  -1 1708.36   52.23
  -2   6  -1 1769.83   52.13
   2  -6   1 1767.64   54.53
   2  -6   1 1639.31   53.36
  -3   6  -1  343.22   11.33
  -3   6  -1  346.41   11.75
   3  -6   1  331.97   13.46
   3  -6   1  354.44   14.04
  -4   6  -1    3.19    1.92
   4  -6   1    5.62    3.13
   4  -6   1    7.42    3.31
  -5   6  -1   34.03    4.22
   5  -6   1   31.54    5.01
   5  -6   1   34.44    4.56
   6   5  -1  272.16   10.20
  -6  -5   1  271.32   10.26
   5   5  -1  384.55   12.88
  -5  -5   1  362.52   12.75
   4   5  -1 1436.44   43.97
  -4  -5   1 1420.45   43.68
   3   5  -1 4035.70  122.19
   3   5  -1 4071.70  121.27
  -3  -5   1 4035.85  124.45
  -3  -5   1 4133.36  121.84
   2   5  -1 3467.14  102.08
   2   5  -1 3424.01  101.31
  -2  -5   1 3386.96  101.65
  -2  -5   1 3306.02  103.82
   1   5  -1  581.46   18.55
   1   5  -1  606.85   18.07
  -1  -5   1  596.83   18.29
  -1  -5   1  570.68   20.15
   0   5  -1   20.05    1.64
   0   5  -1   18.20    1.86
   0  -5   1   22.91    3.30
   0  -5   1   23.62    2.10
  -1   5  -1  155.33    5.54
  -1   5  -1  151.41    5.46
   1  -5   1  162.86    7.18
   1  -5   1  150.82    6.48
  -2   5  -1 1500.56   43.69
  -2   5  -1 1433.30   43.82
   2  -5   1 1404.78   44.90
   2  -5   1 1436.31   45.52
  -3   5  -1 1668.45   51.77
  -3   5  -1 1743.39   51.38
   3  -5   1 1749.43   52.82
   3  -5   1 1657.41   53.53
  -4   5  -1  967.85   30.62
   4  -5   1  976.71   32.64
   4  -5   1 1001.30   31.73
  -5   5  -1  870.04   27.87
   5  -5   1  896.58   30.20
   5  -5   1  864.71   28.81
  -6   5  -1  470.81   16.66
   6  -5   1  504.88   19.41
   6  -5   1  453.91   17.64
   6   4  -1  729.92   23.23
  -6  -4   1  726.32   23.52
   5   4  -1  219.71    8.12
   5   4  -1  228.57    7.76
  -5  -4   1  218.64    8.30
   4   4  -1    3.80    1.29
  -4  -4   1    7.03    1.47
   3   4  -1  671.16   21.32
  -3  -4   1  690.51   21.19
   2   4  -1 1414.44   42.60
   2   4  -1 1421.83   42.00
  -2  -4   1 1420.28   42.39
  -2  -4   1 1352.48   44.05
   1   4  -1 1663.51   50.68
   1   4  -1 1672.43   50.24
  -1  -4   1 1679.07   51.97
  -1  -4   1 1702.16   50.54
   0   4  -1 4486.69  134.57
   0   4  -1 4482.45  134.35
   0  -4   1 4571.29  135.82
   0  -4   1 4496.30  134.73
  -1   4  -1 4513.06  132.51
  -1   4  -1 4427.19  132.49
   1  -4   1 4558.01  133.81
   1  -4   1 4269.33  133.33
  -2   4  -1 1259.83   36.70
  -2   4  -1 1177.29   36.84
   2  -4   1 1185.44   38.14
   2  -4   1 1234.67   37.69
  -3   4  -1   38.03    2.53
  -3   4  -1   38.62    2.12
   3  -4   1   37.31    3.91
   3  -4   1   39.10    3.27
  -4   4  -1  117.67    5.20
   4  -4   1  117.37    6.92
   4  -4   1  125.36    6.14
  -5   4  -1  295.56   10.37
   5  -4   1  279.14   11.19
   5  -4   1  290.88   12.69
  -6   4  -1  462.70   15.95
   6  -4   1  471.14   18.38
   6  -4   1  448.25   16.71
   7   3  -1  203.15    7.87
   7   3  -1  206.21   12.40
  -7  -3   1  215.05    8.82
   6   3  -1  399.44   16.52
   6   3  -1  393.13   12.94
  -6  -3   1  364.48   14.09
  -6  -3   1  398.38   13.49
   5   3  -1 1393.04   40.67
  -5  -3   1 1394.21   41.08
  -5  -3   1 1205.66   41.09
   4   3  -1 4661.19  142.14
  -4  -3   1 4850.29  142.34
   3   3  -1 5748.05  175.56
  -3  -3   1 6022.36  175.61
   2   3  -1 1439.25   43.66
  -2  -3   1 1432.84   44.91
  -2  -3   1 1466.64   43.60
   1   3  -1   30.02    1.30
   1   3  -1   29.10    1.64
  -1  -3   1   33.08    1.75
  -1  -3   1   35.65    2.71
   0   3  -1  194.47    6.13
   0   3  -1  189.73    6.30
   0  -3   1  194.81    7.18
   0  -3   1  195.34    6.61
  -1   3  -1 3043.36   89.95
  -1   3  -1 2916.98   89.95
   1  -3   1 3051.46   90.89
   1  -3   1 3042.35   90.67
  -2   3  -1 4412.03  130.66
  -2   3  -1 4263.12  130.88
   2  -3   1 4490.11  131.44
   2  -3   1 4376.48  131.90
  -3   3  -1 2619.09   79.10
  -3   3  -1 2737.96   78.75
   3  -3   1 2607.95   79.58
   3  -3   1 2564.20   80.31
  -4   3  -1 2408.68   69.96
   4  -3   1 2089.94   70.28
   4  -3   1 2441.83   71.76
  -5   3  -1 1608.62   48.56
   5  -3   1 1528.70   49.04
   5  -3   1 1605.11   50.75
  -6   3  -1  222.49    9.02
   6  -3   1  223.92    9.63
   6  -3   1  222.35   11.76
   7   2  -1  727.26   23.67
   7   2  -1  751.86   28.05
  -7  -2   1  741.45   24.79
  -7  -2   1  822.72   25.54
   6   2  -1  215.82    7.55
   6   2  -1  210.09   11.04
  -6  -2   1  224.50    9.03
  -6  -2   1  217.65    8.48
   5   2  -1    9.41    3.14
   5   2  -1    4.74    1.01
  -5  -2   1    7.77    1.66
   4   2  -1  495.85   15.52
  -4  -2   1  509.59   15.94
  -4  -2   1  485.51   15.98
   3   2  -1 1317.01   39.07
  -3  -2   1 1357.93   39.28
  -3  -2   1 1207.72   39.21
   2   2  -1 2235.17   67.33
  -2  -2   1 2265.87   67.39
  -1   2  -1 2925.80   85.71
  -1   2  -1 2827.57   85.76
   1  -2   1 2865.71   86.32
   1  -2   1 2879.77   86.19
  -2   2  -1  228.03    7.80
  -2   2  -1  246.98    8.02
   2  -2   1  254.88    8.94
   2  -2   1  262.12    8.40
  -3   2  -1  367.40   11.89
   3  -2   1  373.15   13.17
   3  -2   1  366.58   12.22
  -4   2  -1  737.76   23.02
   4  -2   1  730.20   24.63
  -5   2  -1  953.02   30.28
   5  -2   1  982.01   32.47
  -6   2  -1 1273.21   40.04
   6  -2   1 1292.88   42.55
  -7   2  -1  740.59   24.55
   7  -2   1  738.19   27.11
   7  -2   1  731.58   25.07
   7   1  -1  289.46   14.09
  -7  -1   1  298.25   11.17
  -7  -1   1  291.80   11.32
   6   1  -1  972.91   34.47
   6   1  -1 1021.84   30.89
  -6  -1   1 1014.61   31.95
  -6  -1   1 1053.69   31.82
   5   1  -1 3698.99  112.38
   5   1  -1 3644.12  109.22
  -5  -1   1 3653.88  109.75
  -5  -1   1 3635.78  110.00
   4   1  -1 5983.93  178.73
  -4  -1   1 5866.91  176.57
  -4  -1   1 5910.31  176.83
   3   1  -1 2394.55   72.10
  -3  -1   1 2344.85   72.19
  -3  -1   1 2503.93   72.49
   2   1  -1   33.38    1.42
  -2  -1   1   35.10    1.47
   1   1  -1  201.61    7.55
  -1  -1   1  258.46    7.22
   0   1  -1 3467.05  102.27
   0  -1   1 3385.16  102.23
  -2   1  -1 4877.68  144.55
   2  -1   1 4828.25  145.33
  -3   1  -1 4523.48  141.19
  -3   1  -1 4751.04  141.68
  -3   1  -1 4905.33  141.96
   3  -1   1 4792.72  142.94
  -4   1  -1 3588.53  108.39
  -4   1  -1 3612.71  108.13
   4  -1   1 3606.55  109.87
  -5   1  -1  813.79   25.88
  -5   1  -1  804.20   26.13
   5  -1   1  836.99   28.04
  -6   1  -1   30.35    3.97
  -6   1  -1   31.75    3.87
   6  -1   1   32.99    5.03
  -7   1  -1  330.00   12.16
  -7   1  -1  287.15   12.06
   7  -1   1  310.95   14.49
   7   0  -1  165.87   10.77
  -7   0   1  174.95    7.41
  -7   0   1  163.70    7.51
   6   0  -1    2.32    3.60
  -6   0   1    4.23    1.92
  -6   0   1    4.60    1.90
   5   0  -1  189.04    9.80
  -5   0   1  217.67    7.30
  -5   0   1  203.51    7.67
   4   0  -1  765.22   27.15
  -4   0   1  800.33   25.11
  -4   0   1  891.95   25.51
   3   0  -1 2345.34   74.16
   3   0  -1 2511.83   72.38
  -3   0   1 2435.08   72.88
  -3   0   1 2422.46   72.62
   2   0  -1 6701.71  200.37
  -1   0  -1 1237.64   36.12
  -1   0  -1 1202.82   36.14
  -1   0  -1 1168.73   36.18
  -2   0  -1  842.13   26.57
  -2   0  -1  928.53   26.34
  -2   0  -1  901.70   26.62
   2   0   1  815.74   27.19
  -3   0  -1 1528.68   44.28
  -3   0  -1 1473.46   44.20
   3   0   1 1365.37   45.20
  -4   0  -1 1406.90   40.96
  -4   0  -1 1349.71   40.83
   4   0   1 1238.79   42.17
  -5   0  -1 2095.01   67.88
  -5   0  -1 2281.46   68.04
   5   0   1 2326.55   69.95
  -6   0  -1 1606.27   50.79
  -6   0  -1 1669.55   50.87
   6   0   1 1646.98   52.98
  -7   0  -1  625.31   21.86
  -7   0  -1  647.95   21.94
   7   0   1  663.61   24.33
   7  -1  -1  552.55   22.44
  -7   1   1  582.65   18.76
  -7   1   1  557.92   19.07
   6  -1  -1 1699.04   57.54
  -6   1   1 1788.35   54.61
  -6   1   1 1842.82   54.25
   5  -1  -1 3461.76  111.24
  -5   1   1 3634.85  108.38
  -5   1   1 3745.30  108.84
   4  -1  -1 2306.17   74.08
  -4   1   1 2475.71   71.85
  -4   1   1 2392.69   72.13
   3  -1  -1   92.01    5.28
  -3   1   1  105.19    3.68
  -3   1   1  106.87    3.97
   2  -1  -1  299.93   10.70
  -2   1   1  320.03    9.63
  -2   1   1  312.11    9.77
   1  -1  -1 2303.31   69.30
  -2  -1  -1 6661.43  198.75
  -3  -1  -1 5108.84  153.47
  -3  -1  -1 5148.62  153.19
  -4  -1  -1 1847.02   53.78
  -4  -1  -1 1785.11   54.00
   4   1   1 1670.43   55.16
  -5  -1  -1    6.47    2.17
  -5  -1  -1   10.48    1.92
   5   1   1    4.04    2.75
  -6  -1  -1  620.23   20.22
  -6  -1  -1  633.99   20.71
   6   1   1  591.57   19.07
   6   1   1  603.15   22.38
  -7  -1  -1  364.21   14.26
  -7  -1  -1  409.07   14.86
   7   1   1  396.76   16.67
   7  -2  -1   -2.49    4.69
  -7   2   1    4.23    2.43
  -7   2   1    5.15    2.19
   6  -2  -1   46.69    7.55
  -6   2   1   56.66    4.12
  -6   2   1   64.46    3.98
   5  -2  -1  285.99   13.79
  -5   2   1  320.36   10.95
  -5   2   1  326.87   10.64
   4  -2  -1 1531.82   51.37
  -4   2   1 1703.33   49.21
  -4   2   1 1643.45   49.49
   3  -2  -1 4263.68  133.14
  -3   2   1 4383.04  131.61
  -3   2   1 4565.29  131.42
   2  -2  -1 3874.19  128.96
  -2   2   1 4700.70  127.64
   1  -2  -1 3737.97  101.88
   1  -2  -1 3105.27  102.80
   0  -2  -1 2062.58   62.85
   0   2   1 2094.84   62.10
  -1  -2  -1  758.98   21.56
  -1  -2  -1  665.41   22.41
   1   2   1  708.71   21.52
   1   2   1  724.44   21.81
  -2  -2  -1 1874.85   62.37
  -2  -2  -1 2216.07   62.09
  -2  -2  -1 2117.02   63.17
  -3  -2  -1 1429.90   42.29
  -3  -2  -1 1355.31   42.92
  -4  -2  -1 2851.72   86.85
  -4  -2  -1 2866.65   86.12
  -5  -2  -1 2561.06   77.61
  -5  -2  -1 2496.40   76.79
   5   2   1 2586.70   76.34
   5   2   1 2496.59   78.95
  -6  -2  -1 1030.80   32.94
  -6  -2  -1 1093.80   34.02
   6   2   1 1007.68   32.17
   6   2   1 1047.93   35.39
   7  -3  -1  702.02   27.54
  -7   3   1  700.82   23.69
  -7   3   1  712.45   23.07
   6  -3  -1 1457.21   49.23
  -6   3   1 1520.45   45.47
  -6   3   1 1451.18   45.90
   5  -3  -1 1268.54   43.76
  -5   3   1 1362.24   41.21
  -5   3   1 1354.17   40.73
   4  -3  -1  163.99    8.16
  -4   3   1  148.09    5.99
  -4   3   1  152.07    5.69
   3  -3  -1  129.31    6.91
  -3   3   1  155.16    5.46
  -3   3   1  141.64    5.11
   2  -3  -1 1004.63   34.06
  -2   3   1 1112.12   32.72
  -2   3   1 1122.27   32.45
   1  -3  -1 3341.02  105.17
  -1   3   1 3628.26  104.02
   0  -3  -1 5276.64  158.34
  -1  -3  -1 5702.85  176.56
   1   3   1 6071.76  175.15
  -2  -3  -1 4839.48  141.21
  -2  -3  -1 4529.85  142.67
   2   3   1 4838.10  141.50
  -3  -3  -1 2328.48   68.10
   3   3   1 2197.62   68.50
  -4  -3  -1   23.88    2.40
  -5  -3  -1  781.07   25.34
  -5  -3  -1  760.73   24.28
   5   3   1  752.88   24.02
  -6  -3  -1  534.78   19.46
  -6  -3  -1  541.18   18.06
   6   3   1  530.78   17.60
   6   3   1  558.15   20.90
  -7   4   1   12.54    3.09
   6  -4  -1  109.58    9.44
  -6   4   1  108.48    5.51
   5  -4  -1  674.14   24.98
  -5   4   1  688.45   21.69
   4  -4  -1 1998.22   59.11
   4  -4  -1 1835.73   61.14
  -4   4   1 1979.69   58.68
   3  -4  -1 1848.84   61.47
   3  -4  -1 2044.79   59.86
  -3   4   1 1987.84   59.00
  -3   4   1 2009.65   59.53
   2  -4  -1 1768.92   57.30
   2  -4  -1 1906.21   55.75
  -2   4   1 1823.03   55.50
  -2   4   1 1874.72   55.29
   1  -4  -1 1429.68   46.51
  -1   4   1 1505.53   44.93
  -1   4   1 1533.77   44.96
   0  -4  -1   97.49    5.36
   0   4   1  107.26    3.82
  -1  -4  -1 1496.77   46.79
   1   4   1 1488.22   44.98
  -2  -4  -1 1084.52   35.97
  -2  -4  -1 1158.34   33.90
   2   4   1 1118.24   34.11
  -3  -4  -1 2325.39   68.29
  -3  -4  -1 2203.54   70.61
   3   4   1 2216.38   68.59
   3   4   1 2329.26   68.54
  -4  -4  -1 2724.88   81.64
   4   4   1 2644.67   81.83
   4   4   1 2760.04   82.07
  -5  -4  -1 1285.81   38.75
   5   4   1 1275.88   38.78
   5   4   1 1195.06   39.24
  -6  -4  -1  587.00   19.11
   6   4   1  579.58   18.88
   6   4   1  559.49   19.63
   6  -5  -1  529.88   21.44
   6  -5  -1  497.62   18.08
  -6   5   1  515.34   17.30
   5  -5  -1  117.99    8.63
   5  -5  -1  125.92    6.57
  -5   5   1  117.69    5.57
   4  -5  -1   42.88    5.94
   4  -5  -1   39.51    3.80
  -4   5   1   34.08    3.02
   3  -5  -1  352.93   14.51
   3  -5  -1  368.28   12.52
  -3   5   1  361.17   11.96
  -3   5   1  366.30   11.43
   2  -5  -1 1151.26   38.70
   2  -5  -1 1178.76   36.87
  -2   5   1 1221.19   36.28
  -2   5   1 1235.65   36.52
   1  -5  -1 2653.94   83.12
  -1   5   1 2721.15   81.02
  -1   5   1 2724.77   81.05
   0  -5  -1 3383.60  105.29
   0   5   1 3474.60  103.27
   0   5   1 3495.54  103.50
  -1  -5  -1 2496.39   80.66
   1   5   1 2569.13   78.87
   1   5   1 2783.24   78.52
  -2  -5  -1 1614.14   46.80
  -2  -5  -1 1487.37   49.43
   2   5   1 1539.41   47.05
   2   5   1 1579.49   47.57
  -3  -5  -1   71.96    3.48
  -3  -5  -1   67.21    6.45
   3   5   1   77.24    4.16
   3   5   1   72.12    3.62
  -4  -5  -1  503.38   16.66
   4   5   1  507.38   17.13
   4   5   1  548.15   16.98
  -5  -5  -1  521.88   18.15
   5   5   1  588.99   18.51
   5   5   1  560.65   18.52
   5  -6  -1  640.89   24.96
   5  -6  -1  666.72   22.45
  -5   6   1  650.58   21.27
   4  -6  -1  764.70   26.71
   4  -6  -1  745.97   24.53
  -4   6   1  713.16   23.46
  -4   6   1  738.15   22.72
   3  -6  -1  692.57   25.03
   3  -6  -1  674.92   22.87
  -3   6   1  722.03   21.62
  -3   6   1  702.03   22.08
   2  -6  -1  623.13   19.29
   2  -6  -1  562.62   21.69
  -2   6   1  612.82   18.87
  -2   6   1  606.49   19.08
   1  -6  -1    4.53    2.95
  -1   6   1    2.47    1.35
  -1   6   1    1.19    1.29
   0  -6  -1  547.80   20.47
   0   6   1  584.45   17.85
   0   6   1  565.18   18.14
  -1  -6  -1  653.03   23.40
   1   6   1  652.43   20.40
   1   6   1  660.05   20.92
  -2  -6  -1 1124.85   38.39
   2   6   1 1154.28   35.92
   2   6   1 1185.77   35.32
  -3  -6  -1 1686.43   55.39
  -3  -6  -1 1728.45   51.69
   3   6   1 1715.83   51.90
   3   6   1 1714.90   52.66
  -4  -6  -1 1049.23   34.12
   4   6   1 1158.89   34.31
   4   6   1 1119.88   35.00
   4  -7  -1  117.14    9.96
   4  -7  -1  108.20    8.61
  -4   7   1  102.23    5.50
   3  -7  -1  342.48   15.25
  -3   7   1  341.06   11.48
  -3   7   1  346.90   11.84
   2  -7  -1  859.06   30.67
  -2   7   1  864.79   27.25
  -2   7   1  905.68   27.43
   1  -7  -1 1389.91   46.72
  -1   7   1 1418.52   43.62
  -1   7   1 1473.84   43.78
   0  -7  -1 1249.19   41.77
   0   7   1 1260.58   38.91
   0   7   1 1270.52   38.58
  -1  -7  -1  686.41   25.09
   1   7   1  683.69   22.11
   1   7   1  686.41   21.51
  -2  -7  -1   74.75    8.18
   2   7   1   69.89    4.51
   2   7   1   70.07    3.81
  -3  -7  -1  177.70   11.59
   3   7   1  180.34    6.72
   3   7   1  170.69    7.61
   3  -8  -1  180.80   12.53
  -3   8   1  187.34    7.82
   2  -8  -1    9.71    4.65
  -2   8   1    5.47    1.92
  -2   8   1    6.92    1.72
   1  -8  -1  139.24   10.46
  -1   8   1  136.84    6.08
  -1   8   1  130.28    5.91
   0  -8  -1  296.67   14.85
   0   8   1  294.31   10.33
   0   8   1  295.77   10.82
  -1  -8  -1  480.57   20.37
   1   8   1  476.83   15.72
   1   8   1  485.32   16.44
   2   8  -2  423.67   15.16
  -2  -8   2  440.36   18.74
   1   8  -2  718.74   23.86
   1   8  -2  737.62   22.92
  -1  -8   2  749.78   26.92
   0   8  -2  855.38   26.62
   0   8  -2  857.27   27.19
   0  -8   2  861.51   29.95
   0  -8   2  838.07   26.96
  -1   8  -2  523.86   17.44
  -1   8  -2  526.23   17.25
   1  -8   2  540.07   20.26
   1  -8   2  523.29   18.01
  -2   8  -2  233.77    8.99
  -2   8  -2  247.19    9.21
   2  -8   2  221.69   10.84
   2  -8   2  251.77   12.12
   4   7  -2  844.47   26.46
  -4  -7   2  779.14   25.72
   3   7  -2  906.73   28.51
  -3  -7   2  884.16   31.45
  -3  -7   2  879.11   27.91
   2   7  -2  894.02   28.67
   2   7  -2  937.18   27.57
  -2  -7   2  880.77   28.10
  -2  -7   2  900.68   31.30
   1   7  -2  133.46    5.96
   1   7  -2  146.13    5.21
  -1  -7   2  136.31    5.77
  -1  -7   2  131.67    8.16
   0   7  -2  177.20    7.00
   0   7  -2  173.83    6.43
   0  -7   2  186.16    9.46
   0  -7   2  170.61    7.06
  -1   7  -2  559.90   17.95
  -1   7  -2  543.45   17.67
   1  -7   2  556.38   20.18
   1  -7   2  553.70   18.69
  -2   7  -2  595.66   19.04
  -2   7  -2  597.55   19.03
   2  -7   2  562.34   20.65
   2  -7   2  611.20   21.33
  -3   7  -2  587.56   19.14
  -3   7  -2  556.91   18.80
   3  -7   2  590.56   21.48
   3  -7   2  605.83   21.34
  -4   7  -2  428.52   15.33
   4  -7   2  432.41   17.38
   4  -7   2  459.76   17.74
   5   6  -2    8.27    2.17
  -5  -6   2    6.53    2.10
   4   6  -2  319.48   11.35
  -4  -6   2  309.58   10.99
   3   6  -2  766.07   24.42
  -3  -6   2  765.57   24.02
  -3  -6   2  765.70   27.00
   2   6  -2 1434.46   44.64
  -2  -6   2 1481.19   44.36
  -2  -6   2 1444.98   46.79
   1   6  -2 2516.42   74.67
   1   6  -2 2428.83   75.31
  -1  -6   2 2475.83   77.13
  -1  -6   2 2550.00   75.24
   0   6  -2 1668.27   50.59
   0   6  -2 1646.55   50.99
   0  -6   2 1711.37   51.29
   0  -6   2 1681.59   52.77
  -1   6  -2  653.90   21.65
  -1   6  -2  702.57   21.52
   1  -6   2  700.49   22.61
   1  -6   2  703.10   23.49
  -2   6  -2  301.75   10.56
  -2   6  -2  314.47   10.51
   2  -6   2  320.63   12.55
   2  -6   2  306.16   12.27
  -3   6  -2    4.91    1.48
  -3   6  -2    6.87    1.76
   3  -6   2    6.37    3.43
  -4   6  -2  327.87   11.79
   4  -6   2  327.39   13.47
   4  -6   2  333.32   13.80
  -5   6  -2  403.41   14.30
   5  -6   2  392.17   16.05
   5  -6   2  394.85   15.90
   6   5  -2 1012.93   31.32
  -6  -5   2  967.47   31.32
   5   5  -2 1399.22   42.68
  -5  -5   2 1361.71   42.62
   4   5  -2 1395.23   43.26
  -4  -5   2 1416.40   43.16
   3   5  -2 1779.98   54.78
  -3  -5   2 1818.10   54.57
   2   5  -2  644.48   20.23
  -2  -5   2  633.54   22.03
  -2  -5   2  640.27   20.04
   1   5  -2  347.41   11.56
   1   5  -2  356.02   10.97
  -1  -5   2  342.30   12.91
  -1  -5   2  360.11   11.60
   0   5  -2 1678.01   51.34
   0   5  -2 1668.88   51.00
   0  -5   2 1723.57   51.77
   0  -5   2 1716.08   52.68
  -1   5  -2 1517.32   45.58
  -1   5  -2 1541.33   45.68
   1  -5   2 1428.84   46.64
   1  -5   2 1539.64   47.07
  -2   5  -2 1582.06   47.30
  -2   5  -2 1559.29   47.43
   2  -5   2 1544.15   48.78
   2  -5   2 1562.12   48.70
  -3   5  -2 1581.30   46.67
  -3   5  -2 1500.06   46.97
   3  -5   2 1563.16   48.27
   3  -5   2 1507.90   48.20
  -4   5  -2  690.47   22.37
  -4   5  -2  697.09   21.98
   4  -5   2  699.27   23.67
   4  -5   2  710.59   24.09
  -5   5  -2  158.57    7.34
   5  -5   2  165.30    9.49
   5  -5   2  164.40    8.61
   6   4  -2   40.72    3.43
  -6  -4   2   35.85    3.71
   5   4  -2  455.27   15.04
  -5  -4   2  460.64   15.28
   4   4  -2 1126.46   34.88
  -4  -4   2 1139.48   34.95
   3   4  -2 1905.64   58.15
  -3  -4   2 1938.74   58.11
   2   4  -2 4892.68  146.43
  -2  -4   2 4848.34  147.79
  -2  -4   2 4958.84  146.39
   1   4  -2 3985.09  120.32
   1   4  -2 3973.16  120.80
  -1  -4   2 4060.59  121.92
  -1  -4   2 4145.99  120.96
   0   4  -2 1539.83   45.97
   0   4  -2 1529.38   46.22
   0  -4   2 1543.31   46.75
   0  -4   2 1509.00   47.15
  -1   4  -2 1131.49   34.92
  -1   4  -2 1183.05   35.01
   1  -4   2 1154.32   36.11
   1  -4   2 1142.26   35.93
  -2   4  -2   26.21    2.04
  -2   4  -2   22.33    1.85
   2  -4   2   21.03    3.01
   2  -4   2   24.31    3.09
  -3   4  -2  945.90   29.46
  -3   4  -2  974.58   29.16
   3  -4   2  944.73   30.42
   3  -4   2  936.73   30.29
  -4   4  -2 1307.33   40.24
   4  -4   2 1323.40   41.42
   4  -4   2 1279.42   41.03
  -5   4  -2  868.41   27.48
   5  -4   2  858.37   28.32
   5  -4   2  854.19   28.91
  -6   4  -2  450.25   15.98
   6  -4   2  442.69   16.88
   6  -4   2  455.41   17.71
   7   3  -2  899.38   28.21
   7   3  -2  918.65   32.64
  -7  -3   2  888.91   29.02
   6   3  -2 1610.13   48.66
   6   3  -2 1565.40   52.10
  -6  -3   2 1614.33   49.24
   5   3  -2 1571.65   47.55
  -5  -3   2 1556.28   47.92
   4   3  -2 2195.76   66.83
  -4  -3   2 2241.78   67.06
   3   3  -2 1597.91   48.60
  -3  -3   2 1619.12   48.71
   2   3  -2  349.30   11.14
  -2  -3   2  348.85   11.19
   1   3  -2 3819.19  114.43
  -1  -3   2 3842.65  114.56
  -1  -3   2 3832.72  115.22
   0   3  -2 3078.94   91.91
   0   3  -2 3137.63   92.13
   0  -3   2 3131.69   92.72
   0  -3   2 2977.86   92.62
  -1   3  -2 2806.87   83.64
  -1   3  -2 2737.60   83.63
   1  -3   2 2835.59   84.59
   1  -3   2 2803.85   84.23
  -2   3  -2 4011.41  119.22
  -2   3  -2 3919.06  119.34
   2  -3   2 4015.80  119.96
   2  -3   2 4019.57  120.05
  -3   3  -2 2232.43   66.89
  -3   3  -2 2305.45   66.80
   3  -3   2 2165.92   67.44
   3  -3   2 2154.71   67.59
  -4   3  -2  494.51   16.31
   4  -3   2  505.51   17.41
   4  -3   2  496.40   16.95
  -5   3  -2   44.29    3.95
   5  -3   2   48.73    4.46
   5  -3   2   45.73    5.84
  -6   3  -2  155.33    7.56
   6  -3   2  157.70    9.70
   6  -3   2  154.16    8.24
   7   2  -2   88.42    8.67
   7   2  -2   87.72    4.36
  -7  -2   2   92.28    5.61
  -7  -2   2  109.19    6.22
   6   2  -2  364.44   15.44
   6   2  -2  372.46   12.08
  -6  -2   2  374.46   12.90
  -6  -2   2  371.18   12.92
   5   2  -2 1185.39   35.84
   5   2  -2 1186.48   38.79
  -5  -2   2 1171.87   36.11
  -5  -2   2 1165.64   36.38
   4   2  -2 1759.14   53.18
  -4  -2   2 1758.27   53.22
  -4  -2   2 1780.81   53.55
   1   2  -2 2293.85   69.22
  -1  -2   2 2332.12   69.76
  -1  -2   2 2315.22   69.37
   0   2  -2 2755.32   80.47
   0   2  -2 2675.86   80.30
   0  -2   2 2789.34   80.70
   0  -2   2 2547.78   80.91
  -1   2  -2  407.38   12.88
  -1   2  -2  412.23   12.88
   1  -2   2  421.18   13.53
   1  -2   2  414.14   13.08
  -2   2  -2 1943.33   56.82
  -2   2  -2 1814.65   56.74
   2  -2   2 1925.49   57.24
   2  -2   2 1854.73   57.10
  -3   2  -2 3269.84  100.52
  -3   2  -2 3347.41  100.71
   3  -2   2 3323.07  101.10
   3  -2   2 3481.27  101.46
  -4   2  -2 2187.23   67.05
   4  -2   2 2298.66   68.19
   4  -2   2 2145.62   67.42
  -5   2  -2 1078.59   34.04
   5  -2   2 1108.02   35.42
   5  -2   2 1065.15   34.48
  -6   2  -2  519.10   17.77
   6  -2   2  517.31   19.55
   6  -2   2  505.21   18.15
   7   1  -2 1255.53   42.24
  -7  -1   2 1258.43   38.66
  -7  -1   2 1202.39   38.86
   6   1  -2 1271.13   42.67
   6   1  -2 1318.17   38.96
  -6  -1   2 1294.68   39.44
  -6  -1   2 1254.37   39.86
   5   1  -2 1751.89   55.49
   5   1  -2 1768.01   52.39
  -5  -1   2 1720.95   52.59
  -5  -1   2 1725.40   53.07
   4   1  -2 1911.40   55.72
   4   1  -2 1882.83   58.11
  -4  -1   2 1779.88   55.66
  -4  -1   2 1850.13   56.16
   3   1  -2   63.95    4.43
   3   1  -2   77.33    2.76
  -3  -1   2   67.48    2.54
  -3  -1   2   71.70    3.06
   0   1  -2 2870.55   85.52
   0   1  -2 2999.76   85.62
   0   1  -2 2917.47   85.69
   0  -1   2 3025.16   85.51
   0  -1   2 2774.11   86.01
   0  -1   2 2624.82   85.54
  -2   1  -2 4637.44  142.15
  -2   1  -2 4507.80  142.16
   2  -1   2 4854.29  142.39
   2  -1   2 5040.06  142.44
  -3   1  -2 1318.67   41.77
  -3   1  -2 1385.40   41.43
   3  -1   2 1357.00   41.98
   3  -1   2 1415.47   42.55
  -4   1  -2  191.81    6.21
  -4   1  -2  177.16    7.01
   4  -1   2  164.60    7.08
   4  -1   2  184.48    8.16
  -5   1  -2  223.40    9.12
   5  -1   2  251.42   10.46
   5  -1   2  237.73    9.42
  -6   1  -2 1034.71   33.69
   6  -1   2 1069.87   35.31
   6  -1   2 1060.94   34.01
   7   0  -2  129.78    9.95
  -7   0   2  131.45    6.22
  -7   0   2  135.98    6.41
   6   0  -2  784.13   28.66
  -6   0   2  811.62   25.71
  -6   0   2  818.00   25.16
   5   0  -2 1206.38   40.61
  -5   0   2 1239.78   37.74
  -5   0   2 1278.05   38.31
   4   0  -2 4568.04  136.35
   4   0  -2 4559.77  138.82
  -4   0   2 4568.31  136.97
  -4   0   2 4614.20  136.54
   3   0  -2 6564.82  197.04
   2   0  -2 2832.15   85.31
   2   0  -2 2810.37   84.34
  -2   0   2 2835.40   84.43
   1   0  -2 3068.34   96.16
   1   0  -2 3376.64   95.70
   1   0  -2 3197.03   96.02
  -1   0   2 3215.47   96.35
   0   0  -2 1188.88   36.80
   0   0  -2 1233.69   37.02
   0   0   2 1235.53   36.88
  -1   0  -2 1906.85   57.82
  -1   0  -2 1866.96   57.75
   1   0   2 1986.25   57.73
  -2   0  -2 5560.91  166.61
  -2   0  -2 5736.17  166.36
   2   0   2 5309.00  166.81
   2   0   2 5704.64  166.51
  -3   0  -2 3941.48  123.34
  -3   0  -2 4220.99  122.89
   3   0   2 4175.38  124.10
  -4   0  -2 1828.21   57.40
  -4   0  -2 1908.88   57.44
   4   0   2 1903.60   58.49
  -5   0  -2  947.56   31.07
  -5   0  -2  969.89   31.06
   5   0   2 1018.60   32.40
  -6   0  -2  676.64   22.79
   6   0   2  685.28   24.38
   7  -1  -2  750.37   28.99
  -7   1   2  807.85   25.02
  -7   1   2  790.76   25.50
   6  -1  -2  943.69   33.44
  -6   1   2  972.35   29.72
  -6   1   2  952.33   30.17
   5  -1  -2 1064.39   36.15
  -5   1   2 1072.52   33.45
  -5   1   2 1098.14   33.02
   4  -1  -2   10.16    2.73
  -4   1   2    7.21    1.04
   3  -1  -2 2969.71   90.69
  -3   1   2 2961.69   89.22
  -3   1   2 3006.32   88.97
   2  -1  -2 4372.71  134.46
   2  -1  -2 4649.06  135.49
   1  -1  -2 2677.17   79.59
   1  -1  -2 2744.61   79.94
   1  -1  -2 2576.57   80.32
  -1   1   2 2687.66   79.69
  -1  -1  -2 6650.80  198.44
  -2  -1  -2 2451.14   74.47
  -2  -1  -2 2444.69   73.90
  -2  -1  -2 2492.76   73.95
  -3  -1  -2  344.90   11.29
  -3  -1  -2  334.45   11.80
  -4  -1  -2  266.28    9.42
  -4  -1  -2  267.03    9.88
   4   1   2  258.52   10.54
  -5  -1  -2 1487.90   47.32
  -5  -1  -2 1504.09   46.89
   5   1   2 1557.57   48.41
  -6  -1  -2 1341.13   43.00
  -6  -1  -2 1391.40   43.57
   6   1   2 1381.36   44.76
   7  -2  -2  360.15   17.47
  -7   2   2  364.21   13.27
  -7   2   2  375.43   12.83
   6  -2  -2  642.27   25.36
  -6   2   2  694.05   21.45
  -6   2   2  681.44   21.87
   5  -2  -2 2134.32   69.56
  -5   2   2 2254.84   66.42
  -5   2   2 2212.86   66.81
   4  -2  -2 3819.64  117.47
  -4   2   2 3866.36  115.33
  -4   2   2 3856.65  115.03
   3  -2  -2 2521.10   79.85
  -3   2   2 2687.16   78.06
  -3   2   2 2610.50   78.19
   2  -2  -2 2219.53   64.37
   2  -2  -2 2098.12   65.82
  -2   2   2 2141.41   64.48
  -2   2   2 2154.95   64.45
   1  -2  -2  910.23   27.28
   1  -2  -2  869.70   28.12
  -1   2   2  918.37   27.23
   0  -2  -2  917.38   27.08
   0  -2  -2  820.67   27.54
   0   2   2  924.21   26.98
  -1  -2  -2 4960.01  152.10
   1   2   2 4889.32  151.20
   1   2   2 5392.56  151.79
  -2  -2  -2 5159.33  156.38
  -2  -2  -2 5291.73  155.45
  -2  -2  -2 5181.02  156.06
  -3  -2  -2 2304.03   70.25
  -3  -2  -2 2300.23   69.40
  -4  -2  -2 1177.17   37.71
  -4  -2  -2 1205.38   36.79
  -5  -2  -2 1150.06   36.05
  -5  -2  -2 1142.43   37.10
   5   2   2 1166.66   37.89
  -6  -2  -2  270.61   11.70
  -6  -2  -2  260.29   10.32
   6   2   2  274.31   12.39
   6   2   2  253.27    9.36
   7  -3  -2  391.84   19.17
  -7   3   2  428.99   14.41
  -7   3   2  418.88   14.99
   6  -3  -2  370.70   16.91
  -6   3   2  382.37   13.53
  -6   3   2  404.81   13.10
   5  -3  -2   35.96    5.14
  -5   3   2   26.57    3.12
  -5   3   2   28.66    2.71
   4  -3  -2  868.31   30.08
  -4   3   2  919.35   27.54
  -4   3   2  894.98   27.74
   3  -3  -2 2689.13   82.17
  -3   3   2 2603.68   80.09
  -3   3   2 2718.47   80.08
   2  -3  -2 1986.18   62.71
  -2   3   2 2095.35   61.21
  -2   3   2 2030.79   61.02
   1  -3  -2 3179.62   99.95
  -1   3   2 3427.77   98.75
   0  -3  -2 4859.71  146.04
  -1  -3  -2 2608.22   81.72
   1   3   2 2768.36   80.72
  -2  -3  -2  303.85   11.70
  -2  -3  -2  341.93   10.30
   2   3   2  316.90   10.86
  -3  -3  -2  224.19    7.53
   3   3   2  206.24    8.20
  -4  -3  -2 1292.83   39.68
  -5  -3  -2 1697.69   51.98
  -5  -3  -2 1610.51   50.77
  -6  -3  -2 1220.49   39.05
  -6  -3  -2 1280.38   40.20
   6   3   2 1323.59   41.76
   6   3   2 1156.82   38.43
   7  -4  -2  272.95   16.57
  -7   4   2  296.64   11.84
  -7   4   2  297.67   11.08
   6  -4  -2  706.77   28.01
  -6   4   2  756.18   23.82
  -6   4   2  768.56   24.44
   5  -4  -2 1423.42   48.48
  -5   4   2 1475.37   45.45
  -5   4   2 1512.35   45.03
   4  -4  -2 1322.21   45.43
  -4   4   2 1435.41   43.11
  -4   4   2 1454.31   42.86
   3  -4  -2  896.47   32.12
  -3   4   2 1000.81   30.08
  -3   4   2 1040.47   29.65
   2  -4  -2  304.97    9.50
   2  -4  -2  266.35   11.34
  -2   4   2  302.34    9.58
   1  -4  -2  189.59    8.35
  -1   4   2  205.29    6.76
   0  -4  -2 2588.36   82.40
   0   4   2 2806.37   80.94
  -1  -4  -2 4178.70  130.27
   1   4   2 4427.93  128.72
  -2  -4  -2 1944.46   63.37
  -2  -4  -2 2062.61   61.29
   2   4   2 2123.57   61.94
  -3  -4  -2  954.40   32.16
  -3  -4  -2  972.63   29.72
   3   4   2  978.88   30.40
  -4  -4  -2 1249.91   37.66
   4   4   2 1200.03   38.53
  -5  -4  -2  423.01   14.03
   5   4   2  403.56   15.04
   5   4   2  398.54   13.92
   6  -5  -2   16.48    2.85
   6  -5  -2   18.00    5.47
  -6   5   2   19.53    2.61
   5  -5  -2  167.00   10.85
   5  -5  -2  187.95    8.21
  -5   5   2  212.69    7.60
   4  -5  -2 1015.66   30.43
   4  -5  -2  886.74   32.85
  -4   5   2  986.14   29.98
   3  -5  -2 1128.90   33.65
   3  -5  -2 1001.15   35.93
  -3   5   2 1115.61   32.95
  -3   5   2 1095.39   33.42
   2  -5  -2 1354.04   45.94
  -2   5   2 1456.03   43.77
  -2   5   2 1506.70   43.62
   1  -5  -2 2389.59   77.86
  -1   5   2 2647.86   75.80
   0  -5  -2 1516.07   51.77
   0   5   2 1776.94   49.92
  -1  -5  -2  195.51    9.57
   1   5   2  217.11    7.28
  -2  -5  -2  110.65    7.38
   2   5   2  123.61    4.97
  -3  -5  -2  694.59   21.71
  -3  -5  -2  736.60   24.97
   3   5   2  672.90   22.38
  -4  -5  -2 1232.78   39.07
   4   5   2 1272.15   39.71
   4   5   2 1319.55   39.86
  -5  -5  -2 1218.28   39.27
   5   5   2 1307.76   40.14
   5   5   2 1276.26   39.68
   5  -6  -2  563.54   19.58
   5  -6  -2  546.33   22.39
  -5   6   2  554.97   18.30
   4  -6  -2  398.01   13.91
   4  -6  -2  362.58   16.54
  -4   6   2  368.49   12.19
  -4   6   2  407.90   13.12
   3  -6  -2   87.65    7.26
   3  -6  -2   88.28    5.19
  -3   6   2   91.75    4.40
  -3   6   2   91.81    3.85
   2  -6  -2   34.45    5.60
  -2   6   2   33.63    2.95
  -2   6   2   38.50    2.62
   1  -6  -2  807.25   29.45
  -1   6   2  893.11   27.03
  -1   6   2  900.85   27.00
   0  -6  -2 2077.50   67.30
   0   6   2 2175.89   64.69
   0   6   2 2167.20   64.97
  -1  -6  -2 1227.33   41.59
   1   6   2 1298.26   38.89
   1   6   2 1282.04   39.27
  -2  -6  -2  566.22   21.34
   2   6   2  575.28   18.93
   2   6   2  587.87   18.50
  -3  -6  -2  872.26   30.48
   3   6   2  882.97   27.34
   3   6   2  843.68   27.62
   4   6   2  427.56   14.55
   4   6   2  404.02   14.64
   4  -7  -2  393.60   17.89
  -4   7   2  392.32   13.57
   3  -7  -2  486.24   20.03
  -3   7   2  519.00   16.57
  -3   7   2  497.33   16.12
   2  -7  -2  872.86   31.70
  -2   7   2  929.68   28.34
  -2   7   2  909.09   28.14
   1  -7  -2  756.21   27.81
  -1   7   2  799.69   24.65
  -1   7   2  792.11   24.77
   0  -7  -2  123.72    8.80
   0   7   2  115.28    5.44
   0   7   2  121.71    5.26
  -1  -7  -2   43.55    7.01
   1   7   2   42.82    3.31
   1   7   2   40.41    3.69
  -2  -7  -2  295.28   14.30
   2   7   2  286.39   10.33
   2   7   2  294.99   10.92
  -3  -7  -2  677.20   26.19
   3   7   2  688.47   21.87
   3   7   2  671.18   22.51
   2  -8  -2  209.21   13.21
  -2   8   2  218.08    8.26
  -2   8   2  218.05    8.57
   1  -8  -2  707.11   27.15
  -1   8   2  723.46   22.93
  -1   8   2  717.82   23.05
   0  -8  -2  573.51   23.35
   0   8   2  574.97   19.34
   0   8   2  601.38   18.99
  -1  -8  -2  298.71   15.83
   2   8  -3  738.11   24.47
  -2  -8   3  707.72   23.97
  -2  -8   3  794.55   27.65
   1   8  -3  814.57   26.06
  -1  -8   3  832.48   28.74
  -1  -8   3  766.93   25.80
   0   8  -3  377.00   12.91
   0   8  -3  394.14   13.65
   0  -8   3  383.21   14.22
   0  -8   3  393.74   16.12
  -1   8  -3   78.07    4.97
  -1   8  -3   84.57    5.03
   1  -8   3   81.22    7.15
   1  -8   3   79.33    7.92
   4   7  -3  315.92   11.88
  -4  -7   3  310.40   11.39
   3   7  -3   18.65    2.59
  -3  -7   3   23.24    3.57
   2   7  -3   10.58    2.13
  -2  -7   3   10.76    2.26
  -2  -7   3   12.53    3.76
   1   7  -3  413.60   14.20
   1   7  -3  422.45   13.32
  -1  -7   3  422.34   16.21
  -1  -7   3  407.93   14.36
   0   7  -3 1474.59   44.98
   0   7  -3 1470.68   45.51
   0  -7   3 1479.60   47.30
   0  -7   3 1491.81   46.03
  -1   7  -3 1272.89   39.38
  -1   7  -3 1285.56   39.63
   1  -7   3 1298.66   40.77
   1  -7   3 1271.24   41.33
  -2   7  -3  582.53   18.41
  -2   7  -3  559.22   18.30
   2  -7   3  541.96   20.19
   2  -7   3  565.05   20.19
  -3   7  -3  276.51   10.79
  -3   7  -3  322.45   11.14
   3  -7   3  309.74   13.44
   3  -7   3  295.61   12.77
   5   6  -3  769.50   24.86
  -5  -6   3  759.02   24.59
   4   6  -3 1385.58   43.10
  -4  -6   3 1390.26   42.88
   3   6  -3 1569.10   48.13
  -3  -6   3 1557.69   47.90
   2   6  -3 1818.12   56.09
  -2  -6   3 1831.75   57.90
  -2  -6   3 1864.53   56.06
   1   6  -3 1157.16   34.85
   1   6  -3 1124.54   35.57
  -1  -6   3 1145.20   37.18
  -1  -6   3 1172.70   35.76
   0   6  -3  335.10   11.73
   0   6  -3  330.50   11.24
   0  -6   3  359.86   13.43
   0  -6   3  367.12   12.60
  -1   6  -3   26.54    2.52
  -1   6  -3   26.14    2.79
   1  -6   3   21.39    3.46
   1  -6   3   22.53    3.38
  -2   6  -3  111.37    5.28
  -2   6  -3  117.10    5.30
   2  -6   3  120.80    6.94
   2  -6   3  122.21    7.58
  -3   6  -3  708.92   22.61
  -3   6  -3  702.70   22.80
   3  -6   3  732.19   24.93
   3  -6   3  704.38   24.20
  -4   6  -3 1106.40   34.79
   4  -6   3 1076.00   36.06
   4  -6   3 1127.24   36.67
   6   5  -3  970.78   30.63
  -6  -5   3  963.00   30.82
   5   5  -3  651.18   20.81
  -5  -5   3  630.40   20.82
   4   5  -3   40.04    3.41
  -4  -5   3   48.07    3.61
   3   5  -3   11.23    1.71
   2   5  -3  561.56   17.67
  -2  -5   3  521.19   19.24
  -2  -5   3  569.95   17.75
   1   5  -3 3028.07   98.98
   1   5  -3 3346.45   98.42
  -1  -5   3 3356.45   99.33
  -1  -5   3 3457.34  100.34
   0   5  -3 3869.25  116.89
   0   5  -3 3832.85  116.52
   0  -5   3 3891.63  117.61
   0  -5   3 4008.07  117.99
  -1   5  -3 1598.98   48.44
  -1   5  -3 1582.16   48.32
   1  -5   3 1596.84   49.73
   1  -5   3 1602.25   49.40
  -2   5  -3  755.85   23.31
  -2   5  -3  722.58   23.34
   2  -5   3  735.68   25.14
   2  -5   3  766.87   24.36
  -3   5  -3  437.54   14.70
  -3   5  -3  436.19   14.47
   3  -5   3  451.05   15.58
   3  -5   3  434.26   16.20
  -4   5  -3   42.66    4.18
  -4   5  -3   53.20    4.10
   4  -5   3   40.06    5.43
   4  -5   3   52.45    5.60
  -5   5  -3   64.01    5.35
   5  -5   3   63.54    6.80
   5  -5   3   70.35    6.93
   6   4  -3  754.43   23.85
  -6  -4   3  738.84   24.20
   5   4  -3 1947.00   59.10
  -5  -4   3 1939.00   59.31
   4   4  -3 2481.46   75.64
  -4  -4   3 2529.18   75.80
   3   4  -3 2804.12   84.79
  -3  -4   3 2831.42   84.88
   2   4  -3 2323.29   69.76
  -2  -4   3 2280.99   70.95
  -2  -4   3 2337.60   69.91
   1   4  -3 1233.26   37.60
   1   4  -3 1233.84   38.15
  -1  -4   3 1277.38   39.08
  -1  -4   3 1263.07   38.51
   0   4  -3  166.86    5.28
   0   4  -3  146.12    5.52
   0  -4   3  152.44    6.28
   0  -4   3  138.40    6.30
  -1   4  -3  249.24    8.52
  -1   4  -3  259.91    8.65
   1  -4   3  259.85    9.89
   1  -4   3  255.58    9.28
  -2   4  -3 1650.88   49.78
  -2   4  -3 1649.46   49.72
   2  -4   3 1626.77   50.98
   2  -4   3 1626.75   50.26
  -3   4  -3 3249.31   99.73
  -3   4  -3 3384.70   99.69
   3  -4   3 3274.26  100.21
   3  -4   3 3344.16  100.80
  -4   4  -3 1927.35   58.35
  -4   4  -3 1936.72   58.63
   4  -4   3 1900.25   59.53
   4  -4   3 1895.84   59.09
  -5   4  -3  473.07   16.18
   5  -4   3  461.80   17.12
   5  -4   3  458.94   16.95
   7   3  -3  896.05   31.91
   7   3  -3  861.96   27.48
  -7  -3   3  868.78   28.30
   6   3  -3  909.17   28.03
   6   3  -3  889.62   31.49
  -6  -3   3  895.25   28.53
   5   3  -3   82.49    3.97
  -5  -3   3   86.49    4.40
   4   3  -3   27.83    2.24
  -4  -3   3   34.41    2.71
   3   3  -3  517.19   16.05
  -3  -3   3  496.41   16.16
   2   3  -3 4966.30  151.80
  -2  -3   3 5201.34  152.01
   0   3  -3 3519.15  103.56
   0   3  -3 3461.45  103.31
   0  -3   3 3517.40  103.82
   0  -3   3 3341.68  104.23
  -1   3  -3 1236.36   37.45
  -1   3  -3 1220.86   37.37
   1  -3   3 1209.62   38.47
   1  -3   3 1256.66   37.64
  -2   3  -3 1252.03   38.56
  -2   3  -3 1279.66   38.58
   2  -3   3 1255.34   39.40
   2  -3   3 1263.25   38.71
  -3   3  -3  339.58   11.52
  -3   3  -3  344.99   11.59
   3  -3   3  324.73   12.13
   3  -3   3  327.93   11.60
  -4   3  -3  153.95    6.63
  -4   3  -3  145.03    6.08
   4  -3   3  146.18    7.16
   4  -3   3  155.76    6.91
  -5   3  -3  498.40   16.97
   5  -3   3  488.65   17.53
   5  -3   3  493.77   17.64
  -6   3  -3  380.32   14.32
   6  -3   3  372.31   15.02
   6  -3   3  377.32   15.08
   7   2  -3  421.56   13.96
   7   2  -3  436.83   18.23
  -7  -2   3  419.47   14.98
   6   2  -3 1859.01   55.86
   6   2  -3 1870.49   59.39
  -6  -2   3 1819.04   55.96
  -6  -2   3 1827.78   56.56
   5   2  -3 2851.11   85.56
   5   2  -3 2831.30   88.33
  -5  -2   3 2864.30   86.07
   4   2  -3 2929.94   86.95
  -4  -2   3 2867.08   87.24
   3   2  -3 2754.44   81.99
  -3  -2   3 2713.74   82.16
   2   2  -3 2845.47   85.37
  -2  -2   3 2854.46   85.52
   1   2  -3  590.76   17.52
   1   2  -3  605.29   17.82
  -1  -2   3  495.36   17.31
  -1  -2   3  604.89   18.11
   0   2  -3  516.37   15.83
   0   2  -3  504.54   15.67
   0  -2   3  515.56   15.72
   0  -2   3  488.30   16.40
  -1   2  -3 2464.46   74.37
  -1   2  -3 2447.19   74.17
  -1   2  -3 2446.05   74.27
   1  -2   3 2536.73   75.07
  -2   2  -3 6931.01  201.63
  -2   2  -3 6497.15  201.32
   2  -2   3 6716.29  201.86
   2  -2   3 6838.58  201.18
  -3   2  -3 5298.03  159.05
  -3   2  -3 5322.55  158.95
   3  -2   3 5263.59  159.44
   3  -2   3 5356.66  159.10
  -4   2  -3 1189.75   37.85
  -4   2  -3 1255.24   37.31
   4  -2   3 1232.49   38.22
   4  -2   3 1185.17   38.27
  -5   2  -3  434.12   15.26
  -5   2  -3  428.95   14.01
   5  -2   3  445.11   15.69
   5  -2   3  438.25   15.89
  -6   2  -3  184.29    8.98
   6  -2   3  188.99    9.82
   6  -2   3  188.81    9.29
   7   1  -3  814.84   29.01
  -7  -1   3  779.09   24.99
  -7  -1   3  778.55   25.63
   6   1  -3  126.79    8.62
   6   1  -3  130.33    4.93
  -6  -1   3  121.77    5.12
  -6  -1   3  123.53    5.73
   5   1  -3   41.18    2.46
   5   1  -3   43.34    5.18
  -5  -1   3   41.27    2.31
  -5  -1   3   39.44    2.98
   4   1  -3  324.76   12.67
   4   1  -3  341.10   10.60
  -4  -1   3  326.22   10.95
  -4  -1   3  326.80   10.29
   3   1  -3 4258.88  124.77
   3   1  -3 4251.82  126.31
   3   1  -3 4046.90  124.33
  -3  -1   3 4157.83  124.95
   0   1  -3 1130.70   34.77
   0   1  -3 1147.37   34.66
   0  -1   3 1143.49   35.06
  -1   1  -3 2192.59   66.46
  -1   1  -3 2160.43   66.13
   1  -1   3 2234.45   66.49
  -2   1  -3 1413.91   43.70
  -2   1  -3 1413.63   43.64
   2  -1   3 1460.75   43.85
  -3   1  -3  262.61    9.49
  -3   1  -3  259.74    9.21
   3  -1   3  282.09    9.65
   3  -1   3  263.21    9.60
  -4   1  -3 1230.09   36.35
  -4   1  -3 1149.35   36.98
   4  -1   3 1198.58   37.32
   4  -1   3 1153.88   37.11
  -5   1  -3  727.80   24.30
   5  -1   3  732.04   24.41
   5  -1   3  759.12   24.79
  -6   1  -3 1031.99   32.36
   6  -1   3  972.59   32.37
   6  -1   3  963.99   32.67
   7   0  -3 1040.99   36.27
  -7   0   3 1030.66   32.09
  -7   0   3 1019.99   32.75
   6   0  -3 2162.62   67.88
  -6   0   3 2119.37   64.87
  -6   0   3 2097.97   64.16
   5   0  -3 2121.54   63.45
   5   0  -3 2125.88   66.50
  -5   0   3 2088.05   64.07
  -5   0   3 2109.81   63.47
   4   0  -3 2032.84   60.79
   4   0  -3 2014.12   62.91
  -4   0   3 2000.32   61.12
  -4   0   3 2044.83   60.63
   3   0  -3 3214.38   98.82
   3   0  -3 3230.96   97.48
  -3   0   3 3294.40   97.60
  -3   0   3 3295.87   97.17
   2   0  -3 1040.99   32.42
   2   0  -3 1052.36   33.01
  -2   0   3 1083.69   31.97
  -2   0   3 1079.52   32.27
   1   0  -3  769.67   24.45
   1   0  -3  771.36   24.22
  -1   0   3  813.89   23.95
  -1   0   3  798.24   24.08
   0   0  -3 2515.33   74.54
   0   0  -3 2448.14   74.20
   0   0   3 2446.70   74.30
  -1   0  -3 8200.55  255.62
  -1   0  -3 8943.32  255.72
  -2   0  -3 9260.84  287.25
   2   0   3 9999.00  287.06
  -3   0  -3 2634.00   77.33
  -3   0  -3 2460.45   77.72
   3   0   3 2514.81   77.54
   3   0   3 2642.93   77.87
  -4   0  -3  769.65   23.90
  -4   0  -3  726.14   24.69
   4   0   3  779.50   25.10
   4   0   3  776.85   24.64
  -5   0  -3  450.64   16.67
   5   0   3  490.46   17.19
   5   0   3  479.62   16.62
  -6   0  -3    3.16    3.01
   6   0   3    0.08    2.77
   6   0   3    0.97    3.69
   7  -1  -3  130.36   10.30
  -7   1   3  128.44    6.26
  -7   1   3  121.11    5.66
   6  -1  -3   20.09    4.61
  -6   1   3   20.41    2.83
  -6   1   3   22.56    3.16
   5  -1  -3  180.45    9.61
  -5   1   3  215.98    6.71
  -5   1   3  172.03    7.14
   4  -1  -3 1866.65   63.85
   4  -1  -3 2198.55   66.14
  -4   1   3 2259.82   63.79
  -4   1   3 2172.00   64.12
   3  -1  -3 7558.51  240.81
   3  -1  -3 8602.98  242.18
   2  -1  -3 6400.41  182.58
   2  -1  -3 5786.97  181.90
   1  -1  -3 1173.43   35.45
   1  -1  -3 1085.63   35.29
  -1   1   3 1164.64   34.77
  -1   1   3 1195.45   34.90
   0  -1  -3 2118.64   61.11
   0  -1  -3 1940.63   60.70
   0   1   3 2041.53   60.70
   0   1   3 1974.27   60.81
  -1  -1  -3 2578.37   78.19
  -1  -1  -3 2668.20   78.07
  -1  -1  -3 2521.73   77.80
   1   1   3 2598.93   77.80
  -2  -1  -3  213.03    7.49
  -2  -1  -3  203.83    8.08
   2   1   3  211.65    7.34
  -3  -1  -3 1895.68   57.42
  -3  -1  -3 1864.42   58.17
   3   1   3 1916.51   57.59
  -4  -1  -3 1039.27   34.42
   4   1   3 1123.64   34.74
   4   1   3 1078.98   33.88
  -5  -1  -3 1577.10   51.07
   5   1   3 1715.43   51.62
   5   1   3 1590.25   50.49
  -6  -1  -3 1520.58   49.23
   6   1   3 1570.40   49.75
   6   1   3 1558.00   48.81
   7  -2  -3 1043.50   38.25
  -7   2   3 1077.18   34.19
  -7   2   3 1106.32   33.64
   6  -2  -3 1066.01   37.69
  -6   2   3 1121.20   33.82
  -6   2   3 1093.46   34.28
   5  -2  -3 1026.22   33.89
  -5   2   3 1059.91   30.64
  -5   2   3  902.46   30.88
   4  -2  -3 1955.24   61.57
  -4   2   3 1976.13   59.17
  -4   2   3 1964.50   59.44
   3  -2  -3  810.29   27.29
   3  -2  -3  870.20   25.41
  -3   2   3  823.16   25.52
  -3   2   3  827.11   25.44
   2  -2  -3  508.90   15.47
   2  -2  -3  486.01   16.65
  -2   2   3  483.90   15.26
  -2   2   3  489.38   15.12
   1  -2  -3 1915.94   58.38
   1  -2  -3 2041.01   58.99
   1  -2  -3 1968.30   59.55
  -1   2   3 1940.73   58.31
  -1   2   3 1904.12   58.68
   0  -2  -3 6475.48  204.91
   0  -2  -3 7243.60  204.75
   1   2   3 9569.02  285.40
  -2  -2  -3 3557.13  104.32
   2   2   3 3352.40  103.46
  -3  -2  -3  982.21   31.26
   3   2   3  977.57   30.35
  -4  -2  -3  692.78   22.28
   4   2   3  608.56   20.94
  -5  -2  -3   27.90    4.18
   5   2   3   33.12    4.08
  -6  -2  -3  246.93   11.97
   6   2   3  285.32   12.50
   6   2   3  262.70   10.87
   7  -3  -3    3.61    5.23
  -7   3   3    9.08    2.20
  -7   3   3    4.04    2.30
   6  -3  -3   92.41    8.60
  -6   3   3   83.22    4.95
  -6   3   3   90.04    4.46
   5  -3  -3  814.07   28.35
  -5   3   3  745.19   25.10
  -5   3   3  828.66   24.84
   4  -3  -3 3896.09  117.37
  -4   3   3 3737.95  114.74
  -4   3   3 3849.81  114.62
   3  -3  -3 4328.36  130.13
  -3   3   3 4285.40  128.07
  -3   3   3 4240.89  128.02
   2  -3  -3 1349.77   42.02
  -2   3   3 1335.82   40.40
  -2   3   3 1315.95   40.08
   1  -3  -3 1234.70   39.12
  -1   3   3 1264.86   37.94
   0  -3  -3 1859.13   58.82
   0   3   3 1980.43   58.00
  -1  -3  -3   36.77    3.41
   1   3   3   34.63    2.68
  -2  -3  -3 1661.90   51.09
   2   3   3 1594.90   50.50
   2   3   3 1679.83   49.70
   3   3   3 1174.32   35.83
   3   3   3 1158.31   36.71
   4   3   3 1746.72   54.25
   5   3   3 2074.54   63.67
   7  -4  -3  453.79   21.32
  -7   4   3  459.77   15.71
  -7   4   3  460.94   16.41
   6  -4  -3  416.46   18.74
  -6   4   3  431.04   14.35
  -6   4   3  427.55   14.87
   5  -4  -3  754.94   27.12
  -5   4   3  736.08   23.39
  -5   4   3  740.10   23.81
   4  -4  -3  375.70   15.27
  -4   4   3  372.09   12.41
  -4   4   3  374.07   12.36
   3  -4  -3  126.15    7.67
  -3   4   3  118.15    4.76
  -3   4   3  133.68    5.04
   2  -4  -3 1052.26   34.21
  -2   4   3 1053.63   32.24
   1  -4  -3 3445.63  104.63
  -1   4   3 3425.57  102.96
   0  -4  -3 5838.60  179.28
   0   4   3 6074.33  177.92
  -1  -4  -3 3254.30  100.38
   1   4   3 3331.69   99.06
  -2  -4  -3 1008.65   32.85
   2   4   3  987.48   31.57
   2   4   3 1029.33   30.72
   3   4   3  540.90   19.17
   3   4   3  605.13   18.25
   4   4   3   57.27    5.15
   4   4   3   65.29    4.13
   5   4   3  182.18    8.90
   5   4   3  194.14    8.28
   6  -5  -3  261.34   14.33
  -6   5   3  255.53    9.79
   5  -5  -3 1137.20   38.96
  -5   5   3 1126.92   35.11
   4  -5  -3 1780.93   53.18
   4  -5  -3 1699.14   56.10
  -4   5   3 1724.29   52.26
  -4   5   3 1750.88   52.98
   3  -5  -3  919.74   28.44
   3  -5  -3  920.34   31.44
  -3   5   3  920.01   28.56
   2  -5  -3  585.79   21.36
  -2   5   3  608.31   18.94
   1  -5  -3  758.74   25.95
  -1   5   3  763.30   23.77
   0  -5  -3    4.83    2.68
   0   5   3    6.16    1.64
  -1  -5  -3  809.87   27.87
   1   5   3  843.90   25.98
  -2  -5  -3  916.50   31.66
   2   5   3  981.89   29.96
  -3  -5  -3 1366.22   45.16
   3   5   3 1381.50   43.42
   3   5   3 1426.84   42.39
   4   5   3 1788.72   52.85
   4   5   3 1668.03   53.73
   5  -6  -3  132.92    7.73
   5  -6  -3  125.67   10.54
  -5   6   3  133.60    6.14
   4  -6  -3   15.70    4.79
   4  -6  -3   14.10    2.56
  -4   6   3   12.60    2.16
  -4   6   3   12.74    1.95
   3  -6  -3  374.82   15.86
  -3   6   3  387.91   12.51
  -3   6   3  389.09   12.95
   2  -6  -3 1225.39   41.30
  -2   6   3 1277.71   38.55
   1  -6  -3 2366.02   74.62
  -1   6   3 2391.74   71.95
   0  -6  -3 1813.44   57.80
   0   6   3 1812.58   55.16
  -1  -6  -3  763.91   27.02
   1   6   3  780.34   24.48
  -2  -6  -3  363.99   15.16
   2   6   3  360.74   12.62
  -3  -6  -3   58.53    7.44
   3   6   3   52.73    4.70
   4  -7  -3  402.57   18.73
  -4   7   3  407.47   14.07
   3  -7  -3  243.28   12.95
  -3   7   3  240.92    8.74
  -3   7   3  248.49    9.19
   2  -7  -3  222.75   12.11
  -2   7   3  214.74    8.10
  -2   7   3  214.51    8.23
   1  -7  -3   13.77    4.37
  -1   7   3   14.72    2.02
  -1   7   3   11.55    2.00
   0  -7  -3  253.08   12.42
   0   7   3  239.75    8.85
   0   7   3  231.47    9.12
  -1  -7  -3  518.72   20.17
   1   7   3  474.23   16.94
   1   7   3  515.65   16.63
  -2  -7  -3  781.45   28.04
   2   7   3  710.14   24.69
   2   7   3  779.44   24.40
   1  -8  -3  726.69   27.99
   1   8  -4   51.40    4.86
  -1  -8   4   53.48    7.63
  -1  -8   4   54.88    5.15
   0   8  -4    2.12    1.98
   0   8  -4    3.34    2.13
   0  -8   4    5.41    3.60
   0  -8   4   10.16    2.99
   4   7  -4    2.92    2.20
  -4  -7   4    8.41    2.40
   3   7  -4  152.42    6.99
  -3  -7   4  152.89    6.99
   2   7  -4  460.20   15.75
  -2  -7   4  464.85   17.82
  -2  -7   4  458.82   15.87
   1   7  -4 1255.86   39.48
   1   7  -4 1261.84   38.55
  -1  -7   4 1282.36   41.14
  -1  -7   4 1273.63   39.89
   0   7  -4 1666.93   50.11
   0   7  -4 1613.18   50.59
   0  -7   4 1652.37   52.10
   0  -7   4 1654.99   51.55
  -1   7  -4  700.26   22.71
  -1   7  -4  704.68   22.55
   1  -7   4  691.99   24.19
   1  -7   4  726.98   24.33
  -2   7  -4  115.13    5.62
  -2   7  -4  100.54    5.60
   2  -7   4  100.24    7.74
   2  -7   4  102.33    7.94
  -3   7  -4    5.02    2.55
  -3   7  -4    6.40    2.62
   3  -7   4    6.97    4.36
   3  -7   4    7.36    3.64
   5   6  -4 1760.54   54.05
  -5  -6   4 1735.73   53.95
   4   6  -4 1644.65   50.58
  -4  -6   4 1632.75   50.48
   3   6  -4  214.02    8.46
  -3  -6   4  225.38    8.59
   2   6  -4  102.24    5.06
  -2  -6   4  106.92    5.53
  -2  -6   4  119.16    7.32
   1   6  -4   76.69    4.24
   1   6  -4   72.30    3.53
  -1  -6   4   80.80    5.04
  -1  -6   4   73.66    6.02
   0   6  -4  319.60   10.56
   0   6  -4  313.35   11.02
   0  -6   4  309.68   12.34
   0  -6   4  327.16   12.27
  -1   6  -4  974.20   30.05
  -1   6  -4 1003.68   30.31
   1  -6   4  953.58   31.66
   1  -6   4  937.04   31.24
  -2   6  -4  888.15   28.20
  -2   6  -4  895.14   28.22
   2  -6   4  901.58   30.15
   2  -6   4  898.60   29.24
  -3   6  -4  908.03   28.84
  -3   6  -4  882.01   28.78
   3  -6   4  931.31   31.01
   3  -6   4  904.71   29.60
  -4   6  -4  573.00   19.54
   4  -6   4  567.81   21.54
   4  -6   4  575.64   20.16
   6   5  -4  244.13    9.63
  -6  -5   4  255.10   10.01
   5   5  -4    4.61    1.87
  -5  -5   4    3.59    1.97
   4   5  -4  210.91    8.10
  -4  -5   4  207.03    8.18
   3   5  -4  787.32   25.11
  -3  -5   4  800.13   25.23
   2   5  -4 2333.31   69.77
  -2  -5   4 2271.91   70.04
   1   5  -4 4031.47  123.18
   1   5  -4 4081.63  122.53
  -1  -5   4 4203.31  123.81
  -1  -5   4 4104.45  124.07
   0   5  -4 2245.82   67.09
   0   5  -4 2243.83   67.49
   0  -5   4 2180.43   68.42
   0  -5   4 2246.98   68.13
  -1   5  -4  295.47   10.05
  -1   5  -4  301.00   10.26
   1  -5   4  293.64   10.77
   1  -5   4  295.25   11.81
  -2   5  -4   24.42    3.06
  -2   5  -4   24.28    3.05
   2  -5   4   26.38    3.57
   2  -5   4   22.42    3.76
  -3   5  -4   40.08    3.78
  -3   5  -4   41.75    3.85
   3  -5   4   52.06    5.54
   3  -5   4   38.37    4.29
  -4   5  -4  370.47   13.42
  -4   5  -4  393.18   13.71
   4  -5   4  383.30   15.25
   4  -5   4  363.51   13.80
   6   4  -4 2045.46   62.08
  -6  -4   4 2023.30   62.46
   5   4  -4 2697.97   82.57
  -5  -4   4 2763.00   82.88
   4   4  -4  390.43   13.06
  -4  -4   4  389.79   13.27
   3   4  -4  122.20    5.16
  -3  -4   4  126.56    5.39
   2   4  -4  289.33    9.98
  -2  -4   4  298.51   10.30
   1   4  -4  508.08   15.97
   1   4  -4  528.32   16.51
  -1  -4   4  521.10   17.11
  -1  -4   4  505.66   17.06
   0   4  -4 2486.24   74.55
   0   4  -4 2523.30   74.90
   0  -4   4 2415.76   75.76
   0  -4   4 2504.19   75.15
  -1   4  -4 2194.33   65.66
  -1   4  -4 2132.79   65.46
   1  -4   4 2200.20   66.89
   1  -4   4 2147.51   65.69
  -2   4  -4 2349.55   70.31
  -2   4  -4 2238.03   70.21
   2  -4   4 2321.81   71.61
   2  -4   4 2369.43   70.29
  -3   4  -4 1814.32   55.58
  -3   4  -4 1837.04   55.68
   3  -4   4 1805.34   56.73
   3  -4   4 1800.31   55.46
  -4   4  -4  483.75   16.18
  -4   4  -4  462.70   15.89
   4  -4   4  467.42   17.15
   4  -4   4  454.48   15.91
  -5   4  -4    4.20    2.68
   5  -4   4    5.28    2.92
   5  -4   4    2.40    3.45
   7   3  -4  248.43   13.40
   7   3  -4  239.99    9.17
  -7  -3   4  249.66   10.06
   6   3  -4   34.18    3.35
   6   3  -4   31.37    4.97
  -6  -3   4   27.52    3.71
   5   3  -4  169.56    6.56
   5   3  -4  159.11    9.10
  -5  -3   4  162.00    6.78
   4   3  -4 1084.76   33.08
  -4  -3   4 1059.59   33.28
   3   3  -4 3226.46   96.01
  -3  -3   4 3164.52   96.17
   2   3  -4 6524.53  197.85
  -2  -3   4 6732.93  198.15
   1   3  -4 5081.95  150.47
   1   3  -4 4935.47  150.04
  -1  -3   4 5079.47  151.01
   0   3  -4  775.04   23.93
   0   3  -4  792.31   24.20
   0  -3   4  767.15   24.98
   0  -3   4  771.99   24.07
  -1   3  -4   68.44    3.51
  -1   3  -4   70.65    3.40
   1  -3   4   69.20    3.23
   1  -3   4   69.96    4.51
  -2   3  -4   40.27    3.19
  -2   3  -4   43.35    3.05
   2  -3   4   43.54    2.84
   2  -3   4   37.64    3.96
  -3   3  -4  804.65   25.91
  -3   3  -4  828.04   25.99
   3  -3   4  801.34   26.67
   3  -3   4  821.60   25.51
  -4   3  -4 1230.22   38.18
  -4   3  -4 1195.84   37.72
   4  -3   4 1223.07   37.75
   4  -3   4 1205.93   38.80
  -5   3  -4 1266.58   39.41
   5  -3   4 1209.56   38.86
   5  -3   4 1238.85   40.05
   7   2  -4 1353.56   44.28
   7   2  -4 1519.99   48.66
  -7  -2   4 1473.10   45.27
   6   2  -4 2779.57   84.17
   6   2  -4 2827.10   87.55
  -6  -2   4 2773.89   84.78
   5   2  -4  622.68   19.52
   5   2  -4  625.11   22.19
  -5  -2   4  606.56   19.96
   4   2  -4  120.55    4.71
   4   2  -4  116.40    6.56
  -4  -2   4  119.48    5.06
   3   2  -4  460.99   14.54
  -3  -2   4  446.65   14.68
   2   2  -4  480.37   15.40
  -2  -2   4  489.76   15.63
   1   2  -4 3991.28  121.08
   1   2  -4 4080.17  121.35
  -1  -2   4 4085.35  121.72
   0   2  -4 3813.32  113.18
   0   2  -4 3736.84  113.34
   0  -2   4 3788.64  113.92
  -1   2  -4 4311.49  130.71
  -1   2  -4 4398.74  130.94
   1  -2   4 4381.35  131.53
  -2   2  -4 3788.96  116.82
  -2   2  -4 3946.02  117.09
   2  -2   4 3927.78  117.40
  -3   2  -4 1361.03   42.62
  -3   2  -4 1410.32   42.53
   3  -2   4 1366.98   43.03
   3  -2   4 1364.61   41.91
  -4   2  -4   31.06    3.60
  -4   2  -4   31.93    4.12
   4  -2   4   26.47    4.29
   4  -2   4   32.59    3.90
  -5   2  -4   55.21    5.36
  -5   2  -4   58.47    4.04
   5  -2   4   57.28    5.52
   5  -2   4   49.55    4.85
  -6   2  -4   70.08    7.40
   7   1  -4   42.96    7.44
  -7  -1   4   53.02    3.62
  -7  -1   4   47.18    4.22
   6   1  -4   53.66    3.20
  -6  -1   4   48.07    3.76
  -6  -1   4   47.50    2.99
   5   1  -4  971.16   32.01
   5   1  -4  961.23   29.33
  -5  -1   4  952.53   29.74
  -5  -1   4  921.58   28.84
   4   1  -4 3050.05   92.07
   4   1  -4 3030.56   90.20
  -4  -1   4 2929.69   89.60
  -4  -1   4 3008.03   90.45
   3   1  -4 6577.04  195.91
   3   1  -4 6428.28  197.02
  -3  -1   4 6691.01  196.03
   2   1  -4 6663.17  197.60
   2   1  -4 6580.11  198.04
   1   1  -4 1637.53   51.62
   1   1  -4 1692.44   51.40
  -1  -1   4 1721.13   51.35
  -1  -1   4 1757.74   51.79
   0   1  -4  126.57    5.32
   0   1  -4  120.51    5.05
   0  -1   4  137.97    5.58
  -1   1  -4   54.63    3.45
  -1   1  -4   57.99    3.28
   1  -1   4   52.39    3.55
  -2   1  -4 1227.03   38.23
  -2   1  -4 1240.22   38.25
   2  -1   4 1235.06   38.36
  -3   1  -4 2112.66   63.95
  -3   1  -4 2114.39   63.71
   3  -1   4 2038.82   64.00
  -4   1  -4 2759.21   87.29
  -4   1  -4 2935.57   86.71
   4  -1   4 2806.34   87.38
   4  -1   4 2959.54   86.86
  -5   1  -4 2412.89   74.44
  -5   1  -4 2431.11   75.66
   5  -1   4 2491.08   75.83
   5  -1   4 2492.66   75.29
  -6   1  -4  727.28   25.41
   6  -1   4  738.14   25.50
   7   0  -4 1815.12   57.37
  -7   0   4 1703.71   53.67
  -7   0   4 1691.82   52.84
   6   0  -4  737.81   22.25
   6   0  -4  702.98   25.54
  -6   0   4  689.70   22.74
  -6   0   4  689.09   21.93
   5   0  -4  138.88    8.02
   5   0  -4  147.43    5.61
  -5   0   4  136.62    5.82
  -5   0   4  142.64    5.09
   4   0  -4  259.90   10.86
   4   0  -4  273.47    9.35
  -4   0   4  277.23    8.77
  -4   0   4  285.09    9.41
   3   0  -4  230.50    8.03
   3   0  -4  220.38    8.90
  -3   0   4  221.18    7.79
  -3   0   4  241.03    7.36
   2   0  -4 3481.18  107.58
   2   0  -4 3626.40  107.80
  -2   0   4 3577.77  107.20
  -2   0   4 3638.04  106.86
   1   0  -4 4621.28  140.36
   1   0  -4 4672.09  139.78
  -1   0   4 4710.42  139.70
  -1   0   4 4709.63  139.89
   0   0  -4 5859.60  172.68
   0   0  -4 5647.38  172.23
   0   0   4 5784.44  172.41
  -1   0  -4 5010.24  155.92
  -1   0  -4 5270.40  156.01
   1   0   4 5321.49  155.87
  -2   0  -4 2653.26   78.94
  -2   0  -4 2526.80   78.66
   2   0   4 2608.26   78.59
  -3   0  -4  156.73    6.31
  -3   0  -4  134.24    7.02
   3   0   4  157.16    6.36
   3   0   4  141.00    6.34
  -4   0  -4  141.37    7.36
  -4   0  -4  145.02    6.15
   4   0   4  137.19    6.85
   4   0   4  153.85    6.91
  -5   0  -4  112.40    7.44
   5   0   4  121.76    6.81
   5   0   4  130.13    6.98
  -6   0  -4  271.47   12.72
   6   0   4  288.78   12.34
   7  -1  -4    6.02    4.38
  -7   1   4    4.50    1.95
  -7   1   4    8.00    2.26
   6  -1  -4  514.81   19.73
  -6   1   4  520.98   16.84
  -6   1   4  471.30   16.06
   5  -1  -4 1987.11   61.41
   5  -1  -4 1799.63   58.69
  -5   1   4 1995.06   59.00
  -5   1   4 1974.05   58.41
   4  -1  -4 4113.09  123.54
   4  -1  -4 3980.22  121.97
  -4   1   4 4125.00  121.39
  -4   1   4 4038.13  121.75
   3  -1  -4 5362.02  163.16
   3  -1  -4 5355.66  162.40
  -3   1   4 5439.05  161.89
  -3   1   4 5535.21  161.67
   2  -1  -4 2463.46   72.94
   2  -1  -4 2279.70   72.61
  -2   1   4 2399.32   71.94
  -2   1   4 2451.80   71.90
   1  -1  -4  198.99    7.03
   1  -1  -4  167.66    7.08
  -1   1   4  202.23    6.53
  -1   1   4  191.01    6.57
   0  -1  -4  111.06    4.26
   0   1   4  102.87    4.59
   0   1   4  114.92    4.53
  -1  -1  -4 1121.93   35.67
  -1  -1  -4 1164.16   35.05
  -1  -1  -4 1134.94   35.68
   1   1   4 1178.39   35.41
  -2  -1  -4 2365.32   71.71
  -2  -1  -4 2344.29   71.30
   2   1   4 2331.85   71.03
  -3  -1  -4 4396.47  131.12
  -3  -1  -4 4273.78  130.21
   3   1   4 4327.58  130.27
  -4  -1  -4 4221.94  131.25
   4   1   4 4591.92  130.88
   4   1   4 4166.21  130.44
  -5  -1  -4 1313.04   43.18
   5   1   4 1378.48   42.77
   5   1   4 1336.88   42.41
   7  -2  -4  499.05   20.87
  -7   2   4  463.81   16.54
  -7   2   4  485.95   15.92
   6  -2  -4  156.86    9.60
  -6   2   4  152.57    6.05
  -6   2   4  145.83    6.59
   5  -2  -4   98.93    7.32
  -5   2   4   81.29    3.96
  -5   2   4   87.37    4.48
   4  -2  -4   65.88    3.12
   4  -2  -4   65.04    5.41
  -4   2   4   61.74    2.99
  -4   2   4   60.59    3.16
   3  -2  -4 1611.28   48.04
   3  -2  -4 1566.34   49.38
  -3   2   4 1583.20   47.67
  -3   2   4 1552.84   47.66
   2  -2  -4 3839.39  113.94
   2  -2  -4 3771.89  114.62
  -2   2   4 3712.69  113.22
  -2   2   4 3850.56  113.47
   1  -2  -4 5133.22  156.12
   1  -2  -4 5204.96  155.90
  -1   2   4 5209.08  155.51
  -1   2   4 5274.45  155.09
   0  -2  -4 4643.62  133.83
   0  -2  -4 4371.26  133.60
   0   2   4 4397.83  133.03
   0   2   4 4407.00  133.49
  -1  -2  -4 3039.00   91.64
  -1  -2  -4 3094.79   91.85
   1   2   4 3037.70   91.30
   1   2   4 2986.14   91.87
  -2  -2  -4  387.07   13.27
   2   2   4  389.93   12.91
   2   2   4  398.68   13.71
  -3  -2  -4  169.19    7.81
   3   2   4  169.47    6.73
  -4  -2  -4  211.99    9.61
   4   2   4  195.85    8.23
  -5  -2  -4  292.62   12.82
   5   2   4  308.90   11.76
   5   2   4  318.67   12.82
   7  -3  -4  188.26   13.15
  -7   3   4  189.04    7.69
  -7   3   4  193.91    8.34
   6  -3  -4  951.59   33.37
  -6   3   4  918.10   29.66
  -6   3   4  938.43   29.20
   5  -3  -4 1762.99   55.72
  -5   3   4 1628.54   52.67
  -5   3   4 1785.43   52.44
   4  -3  -4 2787.88   84.29
  -4   3   4 2619.34   81.62
  -4   3   4 2732.87   81.60
   3  -3  -4 1966.87   58.09
   3  -3  -4 1933.31   60.00
  -3   3   4 1879.75   57.89
  -3   3   4 1914.61   58.09
   2  -3  -4  233.64    8.26
   2  -3  -4  240.80    9.61
  -2   3   4  242.59    7.65
  -2   3   4  234.20    8.08
   1  -3  -4  113.97    4.71
   1  -3  -4  108.41    5.48
  -1   3   4  108.15    4.49
   0  -3  -4  627.44   20.85
   0  -3  -4  632.42   20.37
   0   3   4  651.46   20.27
  -1  -3  -4 1574.64   47.78
   1   3   4 1505.03   47.39
   1   3   4 1543.26   46.67
  -2  -3  -4 4395.02  129.45
   2   3   4 4223.72  129.28
   2   3   4 4237.61  128.30
   3   3   4 4805.55  142.97
   3   3   4 4662.48  141.93
   4   3   4 1595.22   49.15
   4   3   4 1590.70   49.92
   5   3   4  257.92   10.33
   5   3   4  255.67   10.75
   6  -4  -4   34.61    5.92
  -6   4   4   30.46    4.11
  -6   4   4   41.14    3.54
   5  -4  -4   21.79    4.10
  -5   4   4   13.82    1.97
  -5   4   4   24.71    3.13
   4  -4  -4  459.86   17.69
  -4   4   4  457.80   14.79
  -4   4   4  449.49   14.84
   3  -4  -4 1864.86   57.12
  -3   4   4 1733.34   54.40
  -3   4   4 1822.39   54.80
   2  -4  -4 3173.08   95.29
  -2   4   4 3045.93   93.43
   1  -4  -4 2707.36   77.63
  -1   4   4 2335.12   75.96
   0  -4  -4 2068.07   62.34
   0   4   4 1957.91   61.12
  -1  -4  -4  550.43   18.86
   1   4   4  542.82   18.01
  -2  -4  -4   90.75    5.89
   2   4   4   74.32    5.10
   2   4   4   85.49    3.88
   3   4   4  235.49    8.35
   3   4   4  219.62    9.61
   4   4   4  262.64   10.86
   4   4   4  262.68    9.93
   6  -5  -4  632.86   25.11
  -6   5   4  595.26   20.20
  -6   5   4  626.39   20.97
   5  -5  -4  978.39   33.56
  -5   5   4  935.36   29.95
  -5   5   4  929.42   29.71
   4  -5  -4  879.02   30.59
  -4   5   4  879.32   27.55
  -4   5   4  877.31   27.46
   3  -5  -4  193.95   10.19
  -3   5   4  190.23    7.28
   2  -5  -4   38.50    5.51
  -2   5   4   40.09    3.09
   1  -5  -4  263.20   11.41
  -1   5   4  253.04    9.17
   0  -5  -4  713.32   24.65
   0   5   4  727.93   22.98
  -1  -5  -4 2759.20   84.89
   1   5   4 2737.54   83.35
  -2  -5  -4 3803.20  114.39
   2   5   4 3661.22  112.91
  -3  -5  -4 1432.17   44.86
   3   5   4 1323.78   43.39
   4   5   4  252.61   10.86
   5  -6  -4  118.89   10.62
  -5   6   4  114.71    5.99
   4  -6  -4  596.44   22.47
  -4   6   4  542.17   17.85
  -4   6   4  568.30   18.61
   3  -6  -4 1270.48   41.50
  -3   6   4 1195.36   38.13
   2  -6  -4 1217.26   39.84
  -2   6   4 1173.61   37.01
   1  -6  -4  995.20   33.46
  -1   6   4  981.09   30.90
   0  -6  -4  392.79   15.71
   0   6   4  389.47   13.38
   1   6   4   16.70    2.35
  -2  -6  -4  161.46    9.83
   2   6   4  164.46    7.41
  -3  -6  -4  224.76   11.74
   3   6   4  207.80    9.44
   3  -7  -4    3.91    4.48
  -3   7   4    4.85    2.18
  -3   7   4    5.52    1.79
   2  -7  -4   85.32    8.68
  -2   7   4   93.16    5.17
   1  -7  -4  300.65   14.09
  -1   7   4  285.23   10.65
   0  -7  -4 1164.16   38.90
   0   7   4 1130.06   35.92
  -1  -7  -4 1878.23   59.76
   1   7   4 1816.77   56.87
   3   7  -5  991.64   31.44
  -3  -7   5  969.96   31.44
   2   7  -5 1009.72   32.78
  -2  -7   5 1058.65   33.24
   1   7  -5  917.11   30.18
  -1  -7   5  937.93   31.55
  -1  -7   5  998.62   31.16
   0   7  -5  445.30   14.59
   0   7  -5  420.71   15.03
   0  -7   5  444.58   16.49
   0  -7   5  434.25   16.67
  -1   7  -5    8.00    2.24
  -1   7  -5    8.45    2.64
   1  -7   5    5.83    3.47
   1  -7   5   10.47    3.56
  -2   7  -5   93.30    5.72
  -2   7  -5  101.28    5.93
   2  -7   5   88.20    8.35
   2  -7   5   94.70    7.45
   5   6  -5  842.71   27.28
  -5  -6   5  833.71   27.28
   4   6  -5  519.81   17.55
  -4  -6   5  512.90   17.60
   3   6  -5   27.56    3.40
  -3  -6   5   23.88    3.86
   2   6  -5  210.24    8.22
  -2  -6   5  214.94    8.97
   1   6  -5  496.54   15.50
   1   6  -5  470.90   16.17
  -1  -6   5  481.68   17.31
  -1  -6   5  494.93   17.27
   0   6  -5  865.72   26.07
   0   6  -5  835.31   26.56
   0  -6   5  829.98   27.39
   0  -6   5  805.78   27.77
  -1   6  -5 1340.40   41.85
  -1   6  -5 1330.75   41.57
   1  -6   5 1368.35   42.32
   1  -6   5 1353.39   43.36
  -2   6  -5  970.26   30.09
  -2   6  -5  934.49   30.16
   2  -6   5  968.66   32.04
   2  -6   5  920.90   30.39
  -3   6  -5  387.58   13.88
  -3   6  -5  372.81   14.07
   3  -6   5  388.20   16.06
   3  -6   5  376.56   14.17
   6   5  -5  113.73    6.00
  -6  -5   5  106.25    6.46
   5   5  -5  555.90   18.32
  -5  -5   5  540.75   18.46
   4   5  -5 1745.17   54.07
  -4  -5   5 1778.22   54.31
   3   5  -5 2227.62   68.17
  -3  -5   5 2252.96   68.50
   2   5  -5 1945.59   59.65
  -2  -5   5 1966.90   60.16
   1   5  -5 1157.69   34.76
   1   5  -5 1155.49   35.44
  -1  -5   5 1123.06   36.23
  -1  -5   5 1121.41   35.92
   0   5  -5   75.80    3.94
   0   5  -5   79.82    4.46
   0  -5   5   84.60    6.00
   0  -5   5   88.44    4.87
  -1   5  -5  236.24    8.94
  -1   5  -5  242.28    9.18
   1  -5   5  245.08    9.16
   1  -5   5  248.81   10.66
  -2   5  -5  553.25   18.41
  -2   5  -5  565.64   18.53
   2  -5   5  558.97   20.00
   2  -5   5  548.50   18.25
  -3   5  -5  431.32   15.67
  -3   5  -5  455.31   15.47
   3  -5   5  441.85   17.19
   3  -5   5  436.10   14.98
  -4   5  -5  520.22   17.73
  -4   5  -5  458.24   17.32
   4  -5   5  518.43   19.34
   6   4  -5  947.19   29.64
   6   4  -5  929.39   32.84
  -6  -4   5  929.26   30.10
   5   4  -5  989.72   30.83
  -5  -4   5  970.96   31.06
   4   4  -5  140.98    6.04
  -4  -4   5  144.87    6.41
   3   4  -5  494.60   16.28
  -3  -4   5  500.33   16.69
   2   4  -5  896.59   28.42
  -2  -4   5  920.36   28.97
   1   4  -5 1271.00   37.73
   1   4  -5 1282.02   37.18
  -1  -4   5 1105.40   38.28
   0   4  -5 3187.49   93.32
   0   4  -5 2911.85   93.57
   0  -4   5 3179.52   94.70
   0  -4   5 3135.77   93.47
  -1   4  -5 2748.51   83.86
  -1   4  -5 2824.24   84.14
   1  -4   5 2823.93   85.28
   1  -4   5 2716.73   83.58
  -2   4  -5 1151.95   35.65
  -2   4  -5 1125.49   35.45
   2  -4   5 1120.13   36.85
   2  -4   5 1142.11   34.86
  -3   4  -5  261.74   10.35
  -3   4  -5  255.82    9.98
   3  -4   5  256.04    9.11
   3  -4   5  253.48   11.07
  -4   4  -5   18.25    3.21
   4  -4   5   17.18    3.80
   7   3  -5  106.56   10.04
   7   3  -5  106.46    5.74
  -7  -3   5  108.56    6.49
   6   3  -5  433.42   17.87
   6   3  -5  449.27   14.92
  -6  -3   5  438.72   15.40
   5   3  -5 2025.84   61.31
   5   3  -5 2007.31   63.74
  -5  -3   5 2006.22   61.63
   4   3  -5 3454.07  103.33
  -4  -3   5 3408.76  103.55
   3   3  -5 3004.49   85.44
  -3  -3   5 2653.70   85.55
   2   3  -5 2029.52   61.11
  -2  -3   5 1995.28   61.45
   1   3  -5  393.77   13.03
   1   3  -5  395.94   12.67
  -1  -3   5  382.85   13.61
   0   3  -5  369.49   12.22
   0   3  -5  363.29   12.45
   0  -3   5  375.20   13.27
  -1   3  -5 1545.11   45.74
  -1   3  -5 1517.77   45.46
   1  -3   5 1381.56   46.39
  -2   3  -5  897.61   27.83
  -2   3  -5  870.37   28.02
   2  -3   5  855.10   28.70
  -3   3  -5 1050.44   33.74
  -3   3  -5 1105.49   33.74
   3  -3   5 1032.18   34.45
  -4   3  -5 1538.41   47.44
  -4   3  -5 1546.25   48.01
   4  -3   5 1504.35   48.66
  -5   3  -5  662.88   22.73
   5  -3   5  637.09   23.30
   7   2  -5  762.34   27.41
   7   2  -5  714.64   23.40
  -7  -2   5  722.33   24.19
   6   2  -5 1067.56   34.35
   6   2  -5 1125.65   37.32
  -6  -2   5 1123.91   34.86
   5   2  -5  370.56   14.88
   5   2  -5  376.30   12.52
  -5  -2   5  364.12   12.86
   4   2  -5  635.74   22.09
   4   2  -5  645.17   20.43
  -4  -2   5  645.20   20.67
   3   2  -5 1270.20   39.75
   3   2  -5 1291.46   40.78
  -3  -2   5 1325.59   39.97
   2   2  -5 1190.36   36.85
   2   2  -5 1186.21   37.21
  -2  -2   5 1206.77   37.09
  -2  -2   5 1202.28   36.14
   1   2  -5 4889.19  140.08
   1   2  -5 4625.97  140.40
  -1  -2   5 4531.72  140.76
   0   2  -5 5680.98  173.45
   0   2  -5 5803.53  173.23
   0  -2   5 5886.71  173.95
  -1   2  -5 2514.05   77.04
  -1   2  -5 2510.32   77.38
   1  -2   5 2607.90   77.88
  -2   2  -5  668.37   22.01
  -2   2  -5  689.70   22.09
   2  -2   5  667.25   22.53
  -3   2  -5    6.65    1.90
  -3   2  -5   12.25    2.64
   3  -2   5    7.53    2.80
  -4   2  -5  618.58   21.04
  -4   2  -5  613.12   20.47
   4  -2   5  609.89   21.32
  -5   2  -5  739.25   24.41
  -5   2  -5  660.78   23.12
   5  -2   5  714.80   24.56
   7   1  -5  271.94   13.83
   7   1  -5  272.13   11.89
  -7  -1   5  269.13   10.57
   6   1  -5 1476.15   44.50
   6   1  -5 1479.55   47.46
  -6  -1   5 1466.13   44.95
  -6  -1   5 1370.72   43.75
   5   1  -5 3355.01   99.97
   5   1  -5 3394.69  102.23
  -5  -1   5 3283.63  100.21
  -5  -1   5 3248.82   99.14
   4   1  -5 3153.76   95.14
   4   1  -5 3193.35   96.63
  -4  -1   5 3196.89   95.25
  -4  -1   5 3095.30   94.27
   3   1  -5 2061.61   64.15
   3   1  -5 2074.77   63.39
  -3  -1   5 2104.24   62.55
  -3  -1   5 2121.27   63.40
   2   1  -5  829.34   26.75
   2   1  -5  819.87   26.71
  -2  -1   5  891.14   26.08
  -2  -1   5  872.48   26.72
   1   1  -5  246.84    8.21
   1   1  -5  239.27    8.90
  -1  -1   5  247.43    8.50
  -1  -1   5  249.52    9.00
   0   1  -5 2829.28   85.10
   0   1  -5 2737.04   85.46
   0  -1   5 2885.24   85.46
  -1   1  -5 1460.78   44.88
  -1   1  -5 1426.60   44.67
   1  -1   5 1454.07   45.05
  -2   1  -5 1300.90   43.99
  -2   1  -5 1469.32   44.06
   2  -1   5 1480.04   44.30
  -3   1  -5 3038.28   94.38
  -3   1  -5 3166.20   94.19
   3  -1   5 3099.02   94.42
  -4   1  -5 1454.18   47.52
  -4   1  -5 1567.71   48.24
   4  -1   5 1568.71   48.21
  -5   1  -5  227.15    9.56
  -5   1  -5  246.39   11.11
   5  -1   5  235.19   10.86
   7   0  -5  816.50   28.61
  -7   0   5  703.14   23.75
  -7   0   5  756.33   24.74
   6   0  -5  456.54   18.16
   6   0  -5  485.83   15.60
  -6   0   5  446.36   15.59
  -6   0   5  454.96   14.72
   5   0  -5  385.30   12.81
   5   0  -5  361.12   14.72
  -5   0   5  366.99   12.68
  -5   0   5  369.23   11.83
   4   0  -5 1284.96   38.91
   4   0  -5 1239.14   40.00
  -4   0   5 1266.30   37.93
  -4   0   5 1230.95   38.55
   3   0  -5  843.76   27.26
   3   0  -5  859.76   27.77
  -3   0   5  881.92   26.88
  -3   0   5  868.24   26.30
   2   0  -5 4373.88  135.26
   2   0  -5 4389.10  135.61
  -2   0   5 4647.01  135.10
  -2   0   5 4625.04  134.69
   1   0  -5 7624.69  220.84
   1   0  -5 7311.70  219.95
  -1   0   5 7368.07  220.38
  -1   0   5 7205.37  220.11
   0   0  -5 4064.59  121.44
   0   0   5 3992.20  121.14
  -1   0  -5 1063.42   33.91
  -1   0  -5 1104.89   33.93
   1   0   5 1067.37   33.84
  -2   0  -5    3.52    2.41
  -2   0  -5   -0.42    1.38
  -3   0  -5  813.50   26.97
  -3   0  -5  851.01   27.64
   3   0   5  851.57   27.14
  -4   0  -5 1337.17   43.01
  -4   0  -5 1337.22   42.13
   4   0   5 1368.30   42.66
  -5   0  -5  826.77   28.43
   5   0   5  841.85   27.99
   7  -1  -5  719.26   26.88
  -7   1   5  714.61   23.32
  -7   1   5  684.06   22.33
   6  -1  -5 2017.84   65.33
  -6   1   5 2088.76   62.00
  -6   1   5 2044.65   62.75
   5  -1  -5 2349.68   73.69
   5  -1  -5 2348.27   71.65
  -5   1   5 2362.44   71.54
  -5   1   5 2371.24   70.91
   4  -1  -5 1542.49   47.06
   4  -1  -5 1501.70   48.07
  -4   1   5 1528.13   46.10
  -4   1   5 1528.90   46.53
   3  -1  -5  769.65   25.41
   3  -1  -5  775.15   24.98
  -3   1   5  792.38   24.29
  -3   1   5  789.30   24.03
   2  -1  -5   40.50    3.27
   2  -1  -5   42.55    3.35
  -2   1   5   41.45    2.45
  -2   1   5   42.22    2.52
   1  -1  -5 2691.01   79.10
   1  -1  -5 2534.30   79.62
  -1   1   5 2623.91   78.92
  -1   1   5 2635.56   79.00
   0  -1  -5 1840.78   53.88
   0  -1  -5 1660.38   54.78
   0   1   5 1797.63   54.53
   0   1   5 1835.76   54.32
  -1  -1  -5 1370.39   44.44
   1   1   5 1493.89   44.21
  -2  -1  -5 4078.07  121.59
  -2  -1  -5 4088.88  121.50
   2   1   5 3892.66  120.98
  -3  -1  -5 2667.11   84.37
  -3  -1  -5 2762.93   85.04
   3   1   5 2656.70   84.23
   3   1   5 3000.73   84.04
  -4  -1  -5  537.55   18.85
   4   1   5  493.07   17.85
   4   1   5  519.11   17.46
  -5  -1  -5   14.51    4.10
   5   1   5   16.20    3.27
   7  -2  -5  298.45   15.30
  -7   2   5  297.52   10.53
  -7   2   5  299.32   11.39
   6  -2  -5   88.40    7.94
  -6   2   5   89.88    4.33
  -6   2   5   84.42    4.95
   5  -2  -5  744.34   26.29
   5  -2  -5  774.96   23.51
  -5   2   5  729.64   23.37
  -5   2   5  750.63   23.85
   4  -2  -5  620.22   21.27
   4  -2  -5  591.85   19.32
  -4   2   5  591.70   19.00
  -4   2   5  592.58   18.79
   3  -2  -5 2600.12   77.94
   3  -2  -5 2522.31   77.04
  -3   2   5 2491.02   76.25
  -3   2   5 2535.14   76.29
   2  -2  -5 5869.49  179.73
   2  -2  -5 6040.83  180.00
  -2   2   5 6013.24  178.76
  -2   2   5 6052.61  179.03
   1  -2  -5 3887.75  120.18
   1  -2  -5 4031.71  120.00
  -1   2   5 4049.73  119.66
  -1   2   5 3977.15  119.17
   0  -2  -5 1156.79   34.71
   0  -2  -5 1109.51   35.20
   0   2   5 1073.30   34.80
   0   2   5 1138.72   34.34
  -1  -2  -5   13.15    1.97
  -1  -2  -5   17.45    2.52
   1   2   5   15.85    2.29
   1   2   5   16.41    2.05
  -2  -2  -5  674.85   22.45
   2   2   5  677.66   22.70
   2   2   5  705.47   22.00
   3   2   5 1626.62   50.14
  -4  -2  -5 1287.84   40.76
   4   2   5 1242.95   39.84
  -5  -2  -5  768.85   26.51
   5   2   5  763.47   25.59
   7  -3  -5  861.67   31.98
  -7   3   5  839.10   27.51
  -7   3   5  840.98   26.87
   6  -3  -5 1217.05   41.57
  -6   3   5 1242.13   38.35
  -6   3   5 1212.03   37.75
   5  -3  -5  842.28   29.22
   5  -3  -5  877.86   25.68
  -5   3   5  802.39   26.03
  -5   3   5  814.79   26.36
   4  -3  -5  411.10   16.15
   4  -3  -5  431.94   13.74
  -4   3   5  420.56   13.68
  -4   3   5  410.29   13.66
   3  -3  -5   10.65    2.71
   3  -3  -5    9.31    1.58
   2  -3  -5 1267.12   39.79
   2  -3  -5 1261.49   39.01
  -2   3   5 1227.16   38.49
  -2   3   5 1266.21   37.93
   1  -3  -5 1610.59   50.21
   1  -3  -5 1658.51   50.04
  -1   3   5 1592.76   49.48
   0  -3  -5 1301.45   40.27
   0  -3  -5 1292.28   40.27
   0   3   5 1276.21   40.01
  -1  -3  -5 3159.46   93.25
  -1  -3  -5 3075.84   93.34
   1   3   5 3120.81   92.41
   1   3   5 2940.12   93.26
  -2  -3  -5 2937.60   86.57
   2   3   5 2777.58   86.72
   2   3   5 2809.02   85.75
   3   3   5  737.96   23.51
   3   3   5  728.85   24.46
   4   3   5   44.41    4.96
   4   3   5   56.55    5.29
   6  -4  -5  291.68   14.67
  -6   4   5  269.27   10.71
  -6   4   5  265.99    9.99
   5  -4  -5  335.15   14.67
  -5   4   5  328.75   11.38
  -5   4   5  328.54   11.64
   4  -4  -5 1049.23   34.47
  -4   4   5 1012.85   31.84
  -4   4   5 1014.85   31.67
   3  -4  -5 3043.25   91.36
  -3   4   5 2933.62   88.68
  -3   4   5 2900.89   89.18
   2  -4  -5 2781.24   83.44
  -2   4   5 2630.73   81.67
   1  -4  -5  836.66   27.19
  -1   4   5  810.64   26.00
   0  -4  -5   18.36    2.89
   0   4   5   17.44    2.43
  -1  -4  -5  372.35   13.18
   1   4   5  318.82   12.47
  -2  -4  -5 1268.50   39.15
   2   4   5 1155.17   38.56
   2   4   5 1225.70   37.39
   3   4   5 1291.98   39.60
   3   4   5 1269.01   40.87
   4   4   5  795.36   27.01
   4   4   5  808.32   26.25
   6  -5  -5  357.43   17.38
  -6   5   5  353.68   12.74
  -6   5   5  351.91   13.32
   5  -5  -5  169.53   10.86
  -5   5   5  158.04    6.81
  -5   5   5  150.10    7.00
   4  -5  -5    6.43    3.86
  -4   5   5   10.04    2.03
  -4   5   5    8.19    1.70
   3  -5  -5  316.86   13.57
  -3   5   5  312.55   11.03
   2  -5  -5  875.31   29.47
  -2   5   5  856.61   27.30
   1  -5  -5  906.56   30.28
  -1   5   5  901.57   28.57
   0  -5  -5 1663.14   52.63
   0   5   5 1663.56   51.30
  -1  -5  -5 1840.23   58.65
   1   5   5 1899.38   57.79
  -2  -5  -5  738.70   24.97
   2   5   5  696.94   24.02
   3   5   5   44.37    5.33
   4  -6  -5 1026.68   35.10
  -4   6   5  972.48   31.52
   3  -6  -5 1252.64   40.58
  -3   6   5 1152.12   37.43
   2  -6  -5  454.41   17.84
  -2   6   5  446.99   15.28
   1  -6  -5   16.94    3.89
  -1   6   5   15.31    2.41
   0  -6  -5  111.54    7.82
   0   6   5  106.99    5.89
  -1  -6  -5  576.34   21.17
   1   6   5  571.84   19.53
  -2  -6  -5  930.91   31.61
   2   6   5  912.90   30.23
   2  -7  -5  451.68   19.01
  -2   7   5  444.24   15.62
   1  -7  -5  696.01   25.18
  -1   7   5  644.31   22.08
   0  -7  -5  860.33   29.98
   0   7   5  818.84   27.27
   3   7  -6 1042.83   33.49
  -3  -7   6 1047.46   33.82
   2   7  -6  377.08   14.16
  -2  -7   6  408.96   15.09
   1   7  -6   38.98    4.50
  -1  -7   6   46.41    5.94
   0   7  -6    5.18    2.26
   0   7  -6    5.89    2.31
   0  -7   6   10.75    3.87
   0  -7   6    9.43    3.48
  -1   7  -6  265.18   10.82
  -1   7  -6  277.97   10.65
   1  -7   6  267.39   11.40
   1  -7   6  278.65   13.15
   4   6  -6   47.40    4.34
  -4  -6   6   45.35    5.09
   3   6  -6 1119.75   36.04
  -3  -6   6 1166.09   36.65
   2   6  -6 1288.50   40.73
  -2  -6   6 1317.16   41.46
   1   6  -6  837.82   27.39
   1   6  -6  869.98   26.62
  -1  -6   6  853.48   28.51
   0   6  -6  939.21   29.27
   0   6  -6  865.01   28.67
   0  -6   6  907.12   30.55
   0  -6   6  939.56   29.50
  -1   6  -6  902.29   29.54
  -1   6  -6  909.16   29.31
   1  -6   6  928.89   31.12
   1  -6   6  936.29   29.47
  -2   6  -6  308.04   11.82
  -2   6  -6  296.66   11.75
   2  -6   6  314.67   13.70
   5   5  -6  969.78   31.21
  -5  -5   6  987.38   31.56
   4   5  -6 2035.99   62.99
  -4  -5   6 2072.90   63.40
   3   5  -6  958.29   30.55
  -3  -5   6  969.70   31.04
   2   5  -6   93.63    4.84
  -2  -5   6   89.91    5.85
   1   5  -6    3.06    1.76
   1   5  -6    3.87    1.70
   0   5  -6  538.01   17.94
   0   5  -6  540.76   17.39
   0  -5   6  522.64   17.63
   0  -5   6  530.83   19.09
  -1   5  -6 1619.73   50.65
  -1   5  -6 1614.59   50.33
   1  -5   6 1692.00   51.95
   1  -5   6 1610.59   49.97
  -2   5  -6 1140.24   35.70
  -2   5  -6 1107.72   35.91
   2  -5   6 1138.49   37.23
  -3   5  -6  565.89   19.28
  -3   5  -6  537.83   19.50
   3  -5   6  557.34   20.94
   6   4  -6  186.00    7.89
   6   4  -6  180.89   10.91
  -6  -4   6  183.29    8.47
   5   4  -6   11.04    3.69
   5   4  -6   15.12    2.12
  -5  -4   6   16.87    2.76
   4   4  -6 1604.13   50.01
  -4  -4   6 1641.90   50.41
   3   4  -6 2491.77   76.50
  -3  -4   6 2544.03   76.98
   2   4  -6 1556.86   48.50
  -2  -4   6 1592.00   49.17
   1   4  -6 1716.24   51.40
   1   4  -6 1730.80   52.00
  -1  -4   6 1618.10   52.70
   0   4  -6 2306.08   69.77
   0   4  -6 2279.23   70.18
   0  -4   6 2314.77   71.15
  -1   4  -6 1076.36   34.48
  -1   4  -6 1091.69   34.16
   1  -4   6 1096.95   35.44
  -2   4  -6    2.53    2.28
  -2   4  -6   -1.63    2.23
   2  -4   6    5.84    2.95
  -3   4  -6  237.93   10.25
  -3   4  -6  248.06   10.30
   3  -4   6  244.53   11.57
  -4   4  -6  427.53   16.19
  -4   4  -6  414.95   15.45
   4  -4   6  426.55   17.28
   6   3  -6  920.63   29.09
   6   3  -6  909.21   31.81
  -6  -3   6  905.72   29.49
   5   3  -6 2428.65   76.25
   5   3  -6 2471.10   74.19
  -5  -3   6 2409.82   74.41
   4   3  -6 1779.12   54.26
   4   3  -6 1750.55   55.72
  -4  -3   6 1774.30   54.55
   3   3  -6  218.81    8.39
  -3  -3   6  221.94    8.77
   2   3  -6    3.48    1.45
  -2  -3   6    2.06    1.83
  -2  -3   6    4.04    1.27
   1   3  -6  750.73   23.79
   1   3  -6  744.59   23.29
  -1  -3   6  721.47   24.37
   0   3  -6 3189.56   96.67
   0   3  -6 3142.76   97.01
   0  -3   6 3277.77   97.72
  -1   3  -6 2717.09   81.96
  -1   3  -6 2690.17   82.31
   1  -3   6 2688.18   82.90
  -2   3  -6 1319.47   42.02
  -2   3  -6 1344.42   41.85
   2  -3   6 1339.34   42.82
  -3   3  -6  793.40   26.63
  -3   3  -6  832.04   26.53
   3  -3   6  798.63   27.46
  -4   3  -6  415.01   15.56
  -4   3  -6  398.43   14.99
   4  -3   6  404.22   16.25
   7   2  -6  144.99   10.70
   7   2  -6  156.18    7.27
  -7  -2   6  155.63    7.68
   6   2  -6   12.99    4.05
   6   2  -6    1.08    1.99
  -6  -2   6    5.00    2.21
   5   2  -6 1297.88   42.65
   5   2  -6 1334.67   40.85
  -5  -2   6 1310.28   41.02
   4   2  -6 3162.17   93.00
   4   2  -6 2973.63   94.11
  -4  -2   6 3083.48   93.11
   3   2  -6 2329.06   72.00
   3   2  -6 2377.50   71.46
  -3  -2   6 2343.02   71.58
   2   2  -6 2181.58   65.33
   2   2  -6 2114.04   65.37
  -2  -2   6 2159.83   65.66
  -2  -2   6 2124.23   64.59
   1   2  -6 3643.92  111.37
   1   2  -6 3756.88  110.82
   1   2  -6 3707.34  110.52
  -1  -2   6 3651.53  111.71
   0   2  -6 2778.83   84.53
   0   2  -6 2772.47   84.90
   0  -2   6 2818.42   85.12
  -1   2  -6   27.98    3.63
   1  -2   6   30.25    4.20
  -2   2  -6  570.01   18.83
  -2   2  -6  543.82   18.81
   2  -2   6  535.87   19.30
  -3   2  -6  855.45   28.36
  -3   2  -6  887.61   28.09
   3  -2   6  852.23   28.80
  -4   2  -6 1058.43   35.18
  -4   2  -6 1102.23   34.65
   4  -2   6 1071.42   35.53
   7   1  -6  639.67   23.78
   7   1  -6  568.42   20.14
  -7  -1   6  614.96   20.60
   6   1  -6 1910.34   56.20
   6   1  -6 1872.30   58.71
  -6  -1   6 1824.35   56.37
  -6  -1   6 1699.84   54.92
   5   1  -6 1996.64   62.30
   5   1  -6 1998.45   60.51
  -5  -1   6 1971.60   60.56
  -5  -1   6 1939.44   59.30
   4   1  -6  379.74   14.28
   4   1  -6  382.84   13.20
  -4  -1   6  385.72   12.03
  -4  -1   6  384.27   13.18
   3   1  -6    6.33    1.87
  -3  -1   6    3.08    1.49
  -3  -1   6    2.56    0.94
   2   1  -6  713.06   23.91
   2   1  -6  743.32   23.54
  -2  -1   6  765.97   23.14
  -2  -1   6  752.51   23.83
   1   1  -6 3679.03  115.16
  -1  -1   6 3803.53  115.08
  -1  -1   6 3950.36  114.54
   0   1  -6 4425.71  136.42
   0   1  -6 4574.33  136.00
   0  -1   6 4575.47  136.41
  -1   1  -6 2528.49   76.90
  -1   1  -6 2348.11   76.74
   1  -1   6 2672.78   77.16
  -2   1  -6 1335.69   40.71
  -2   1  -6 1290.74   40.86
   2  -1   6 1247.99   40.87
  -3   1  -6  866.03   29.17
  -3   1  -6  922.59   29.00
   3  -1   6  874.49   29.21
  -4   1  -6  235.77   10.78
  -4   1  -6  223.44    9.95
   4  -1   6  225.07   10.39
   7   0  -6    1.81    4.25
  -7   0   6    4.86    2.08
  -7   0   6    3.12    2.34
   6   0  -6  686.36   22.07
   6   0  -6  677.83   24.29
  -6   0   6  649.82   21.66
  -6   0   6  633.12   20.60
   5   0  -6 2382.15   71.97
   5   0  -6 2399.67   73.52
  -5   0   6 2342.22   71.59
  -5   0   6 2285.24   70.62
   4   0  -6 2491.10   75.20
   4   0  -6 2486.65   75.86
  -4   0   6 2458.86   73.86
  -4   0   6 2410.29   74.61
   3   0  -6 1863.36   58.97
   3   0  -6 1902.21   59.12
  -3   0   6 1980.28   57.92
  -3   0   6 1936.81   58.49
   2   0  -6 3671.38  110.38
   2   0  -6 3579.36  109.77
  -2   0   6 3636.29  109.81
  -2   0   6 3707.22  109.45
   1   0  -6 3945.56  122.35
   1   0  -6 4294.39  123.65
  -1   0   6 4010.86  123.12
  -1   0   6 4114.40  122.87
   0   0   6  173.25    6.87
   0   0   6  152.14    6.70
  -1   0  -6  836.66   27.19
  -1   0  -6  857.52   27.40
   1   0   6  841.09   27.19
  -2   0  -6 1248.23   39.41
  -2   0  -6 1228.23   39.22
   2   0   6 1237.84   39.13
  -3   0  -6 1706.84   52.07
  -3   0  -6 1570.34   51.33
   3   0   6 1665.61   51.55
  -4   0  -6 1559.78   49.68
  -4   0  -6 1610.28   50.72
   4   0   6 1587.51   50.07
   7  -1  -6  903.33   31.79
  -7   1   6  843.15   27.37
  -7   1   6  886.39   28.47
   6  -1  -6 1324.02   43.80
   6  -1  -6 1290.77   41.15
  -6   1   6 1335.99   40.46
  -6   1   6 1344.37   41.32
   5  -1  -6  428.79   16.54
   5  -1  -6  437.51   14.95
  -5   1   6  426.57   13.81
  -5   1   6  420.12   14.46
   4  -1  -6    2.61    2.28
   4  -1  -6    4.99    1.82
  -4   1   6    4.75    1.56
  -4   1   6    5.13    1.17
   3  -1  -6  502.33   17.65
   3  -1  -6  534.37   17.60
  -3   1   6  530.36   16.48
  -3   1   6  503.93   16.68
   2  -1  -6 2812.81   86.64
   2  -1  -6 2843.99   86.32
  -2   1   6 2909.79   85.83
  -2   1   6 2825.17   85.85
   1  -1  -6 4728.42  139.46
   1  -1  -6 4695.24  138.52
  -1   1   6 4585.12  138.77
  -1   1   6 4485.63  138.64
   0  -1  -6 3194.28  105.74
   0   1   6 3650.52  105.26
   0   1   6 3621.18  105.43
  -1  -1  -6 1442.26   46.57
   1   1   6 1533.64   46.39
   1   1   6 1490.51   46.08
  -2  -1  -6 1146.27   37.91
  -2  -1  -6 1228.64   38.02
   2   1   6 1201.28   37.56
  -3  -1  -6  590.04   20.36
  -3  -1  -6  606.07   20.61
   3   1   6  575.56   20.01
  -4  -1  -6   44.74    6.20
  -4  -1  -6   51.10    5.03
   7  -2  -6  231.11   13.59
  -7   2   6  229.50    9.52
  -7   2   6  224.58    8.55
   6  -2  -6 1105.79   37.37
  -6   2   6 1093.96   34.41
  -6   2   6 1077.61   33.75
   5  -2  -6 1659.08   52.23
   5  -2  -6 1745.09   54.56
  -5   2   6 1693.70   52.09
  -5   2   6 1701.64   51.68
   4  -2  -6 1331.57   42.07
   4  -2  -6 1238.85   40.90
  -4   2   6 1321.72   40.05
  -4   2   6 1342.44   40.25
   3  -2  -6 2265.75   67.22
   3  -2  -6 2078.27   66.74
  -3   2   6 2197.31   65.71
  -3   2   6 2157.82   65.80
   2  -2  -6 3546.55  104.18
   2  -2  -6 3238.44  104.25
  -2   2   6 3540.30  103.46
  -2   2   6 3425.58  103.12
   1  -2  -6  337.49   11.40
  -1   2   6  314.47   10.77
  -1   2   6  314.36   11.37
   0  -2  -6  762.64   23.74
   0   2   6  736.19   24.28
   0   2   6  751.03   23.67
  -1  -2  -6 1277.67   38.10
  -1  -2  -6 1194.00   39.21
   1   2   6 1236.56   38.93
   1   2   6 1229.58   38.28
  -2  -2  -6 1665.18   53.02
   2   2   6 1726.89   52.99
   2   2   6 1701.87   52.35
  -3  -2  -6 2107.37   65.20
   3   2   6 2086.80   65.22
   3   2   6 2118.00   64.73
   4   2   6 1031.49   33.28
   6  -3  -6  288.61   14.06
  -6   3   6  281.57   10.24
  -6   3   6  294.73   10.96
   5  -3  -6    4.81    1.69
   5  -3  -6   -1.43    3.18
  -5   3   6    0.65    1.54
  -5   3   6    5.43    2.05
   4  -3  -6  246.86    9.19
   4  -3  -6  241.80   10.90
  -4   3   6  232.19    8.59
  -4   3   6  241.19    8.72
   3  -3  -6 1337.72   42.27
   3  -3  -6 1329.63   41.44
  -3   3   6 1341.29   40.37
  -3   3   6 1285.09   40.65
   2  -3  -6 3256.09   98.51
   2  -3  -6 3392.85   98.82
  -2   3   6 3183.68   96.96
  -2   3   6 3121.80   97.61
   1  -3  -6 3177.76   96.38
   1  -3  -6 3201.18   96.76
  -1   3   6 3209.29   95.09
  -1   3   6 3110.95   95.99
   0  -3  -6 1331.11   41.40
   0  -3  -6 1325.93   40.73
   0   3   6 1325.64   39.81
   0   3   6 1237.93   40.78
  -1  -3  -6 1032.12   31.96
  -1  -3  -6  983.29   32.58
   1   3   6 1026.24   31.40
   1   3   6  996.60   32.45
  -2  -3  -6  779.94   25.19
   2   3   6  764.16   24.80
   2   3   6  776.95   25.71
   3   3   6    9.36    3.12
   3   3   6   10.74    2.73
   6  -4  -6  775.17   28.46
  -6   4   6  766.12   24.97
  -6   4   6  747.48   24.43
   5  -4  -6  717.05   25.71
  -5   4   6  675.81   22.74
  -5   4   6  722.02   22.66
   4  -4  -6 1034.04   34.01
  -4   4   6 1004.05   31.64
  -4   4   6  998.28   31.34
   3  -4  -6 1790.66   54.97
   3  -4  -6 1812.93   56.50
  -3   4   6 1752.78   54.60
   2  -4  -6  335.17   12.50
   2  -4  -6  349.35   13.47
  -2   4   6  339.86   12.01
   1  -4  -6  338.62   12.91
   1  -4  -6  374.89   13.68
  -1   4   6  332.62   12.38
   0  -4  -6  869.81   28.33
   0   4   6  859.56   27.96
  -1  -4  -6 1086.61   35.70
   1   4   6 1148.48   35.85
  -2  -4  -6 1837.48   56.69
   2   4   6 1796.00   56.84
   3   4   6 1110.63   36.23
   5  -5  -6  101.60    9.00
  -5   5   6   81.52    5.26
   4  -5  -6  487.19   19.08
  -4   5   6  478.10   16.30
   3  -5  -6 1414.38   45.11
  -3   5   6 1350.53   42.85
   2  -5  -6 1792.98   56.01
  -2   5   6 1730.93   54.18
   1  -5  -6  940.07   31.26
  -1   5   6  930.68   29.90
   0  -5  -6  618.59   21.63
   0   5   6  614.45   20.78
  -1  -5  -6  568.33   20.07
   1   5   6  550.70   19.55
  -2  -5  -6    4.49    3.54
   2   5   6    0.30    3.07
   4  -6  -6  607.70   23.55
  -4   6   6  581.03   19.87
   3  -6  -6  187.57   10.92
  -3   6   6  185.22    8.12
   2  -6  -6   89.04    7.92
  -2   6   6   78.80    5.37
   1  -6  -6  426.72   16.68
  -1   6   6  402.38   14.80
   0  -6  -6  642.44   23.04
   0   6   6  636.65   21.69
   4   6  -7  821.48   27.13
  -4  -6   7  828.23   27.70
   3   6  -7 1452.45   45.99
  -3  -6   7 1481.77   46.74
   2   6  -7  894.58   29.38
  -2  -6   7  921.07   30.42
   1   6  -7  298.54   11.57
  -1  -6   7  295.22   12.91
   0   6  -7  209.23    9.16
   0   6  -7  205.93    8.72
   0  -6   7  214.04   10.86
  -1   6  -7   12.02    2.95
  -1   6  -7    8.92    2.78
   1  -6   7    9.64    4.54
   5   5  -7  359.41   13.39
   5   5  -7  356.84   15.64
  -5  -5   7  363.14   13.90
   4   5  -7  452.23   15.90
  -4  -5   7  450.62   16.46
   3   5  -7   32.60    3.90
  -3  -5   7   27.64    3.86
   2   5  -7  416.37   14.70
  -2  -5   7  411.20   15.59
   1   5  -7 1002.07   30.61
   1   5  -7  970.53   31.24
  -1  -5   7  948.39   32.19
   0   5  -7 1341.96   41.97
   0   5  -7 1330.55   41.42
   0  -5   7 1317.23   42.94
  -1   5  -7 1710.81   53.59
  -1   5  -7 1714.78   53.20
   1  -5   7 1721.59   54.56
  -2   5  -7  793.21   26.14
  -2   5  -7  769.46   26.37
   2  -5   7  791.88   27.47
   6   4  -7  390.84   17.01
   6   4  -7  389.48   14.16
  -6  -4   7  388.55   14.83
   5   4  -7  999.49   31.87
   5   4  -7  993.10   33.82
  -5  -4   7  994.05   32.27
   4   4  -7 2121.07   67.67
   4   4  -7 2184.79   66.48
  -4  -4   7 2187.64   66.86
   3   4  -7 1971.48   60.53
  -3  -4   7 1959.22   61.01
   2   4  -7  599.88   19.98
  -2  -4   7  582.35   20.67
  -2  -4   7  611.33   18.91
   1   4  -7  410.12   14.57
   1   4  -7  409.87   13.93
  -1  -4   7  414.91   15.45
   0   4  -7   77.17    5.44
   0   4  -7   88.15    5.48
   0  -4   7   82.77    6.16
  -1   4  -7  283.34   11.11
  -1   4  -7  288.02   11.48
   1  -4   7  292.31   12.18
  -2   4  -7  823.55   27.93
  -2   4  -7  854.51   27.73
   2  -4   7  849.78   28.76
  -3   4  -7  920.87   29.99
  -3   4  -7  917.98   30.44
   3  -4   7  903.20   31.44
   6   3  -7  412.99   16.17
   6   3  -7  356.21   13.53
  -6  -3   7  359.22   13.98
   5   3  -7  588.94   19.81
   5   3  -7  599.10   21.58
  -5  -3   7  585.90   20.12
   4   3  -7  163.27    8.62
   4   3  -7  166.85    7.37
  -4  -3   7  163.04    7.46
   3   3  -7  544.32   18.76
   3   3  -7  546.42   18.43
  -3  -3   7  543.95   18.77
   2   3  -7 1701.87   52.88
   2   3  -7 1748.79   52.68
  -2  -3   7 1632.31   53.26
  -2  -3   7 1750.33   51.87
   1   3  -7 2111.62   65.43
   1   3  -7 2142.37   64.65
  -1  -3   7 2128.85   65.98
   0   3  -7 3404.97  104.40
   0   3  -7 3394.78  103.92
   0  -3   7 3502.10  104.88
  -1   3  -7 1927.13   61.52
  -1   3  -7 1987.33   61.11
   1  -3   7 2026.45   61.90
  -2   3  -7  238.73   10.27
  -2   3  -7  243.03   10.17
   2  -3   7  237.63   10.87
  -3   3  -7   90.75    6.14
  -3   3  -7   92.29    7.25
   3  -3   7   87.97    7.51
   6   2  -7  862.79   28.42
   6   2  -7  891.58   30.57
  -6  -2   7  877.42   28.61
   5   2  -7 2063.38   63.83
   5   2  -7 2071.18   65.30
  -5  -2   7 2095.42   63.96
   4   2  -7 2626.11   80.41
   4   2  -7 2599.20   79.58
  -4  -2   7 2553.58   78.01
  -4  -2   7 2659.11   79.70
   3   2  -7 1025.41   33.82
   3   2  -7 1046.84   33.89
  -3  -2   7 1093.01   34.07
  -3  -2   7 1106.23   32.57
   2   2  -7  524.47   18.09
   2   2  -7  535.82   17.46
  -2  -2   7  556.32   17.19
  -2  -2   7  517.78   18.27
   1   2  -7  187.90    8.30
  -1  -2   7  201.69    8.74
   0   2  -7  292.42   11.16
   0   2  -7  302.59   11.87
   0  -2   7  317.54   12.03
  -1   2  -7 1514.21   46.83
  -1   2  -7 1474.15   46.83
   1  -2   7 1488.14   47.17
  -2   2  -7 1930.78   59.57
  -2   2  -7 1935.39   59.74
   2  -2   7 1889.66   60.09
  -3   2  -7 1763.14   53.75
  -3   2  -7 1718.10   54.33
   3  -2   7 1679.64   54.60
   7   1  -7  292.44   14.74
   7   1  -7  297.16   11.56
  -7  -1   7  280.76   11.65
   6   1  -7  445.33   15.78
   6   1  -7  434.58   17.56
  -6  -1   7  439.00   15.59
   5   1  -7  275.28   10.67
   5   1  -7  274.32   12.03
  -5  -1   7  277.65   10.39
  -5  -1   7  259.56    8.92
   4   1  -7  336.75   13.29
   4   1  -7  350.60   12.89
  -4  -1   7  358.22   11.32
  -4  -1   7  357.97   12.67
   3   1  -7 1984.66   63.87
   3   1  -7 2116.59   63.81
  -3  -1   7 2125.58   62.65
  -3  -1   7 2077.65   63.66
   2   1  -7 2550.09   75.95
   2   1  -7 2504.50   76.94
  -2  -1   7 2501.30   75.83
  -2  -1   7 2484.36   76.66
   1   1  -7 4271.33  135.78
  -1  -1   7 4494.53  135.75
  -1  -1   7 4721.13  135.16
   0   1  -7 3397.70  104.97
   0   1  -7 3462.86  104.48
   0  -1   7 3503.50  104.97
  -1   1  -7  472.85   16.57
  -1   1  -7  473.34   16.60
   1  -1   7  466.73   16.72
  -2   1  -7  151.03    7.83
  -2   1  -7  169.71    8.27
   2  -1   7  179.55    8.48
  -3   1  -7   74.81    6.76
  -3   1  -7   75.99    5.91
   3  -1   7   83.03    6.35
  -4   1  -7  179.58    8.99
  -4   1  -7  171.15   10.54
   4  -1   7  173.51    9.88
   7   0  -7  582.06   22.79
  -7   0   7  560.17   19.69
   6   0  -7 1334.85   44.09
   6   0  -7 1412.12   42.58
  -6   0   7 1332.15   42.10
  -6   0   7 1283.25   40.82
   5   0  -7 2194.88   66.53
   5   0  -7 2123.33   67.35
  -5   0   7 2118.44   64.86
  -5   0   7 2178.18   65.99
   4   0  -7 1102.77   39.14
   4   0  -7 1247.62   39.18
  -4   0   7 1280.39   38.54
  -4   0   7 1300.80   37.67
   3   0  -7  563.19   18.81
   3   0  -7  556.99   18.46
  -3   0   7  573.04   17.48
  -3   0   7  494.97   17.99
   2   0  -7  190.09    7.38
   2   0  -7  194.15    8.33
  -2   0   7  181.83    7.61
  -2   0   7  191.75    7.24
   1   0  -7  199.65    8.61
  -1   0   7  208.89    7.97
  -1   0   7  195.82    8.08
   0   0  -7 1615.82   51.06
   0   0   7 1635.76   50.65
   0   0   7 1663.70   50.81
  -1   0  -7 2864.13   86.92
  -1   0  -7 2838.33   87.10
   1   0   7 2843.78   86.91
  -2   0  -7 2919.12   88.08
  -2   0  -7 2919.62   88.13
   2   0   7 2782.29   87.96
  -3   0  -7 1535.35   48.38
  -3   0  -7 1557.20   48.79
   3   0   7 1493.66   48.36
  -4   0  -7  348.29   15.09
  -4   0  -7  344.24   13.78
   4   0   7  347.92   14.25
   7  -1  -7  235.81   13.30
  -7   1   7  191.28    8.16
  -7   1   7  214.83    9.40
   6  -1  -7  203.25    8.96
   6  -1  -7  200.11   11.03
  -6   1   7  206.81    8.56
  -6   1   7  206.25    7.66
   5  -1  -7   98.15    7.34
   5  -1  -7  116.15    6.31
  -5   1   7  100.06    5.41
  -5   1   7  102.48    4.74
   4  -1  -7 1510.03   45.07
   4  -1  -7 1378.10   44.35
  -4   1   7 1463.64   43.71
  -4   1   7 1299.58   43.07
   3  -1  -7 2302.18   70.03
   3  -1  -7 2225.57   69.82
  -3   1   7 2262.71   69.17
  -3   1   7 2314.96   68.93
   2  -1  -7 3913.18  116.81
   2  -1  -7 4072.29  117.64
  -2   1   7 3866.38  116.73
  -2   1   7 3653.02  116.57
   1  -1  -7 3687.77  110.05
   1  -1  -7 3593.02  108.71
  -1   1   7 3611.60  109.37
  -1   1   7 3595.55  109.26
   0  -1  -7  809.51   26.29
   0   1   7  782.12   25.60
   0   1   7  773.04   25.27
  -1  -1  -7  222.42    9.90
   1   1   7  249.25    9.38
   1   1   7  224.03    9.50
  -2  -1  -7  107.48    6.70
   2   1   7  132.59    6.89
   2   1   7  106.72    6.48
  -3  -1  -7  161.46    8.58
  -3  -1  -7  178.47    9.04
   3   1   7  162.90    8.23
   6  -2  -7 1174.40   38.28
   6  -2  -7 1073.05   35.19
  -6   2   7 1104.39   34.68
  -6   2   7 1127.00   35.40
   5  -2  -7 1003.31   32.74
   5  -2  -7  914.17   31.12
  -5   2   7  977.31   30.68
  -5   2   7  982.11   30.20
   4  -2  -7  490.03   17.70
   4  -2  -7  435.39   17.06
  -4   2   7  504.53   15.97
  -4   2   7  485.56   15.76
   3  -2  -7  112.55    6.25
   3  -2  -7   95.12    6.28
  -3   2   7   95.98    4.94
  -3   2   7  101.28    4.78
   2  -2  -7   90.59    5.22
   2  -2  -7   81.22    5.76
  -2   2   7   87.74    4.42
  -2   2   7   90.48    4.81
   1  -2  -7  991.77   32.30
   1  -2  -7 1036.69   31.19
  -1   2   7  974.06   30.93
  -1   2   7  963.84   31.48
   0  -2  -7 2560.12   82.74
   0  -2  -7 2703.84   81.36
   0   2   7 2747.24   82.35
   0   2   7 2767.73   81.67
  -1  -2  -7 3040.49   97.15
   1   2   7 3205.36   96.06
   1   2   7 3275.50   96.82
  -2  -2  -7 1706.19   55.21
   2   2   7 1768.03   54.39
   2   2   7 1789.94   54.96
  -3  -2  -7  445.74   17.08
   3   2   7  477.99   16.91
   3   2   7  468.19   17.00
   6  -3  -7   20.46    4.92
  -6   3   7   13.00    2.78
  -6   3   7   13.22    2.29
   5  -3  -7  661.94   23.56
   5  -3  -7  621.56   21.40
  -5   3   7  646.55   21.10
  -5   3   7  650.96   20.85
   4  -3  -7 1399.53   44.70
   4  -3  -7 1385.62   45.63
  -4   3   7 1445.91   43.72
  -4   3   7 1452.69   43.87
   3  -3  -7 2127.22   68.92
   3  -3  -7 2293.38   69.32
  -3   3   7 2265.72   67.55
  -3   3   7 2243.46   68.02
   2  -3  -7 2466.85   73.46
   2  -3  -7 2267.32   73.65
  -2   3   7 2425.50   72.03
  -2   3   7 2391.27   72.78
   1  -3  -7  853.84   28.81
   1  -3  -7  898.35   28.06
  -1   3   7  855.01   27.97
  -1   3   7  859.72   26.93
   0  -3  -7  246.20   10.71
   0  -3  -7  254.11    9.76
   0   3   7  259.84    9.08
   0   3   7  245.72   10.16
  -1  -3  -7   79.86    6.06
  -1  -3  -7   91.12    5.28
   1   3   7   79.26    6.00
   1   3   7   75.59    4.66
  -2  -3  -7   97.11    6.95
   2   3   7  118.22    6.11
   2   3   7  103.13    6.77
   5  -4  -7  325.02   14.35
  -5   4   7  317.92   11.60
  -5   4   7  319.82   11.66
   4  -4  -7   48.80    6.41
   4  -4  -7   45.57    4.84
  -4   4   7   41.46    3.55
  -4   4   7   46.41    4.02
   3  -4  -7   39.85    5.98
   3  -4  -7   37.02    4.68
  -3   4   7   32.94    3.70
   2  -4  -7  395.48   14.99
   2  -4  -7  407.44   15.36
  -2   4   7  420.00   14.41
   1  -4  -7 1692.37   52.67
   1  -4  -7 1678.20   52.95
  -1   4   7 1679.18   52.30
   0  -4  -7 2540.91   76.91
   0  -4  -7 2498.16   76.10
   0   4   7 2397.55   76.18
  -1  -4  -7 1416.40   45.41
   1   4   7 1475.64   46.01
   2   4   7  483.16   17.92
   4  -5  -7 1028.72   34.25
  -4   5   7  951.49   31.49
   3  -5  -7 1105.19   36.26
  -3   5   7 1062.34   34.33
   2  -5  -7  633.61   22.33
  -2   5   7  628.49   21.18
   1  -5  -7  226.63   10.47
  -1   5   7  218.13    9.53
   0  -5  -7   34.43    5.82
   0   5   7   34.63    4.00
  -1  -5  -7   55.50    6.66
   1   5   7   53.45    6.61
   2   6  -8  326.89   12.82
  -2  -6   8  308.09   14.07
   1   6  -8    2.60    2.84
  -1  -6   8    6.58    4.32
   4   5  -8   59.46    5.53
   4   5  -8   72.19    6.75
  -4  -5   8   63.43    7.06
   3   5  -8  513.54   18.13
  -3  -5   8  512.83   18.99
   2   5  -8 1449.35   44.98
  -2  -5   8 1391.43   45.78
   1   5  -8 1713.30   54.53
   1   5  -8 1783.09   53.63
  -1  -5   8 1732.11   55.48
   0   5  -8  918.18   30.47
   0   5  -8  927.83   29.90
   0  -5   8  921.12   31.29
  -1   5  -8  172.68    9.07
  -1   5  -8  170.14    8.67
   1  -5   8  162.97   10.15
   5   4  -8 1011.79   33.94
   5   4  -8  997.27   32.51
  -5  -4   8  995.36   32.94
   4   4  -8 1225.99   38.90
   4   4  -8 1207.86   39.70
  -4  -4   8 1222.20   39.35
   3   4  -8  780.05   25.46
   3   4  -8  764.27   25.90
  -3  -4   8  751.38   26.00
   2   4  -8   15.35    2.87
   2   4  -8   21.79    2.95
  -2  -4   8   14.19    2.26
  -2  -4   8   10.32    3.31
   1   4  -8  129.87    6.20
   1   4  -8  128.75    7.18
  -1  -4   8  127.71    7.82
   0   4  -8  171.48    8.19
   0   4  -8  159.49    8.34
   0  -4   8  169.54    8.87
  -1   4  -8  660.22   21.82
  -1   4  -8  626.83   22.31
   1  -4   8  623.96   22.62
  -2   4  -8 1307.58   43.42
  -2   4  -8 1436.19   43.78
   2  -4   8 1337.81   44.39
   5   3  -8   92.18    5.86
   5   3  -8   80.66    6.73
  -5  -3   8   72.20    5.87
   4   3  -8  476.55   17.70
   4   3  -8  492.20   17.14
  -4  -3   8  483.73   17.44
   3   3  -8 2047.84   63.92
   3   3  -8 2079.56   64.17
  -3  -3   8 2094.58   64.55
  -3  -3   8 2069.68   62.50
   2   3  -8 3336.35   99.91
   2   3  -8 3207.54   98.83
  -2  -3   8 3390.54   98.60
  -2  -3   8 3158.23  100.11
   1   3  -8 1807.40   57.62
  -1  -3   8 1887.29   58.06
   0   3  -8  291.29   12.05
   0   3  -8  303.10   11.46
   0  -3   8  298.58   12.33
  -1   3  -8   33.22    4.73
  -1   3  -8   21.43    3.35
   1  -3   8   30.19    3.96
  -2   3  -8   32.44    4.20
  -2   3  -8   23.31    3.45
   2  -3   8   30.26    4.41
   6   2  -8 1027.98   33.46
   6   2  -8 1033.91   35.12
  -6  -2   8 1030.97   33.57
   5   2  -8 1215.04   40.04
   5   2  -8 1238.74   39.12
  -5  -2   8 1224.30   39.12
   4   2  -8 1160.09   36.83
   4   2  -8 1130.02   36.45
  -4  -2   8 1096.19   34.59
  -4  -2   8 1169.07   36.49
   3   2  -8   81.43    5.33
   3   2  -8   82.14    5.54
  -3  -2   8   84.16    4.28
  -3  -2   8   75.09    5.55
   2   2  -8  214.99    8.21
   2   2  -8  219.39    9.49
  -2  -2   8  212.22    9.64
  -2  -2   8  225.86    8.29
   1   2  -8  212.14    9.49
  -1  -2   8  221.62    8.76
  -1  -2   8  215.81    9.70
   0   2  -8  748.33   25.48
   0   2  -8  757.16   24.83
   0  -2   8  782.22   25.66
  -1   2  -8 2611.67   80.69
  -1   2  -8 2682.20   80.61
   1  -2   8 2576.31   80.87
  -2   2  -8 2104.29   66.11
  -2   2  -8 2182.40   66.64
   2  -2   8 2110.18   66.67
  -3   2  -8  621.29   22.71
  -3   2  -8  633.61   21.65
   3  -2   8  591.19   22.52
   6   1  -8   89.05    7.90
   6   1  -8   91.86    6.77
  -6  -1   8   80.71    5.92
   5   1  -8  311.62   12.28
   5   1  -8  311.50   13.11
  -5  -1   8  306.30   11.77
  -5  -1   8  291.11   10.06
   4   1  -8 1853.63   58.09
   4   1  -8 1875.95   58.16
  -4  -1   8 1877.68   57.72
  -4  -1   8 1843.19   56.33
   3   1  -8 4235.96  129.30
   3   1  -8 4216.12  128.43
  -3  -1   8 4209.07  128.88
  -3  -1   8 4374.40  127.78
   2   1  -8 2636.92   79.09
   2   1  -8 2548.67   80.38
  -2  -1   8 2690.51   79.33
  -2  -1   8 2588.75   80.18
   1   1  -8  380.10   14.42
  -1  -1   8  407.79   14.57
  -1  -1   8  389.53   13.69
   0   1  -8   80.52    5.53
   0  -1   8   91.88    5.45
   0  -1   8   89.13    5.93
  -1   1  -8    6.41    2.42
  -1   1  -8   11.99    2.73
  -2   1  -8  533.41   18.99
  -2   1  -8  543.94   19.31
   2  -1   8  523.97   19.13
  -3   1  -8  677.52   23.19
  -3   1  -8  684.58   24.04
   3  -1   8  639.16   23.68
   6   0  -8  856.65   29.56
   6   0  -8  904.40   28.35
  -6   0   8  784.78   26.36
  -6   0   8  850.51   27.81
   5   0  -8 1038.80   32.68
   5   0  -8 1016.20   33.29
  -5   0   8  912.14   30.87
  -5   0   8 1042.56   32.18
   4   0  -8  191.78    9.21
   4   0  -8  204.05    9.08
  -4   0   8  204.98    8.58
  -4   0   8  200.77    7.53
   3   0  -8  198.52    8.60
   3   0  -8  205.24    9.07
  -3   0   8  207.13    8.56
  -3   0   8  196.49    7.88
   2   0  -8  246.92    9.10
   2   0  -8  249.11   10.32
  -2   0   8  245.12    9.41
  -2   0   8  245.64    9.87
   1   0  -8  647.21   22.11
  -1   0   8  660.77   21.54
  -1   0   8  651.74   21.84
   0   0  -8 3182.26   96.42
   0   0   8 3131.64   96.03
   0   0   8 3152.79   95.94
  -1   0  -8 3660.42  107.41
   1   0   8 3496.54  106.84
   1   0   8 3386.19  106.79
  -2   0  -8 1073.48   34.71
  -2   0  -8 1086.73   34.81
   2   0   8 1029.77   34.42
  -3   0  -8  120.64    8.00
  -3   0  -8  117.44    8.41
   3   0   8  119.14    7.89
   6  -1  -8  173.12    8.70
   6  -1  -8  161.64    9.95
  -6   1   8  172.67    7.83
  -6   1   8  166.00    6.90
   5  -1  -8 1074.52   35.77
   5  -1  -8 1112.03   35.01
  -5   1   8 1051.24   33.53
  -5   1   8 1090.34   34.39
   4  -1  -8 3417.85  105.74
   4  -1  -8 3556.22  105.65
  -4   1   8 3433.30  104.32
  -4   1   8 3454.99  104.92
   3  -1  -8 2657.86   80.54
   3  -1  -8 2702.73   81.01
  -3   1   8 2636.25   79.89
  -3   1   8 2542.85   80.10
   2  -1  -8  393.86   13.23
   2  -1  -8  391.85   14.17
  -2   1   8  345.47   13.28
  -2   1   8  381.72   13.33
   1  -1  -8  143.00    7.15
  -1   1   8  133.70    6.62
  -1   1   8  122.29    6.45
   0  -1  -8    2.79    2.31
   0   1   8    3.43    2.47
   0   1   8    1.29    2.19
  -1  -1  -8  647.32   22.05
   1   1   8  640.81   21.62
   1   1   8  607.67   21.18
  -2  -1  -8  905.02   29.64
   2   1   8  863.22   28.72
   2   1   8  856.95   28.93
   6  -2  -8  582.20   21.72
   6  -2  -8  512.79   19.36
  -6   2   8  575.12   18.58
  -6   2   8  596.01   19.47
   5  -2  -8  202.60   10.22
   5  -2  -8  236.16   10.89
  -5   2   8  210.31    9.12
  -5   2   8  223.61    8.36
   4  -2  -8   78.07    6.42
   4  -2  -8   71.18    6.34
  -4   2   8   83.55    5.06
  -4   2   8   87.96    4.77
   3  -2  -8  223.67   10.19
   3  -2  -8  223.32   10.00
  -3   2   8  216.99    8.82
  -3   2   8  241.11    8.84
   2  -2  -8  452.25   16.25
   2  -2  -8  434.19   15.19
  -2   2   8  422.37   15.16
  -2   2   8  439.62   14.81
   1  -2  -8 2387.15   73.43
   1  -2  -8 2473.92   74.98
  -1   2   8 2393.06   73.58
  -1   2   8 2424.69   74.22
   0  -2  -8 3640.95  111.95
   0   2   8 3655.20  111.29
   0   2   8 3689.69  110.63
  -1  -2  -8 1368.52   43.76
   1   2   8 1358.98   43.05
   1   2   8 1333.10   42.28
  -2  -2  -8  148.79    8.91
   2   2   8  165.28    8.39
   2   2   8  145.09    7.81
   5  -3  -8 1789.58   56.24
   5  -3  -8 1687.94   54.83
  -5   3   8 1777.39   54.06
  -5   3   8 1768.35   54.23
   4  -3  -8 1556.53   52.03
   4  -3  -8 1740.00   52.59
  -4   3   8 1755.41   51.09
  -4   3   8 1555.55   50.74
   3  -3  -8  343.22   13.31
   3  -3  -8  323.35   13.28
  -3   3   8  334.11   11.67
  -3   3   8  343.63   12.31
   2  -3  -8  126.30    7.43
   2  -3  -8  120.70    7.35
  -2   3   8  128.40    5.66
  -2   3   8  126.07    6.65
   1  -3  -8   12.11    3.28
   1  -3  -8   23.80    4.02
  -1   3   8   19.03    2.40
  -1   3   8   11.70    3.03
   0  -3  -8  435.48   17.15
   0  -3  -8  446.27   15.44
   0   3   8  460.43   15.50
   0   3   8  458.57   16.51
  -1  -3  -8  784.35   28.18
   1   3   8  870.91   27.93
   4  -4  -8  131.42    7.36
   4  -4  -8  120.69    8.40
  -4   4   8  122.92    6.60
   3  -4  -8  254.66   11.18
   3  -4  -8  267.13   11.55
  -3   4   8  266.39   10.48
   2  -4  -8 1276.93   39.76
   2  -4  -8 1180.87   39.96
  -2   4   8 1239.04   39.15
   1  -4  -8 2257.65   70.63
   1  -4  -8 2295.15   69.69
  -1   4   8 2211.86   69.68
   0  -4  -8 1162.36   39.59
   0  -4  -8 1221.80   38.45
   0   4   8 1229.22   39.03
   4   4  -9   53.62    7.08
   4   4  -9   53.06    5.92
  -4  -4   9   54.55    6.45
   3   4  -9   60.46    6.26
   3   4  -9   66.74    6.00
  -3  -4   9   51.23    6.63
   2   4  -9  719.95   24.67
  -2  -4   9  712.19   25.21
   1   4  -9  916.05   30.99
  -1  -4   9  932.61   31.35
   0   4  -9  754.03   24.57
   0   4  -9  716.86   25.71
   0  -4   9  741.44   25.95
   5   3  -9  495.24   19.11
   5   3  -9  507.41   18.49
  -5  -3   9  512.33   18.97
   4   3  -9 1134.74   36.17
   4   3  -9 1081.56   36.12
  -4  -3   9 1101.70   36.18
   3   3  -9 2594.20   77.95
   3   3  -9 2553.40   78.84
  -3  -3   9 2495.90   79.05
   2   3  -9 1227.75   39.05
  -2  -3   9 1267.31   39.36
  -2  -3   9 1110.81   37.30
   1   3  -9  118.28    7.52
  -1  -3   9  120.32    7.63
  -1  -3   9  116.72    6.26
   0   3  -9   -1.10    2.42
   0   3  -9   -0.86    2.70
   0  -3   9   -1.48    2.85
  -1   3  -9  234.20   11.09
  -1   3  -9  254.45   11.01
   1  -3   9  240.12   11.46
   5   2  -9   54.40    5.70
   5   2  -9   61.04    6.28
  -5  -2   9   52.14    5.81
   4   2  -9   39.37    5.97
   4   2  -9   37.98    5.11
  -4  -2   9   35.38    5.26
   3   2  -9  728.92   23.99
   3   2  -9  753.10   25.33
  -3  -2   9  735.94   23.50
  -3  -2   9  730.33   25.12
   2   2  -9 1399.77   45.99
  -2  -2   9 1493.56   44.61
  -2  -2   9 1418.12   45.86
   1   2  -9 1198.32   39.27
  -1  -2   9 1219.75   39.26
  -1  -2   9 1225.64   38.19
   0   2  -9 1472.97   46.87
   0  -2   9 1469.28   46.85
  -1   2  -9 1633.82   51.55
  -1   2  -9 1638.88   51.24
   1  -2   9 1614.91   51.70
   5   1  -9  940.38   31.42
   5   1  -9  961.84   31.59
  -5  -1   9  930.46   31.03
   4   1  -9 2541.63   76.65
   4   1  -9 2490.46   76.10
  -4  -1   9 2520.06   76.23
  -4  -1   9 2333.68   74.66
   3   1  -9 1745.35   54.29
   3   1  -9 1795.88   55.45
  -3  -1   9 1767.79   53.97
  -3  -1   9 1733.83   55.12
   2   1  -9  242.71   10.55
  -2  -1   9  242.52   10.24
  -2  -1   9  238.74    9.51
   1   1  -9    2.13    2.39
  -1  -1   9    1.11    2.35
   0   1  -9  294.51   12.08
   0  -1   9  298.74   12.01
   0  -1   9  298.74   11.57
  -1   1  -9  857.07   28.49
   1  -1   9  849.27   28.44
   5   0  -9   24.53    3.49
   5   0  -9   25.43    4.08
  -5   0   9   26.72    3.51
   4   0  -9  486.49   18.06
   4   0  -9  516.49   18.13
  -4   0   9  514.29   16.70
  -4   0   9  486.82   17.57
   3   0  -9 1491.23   45.68
   3   0  -9 1419.59   44.76
  -3   0   9 1424.85   44.47
  -3   0   9 1404.62   45.19
   2   0  -9 1580.36   49.34
  -2   0   9 1531.98   48.92
  -2   0   9 1570.67   48.51
   1   0  -9 1634.54   52.02
  -1   0   9 1686.66   51.45
  -1   0   9 1639.95   51.73
   0   0  -9 2103.47   65.54
   0   0   9 2102.14   65.17
   0   0   9 2112.10   65.01
  -1   0  -9  870.63   28.28
   1   0   9  813.64   27.50
   1   0   9  805.77   27.48
   5  -1  -9 1730.77   51.85
   5  -1  -9 1632.40   52.17
  -5   1   9 1575.60   50.21
  -5   1   9 1611.93   51.16
   4  -1  -9 1713.44   52.05
   4  -1  -9 1644.19   51.97
  -4   1   9 1587.89   51.23
  -4   1   9 1642.67   50.72
   3  -1  -9  393.08   14.36
   3  -1  -9  365.34   13.66
  -3   1   9  374.69   13.34
  -3   1   9  365.51   13.69
   2  -1  -9    2.63    1.94
   2  -1  -9    1.51    2.42
  -2   1   9    1.45    2.22
   1  -1  -9  307.39   12.21
  -1   1   9  280.95   11.30
  -1   1   9  282.97   11.36
   0  -1  -9  876.82   28.74
   0   1   9  838.33   27.99
   0   1   9  834.80   27.82
  -1  -1  -9 1071.38   34.83
   1   1   9 1044.99   34.28
   1   1   9 1041.82   33.86
   5  -2  -9  219.45   10.37
   5  -2  -9  208.63   10.68
  -5   2   9  214.68    9.21
  -5   2   9  206.60    8.66
   4  -2  -9  944.99   30.73
   4  -2  -9  915.46   30.47
  -4   2   9  894.33   29.50
  -4   2   9  910.72   29.25
   3  -2  -9 1461.21   44.51
   3  -2  -9 1363.10   43.56
  -3   2   9 1363.70   43.17
  -3   2   9 1329.65   43.01
   2  -2  -9 1315.07   41.85
   2  -2  -9 1427.93   43.53
  -2   2   9 1320.56   42.00
  -2   2   9 1313.98   42.35
   1  -2  -9 1806.28   56.62
  -1   2   9 1781.21   55.27
  -1   2   9 1786.16   55.90
   0  -2  -9 1100.26   35.07
   0   2   9 1015.35   33.34
   0   2   9 1035.46   34.11
  -1  -2  -9    6.91    3.75
   1   2   9   12.12    3.58
   4  -3  -9  363.92   15.14
   4  -3  -9  397.08   15.22
  -4   3   9  375.49   13.88
  -4   3   9  385.15   13.56
   3  -3  -9    4.06    3.51
   3  -3  -9    0.30    2.99
  -3   3   9    7.30    2.73
   2  -3  -9  188.52    9.92
   2  -3  -9  177.45    8.54
  -2   3   9  176.03    8.71
   1  -3  -9  562.74   20.94
  -1   3   9  562.54   20.05
   0  -3  -9  921.36   31.72
   0   3   9  928.00   30.90
   3   3 -10  448.92   17.32
  -3  -3  10  429.04   17.25
   2   3 -10   33.26    4.64
  -2  -3  10   29.63    3.59
  -2  -3  10   32.69    4.88
   4   2 -10  636.39   22.83
  -4  -2  10  612.42   22.39
   3   2 -10 1357.92   43.28
  -3  -2  10 1344.96   43.08
  -3  -2  10 1278.88   41.26
   2   2 -10 1663.07   53.69
  -2  -2  10 1698.78   53.70
  -2  -2  10 1701.15   52.23
   1   2 -10  804.73   27.61
  -1  -2  10  799.61   27.52
  -1  -2  10  806.65   26.28
   4   1 -10  436.89   16.33
   4   1 -10  481.61   17.27
  -4  -1  10  452.97   16.93
  -4  -1  10  423.96   15.29
   3   1 -10  128.98    7.97
  -3  -1  10  115.15    7.64
  -3  -1  10  120.99    6.63
   2   1 -10  390.28   15.20
  -2  -1  10  389.13   14.97
  -2  -1  10  384.72   13.91
   1   1 -10 1259.37   40.88
  -1  -1  10 1269.91   40.72
  -1  -1  10 1260.18   39.96
   0   1 -10 1114.63   36.24
   0  -1  10 1106.24   35.49
   0  -1  10 1083.03   35.95
   4   0 -10 1170.73   36.56
   4   0 -10 1088.94   35.86
  -4   0  10 1082.81   36.02
  -4   0  10 1100.27   34.94
   3   0 -10 1818.73   55.90
  -3   0  10 1750.06   55.55
  -3   0  10 1741.61   54.72
   2   0 -10 1035.01   34.39
  -2   0  10 1083.55   33.66
  -2   0  10 1026.42   34.04
   1   0 -10  402.18   15.53
  -1   0  10  406.65   14.85
  -1   0  10  402.10   15.17
   3  -1 -10  205.64    9.95
  -3   1  10  204.80    8.96
  -3   1  10  195.97    9.18
   2  -1 -10 1299.07   41.55
  -2   1  10 1255.65   40.68
  -2   1  10 1280.93   40.65
   1  -1 -10 1305.94   41.00
  -1   1  10 1216.19   39.96
  -1   1  10 1237.42   39.89
   0   0   0    0.00    0.00


 _exptl_absorpt_process_details
)
 SADABS 2016/2: Krause, L., Herbst-Irmer, R., Sheldrick G.M. & Stalke D.,
 J. Appl. Cryst. 48 (2015) 3-10
)
 _exptl_absorpt_correction_type   multi-scan
 _exptl_absorpt_correction_T_max  0.7451
 _exptl_absorpt_correction_T_min  0.4168
 _exptl_special_details
)
 The following wavelength and cell were deduced by SADABS from the
 direction cosines etc. They are given here for emergency use only:
 CELL 0.71080    6.692    7.296    8.909   94.656  106.874   91.689
)

_computing_structure_solution     'SHELXT 2018/2 (Sheldrick, 2018)'
;
_shelx_hkl_checksum              68233
_olex2_submission_special_instructions 'No special instructions were received'
loop_
_space_group_symop_operation_xyz
'x, y, z'
'-x, -y, -z'
loop_
_atom_site_label
_atom_site_type_symbol
_atom_site_fract_x
_atom_site_fract_y
_atom_site_fract_z
_atom_site_U_iso_or_equiv
_atom_site_adp_type
_atom_site_occupancy
_atom_site_site_symmetry_order
_atom_site_calc_flag
_atom_site_refinement_flags_posn
_atom_site_refinement_flags_adp
_atom_site_refinement_flags_occupancy
_atom_site_disorder_assembly
_atom_site_disorder_group
Au1 Au 0.56702(2) 0.77943(2) 0.62183(2) 0.02473(9) Uani 1 1 d . . . . .
Cl1 Cl 0.7827(2) 0.85270(18) 0.47964(15) 0.0442(3) Uani 1 1 d . . . . .
Cl2 Cl 0.3138(2) 0.66658(18) 0.39702(13) 0.0400(3) Uani 1 1 d . . . . .
O1 O 0.8182(5) 0.9178(5) 1.0927(3) 0.0395(7) Uani 1 1 d . . . . .
N1 N 0.2407(6) 0.6195(6) 1.0089(4) 0.0350(8) Uani 1 1 d . . . . .
N2 N 0.4043(6) 0.7115(5) 0.7730(4) 0.0267(8) Uani 1 1 d . . . . .
N3 N 0.7696(6) 0.8803(6) 0.8245(5) 0.0319(8) Uani 1 1 d . . . . .
H3 H 0.877(8) 0.931(7) 0.850(6) 0.027(13) Uiso 1 1 d . . . . .
C1 C 0.5090(6) 0.7599(5) 0.9255(5) 0.0247(8) Uani 1 1 d . . . . .
C2 C 0.4234(7) 0.7145(6) 1.0423(5) 0.0318(9) Uani 1 1 d . . . . .
H2 H 0.495532 0.751451 1.147041 0.038 Uiso 1 1 calc R . . . .
C3 C 0.1397(7) 0.5720(8) 0.8591(6) 0.0407(11) Uani 1 1 d . . . . .
H3A H 0.011713 0.505396 0.833893 0.049 Uiso 1 1 calc R . . . .
C4 C 0.2196(6) 0.6192(6) 0.7358(5) 0.0341(9) Uani 1 1 d . . . . .
H4 H 0.144536 0.586279 0.630994 0.041 Uiso 1 1 calc R . . . .
C5 C 0.7181(7) 0.8616(6) 0.9553(5) 0.0291(9) Uani 1 1 d . . . . .
loop_
_atom_site_aniso_label
_atom_site_aniso_U_11
_atom_site_aniso_U_22
_atom_site_aniso_U_33
_atom_site_aniso_U_23
_atom_site_aniso_U_13
_atom_site_aniso_U_12
Au1 0.02757(12) 0.03038(12) 0.01510(12) 0.00004(7) 0.00568(8) -0.00538(7)
Cl1 0.0494(7) 0.0541(7) 0.0346(6) 0.0030(5) 0.0228(5) -0.0121(5)
Cl2 0.0426(6) 0.0532(7) 0.0173(5) -0.0012(4) 0.0002(4) -0.0078(5)
O1 0.0374(16) 0.0580(19) 0.0169(15) -0.0066(13) 0.0032(13) -0.0220(14)
N1 0.0306(18) 0.055(2) 0.0187(18) 0.0022(15) 0.0074(14) -0.0103(16)
N2 0.0258(18) 0.0349(18) 0.0184(18) 0.0018(14) 0.0055(14) -0.0017(14)
N3 0.0258(19) 0.043(2) 0.0228(19) -0.0021(16) 0.0043(15) -0.0159(16)
C1 0.025(2) 0.0281(18) 0.0185(19) -0.0011(15) 0.0033(16) -0.0024(15)
C2 0.032(2) 0.041(2) 0.020(2) 0.0006(17) 0.0065(17) -0.0044(17)
C3 0.028(2) 0.060(3) 0.034(3) 0.002(2) 0.0100(19) -0.0124(19)
C4 0.026(2) 0.052(2) 0.019(2) -0.0009(18) 0.0010(16) -0.0119(18)
C5 0.030(2) 0.0313(19) 0.024(2) -0.0009(17) 0.0048(17) -0.0061(16)
loop_
_atom_type_symbol
_atom_type_description
_atom_type_scat_dispersion_real
_atom_type_scat_dispersion_imag
_atom_type_scat_source
C C 0.0033 0.0016 'International Tables Vol C Tables 4.2.6.8 and 6.1.1.4'
H H 0.0000 0.0000 'International Tables Vol C Tables 4.2.6.8 and 6.1.1.4'
Au Au -2.0133 8.8022 'International Tables Vol C Tables 4.2.6.8 and 6.1.1.4'
Cl Cl 0.1484 0.1585 'International Tables Vol C Tables 4.2.6.8 and 6.1.1.4'
N N 0.0061 0.0033 'International Tables Vol C Tables 4.2.6.8 and 6.1.1.4'
O O 0.0106 0.0060 'International Tables Vol C Tables 4.2.6.8 and 6.1.1.4'
loop_
_geom_angle_atom_site_label_1
_geom_angle_atom_site_label_2
_geom_angle_atom_site_label_3
_geom_angle
_geom_angle_site_symmetry_1
_geom_angle_site_symmetry_3
_geom_angle_publ_flag
Cl1 Au1 Cl2 90.75(5) . . ?
N2 Au1 Cl1 172.96(10) . . ?
N2 Au1 Cl2 95.63(11) . . ?
N3 Au1 Cl1 93.22(12) . . ?
N3 Au1 Cl2 175.66(12) . . ?
N3 Au1 N2 80.51(16) . . ?
C3 N1 C2 117.9(4) . . ?
C1 N2 Au1 113.2(3) . . ?
C4 N2 Au1 126.9(3) . . ?
C4 N2 C1 119.7(4) . . ?
C5 N3 Au1 117.7(3) . . ?
N2 C1 C2 119.9(4) . . ?
N2 C1 C5 115.6(3) . . ?
C2 C1 C5 124.5(4) . . ?
N1 C2 C1 121.7(4) . . ?
N1 C3 C4 122.2(4) . . ?
N2 C4 C3 118.5(4) . . ?
O1 C5 N3 128.2(4) . . ?
O1 C5 C1 118.9(4) . . ?
N3 C5 C1 112.9(4) . . ?
loop_
_geom_bond_atom_site_label_1
_geom_bond_atom_site_label_2
_geom_bond_distance
_geom_bond_site_symmetry_2
_geom_bond_publ_flag
Au1 Cl1 2.2571(12) . ?
Au1 Cl2 2.2879(12) . ?
Au1 N2 2.042(4) . ?
Au1 N3 1.985(4) . ?
O1 C5 1.241(5) . ?
N1 C2 1.329(6) . ?
N1 C3 1.320(7) . ?
N2 C1 1.347(6) . ?
N2 C4 1.329(6) . ?
N3 C5 1.322(6) . ?
C1 C2 1.382(6) . ?
C1 C5 1.505(6) . ?
C3 C4 1.415(7) . ?
