#------------------------------------------------------------------------------
#$Date: 2020-09-04 03:28:54 +0300 (Fri, 04 Sep 2020) $
#$Revision: 255860 $
#$URL: file:///home/coder/svn-repositories/cod/cif/4/51/78/4517899.cif $
#------------------------------------------------------------------------------
#
# This file is available in the Crystallography Open Database (COD),
# http://www.crystallography.net/
#
# All data on this site have been placed in the public domain by the
# contributors.
#
data_4517899
loop_
_publ_author_name
'Thomas, Rudy'
'Devaux, Philippe'
'Rivenet, Murielle'
'Henry, Natacha'
'Abraham, Francis'
_publ_section_title
;
 Zirconium Oxalates: Zr(OH)<sub>2</sub>(C<sub>2</sub>O<sub>4</sub>),
 (H<sub>11</sub>O<sub>5</sub>)<sub>2</sub>[Zr<sub>2</sub>(C<sub>2</sub>O<sub>4</sub>)<sub>5</sub>(H<sub>2</sub>O)<sub>4</sub>],
 and
 MM'[Zr(C<sub>2</sub>O<sub>4</sub>)<sub>3</sub>]&#x00B7;<i>x</i>H<sub>2</sub>O
 with M and M' = Ammonium, Alkali Metal, and Hydroxonium Ion
 H<sub>2<i>n</i>+1</sub>O <sub> <i>n</i> </sub><sup>+</sup> (<i>n</i> = 2,
 3, 4).
;
_journal_issue                   33
_journal_name_full               'ACS omega'
_journal_page_first              21260
_journal_page_last               21270
_journal_paper_doi               10.1021/acsomega.0c03224
_journal_volume                  5
_journal_year                    2020
_chemical_formula_sum            'C2 H2 O6 Zr'
_chemical_formula_weight         213.3
_space_group_IT_number           15
_space_group_name_Hall           '-C 2yc'
_space_group_name_H-M_alt        'C 1 2/c 1'
_symmetry_cell_setting           monoclinic
_symmetry_Int_Tables_number      15
_symmetry_space_group_name_Hall  '-C 2yc'
_symmetry_space_group_name_H-M   'C 1 2/c 1'
_cell_angle_alpha                90
_cell_angle_beta                 118.25(2)
_cell_angle_gamma                90
_cell_formula_units_Z            4
_cell_length_a                   12.813(4)
_cell_length_b                   5.8882(14)
_cell_length_c                   6.7088(13)
_cell_measurement_temperature    293
_cell_volume                     445.9(2)
_diffrn_ambient_temperature      293
_diffrn_detector_type            Lynxeyeet
_diffrn_measurement_device_type  'bruker D8'
_diffrn_radiation_probe          x-ray
_diffrn_radiation_source         'X-ray tube'
_diffrn_radiation_type           'Cu K\a'
_diffrn_radiation_wavelength     1.5418
_exptl_absorpt_coefficient_mu    20.01
_exptl_crystal_density_diffrn    3.1768
_exptl_crystal_F_000             408
_pd_char_colour                  white
_pd_instr_location               ' ?'
_pd_meas_2theta_range_inc        0.02
_pd_meas_2theta_range_max        119.994
_pd_meas_2theta_range_min        5.000
_pd_meas_number_of_points        5614
_pd_meas_scan_method             theta/theta
_pd_proc_2theta_range_inc        0.02
_pd_proc_2theta_range_max        119.994
_pd_proc_2theta_range_min        10.962
_pd_proc_ls_background_function  '15 Chebyshev polynoms'
_pd_proc_ls_pref_orient_corr     'March & Dollase'
_pd_proc_ls_profile_function     Pseudo-Voigt
_pd_proc_ls_prof_R_factor        0.0331
_pd_proc_ls_prof_wR_expected     0.0112
_pd_proc_ls_prof_wR_factor       0.0496
_pd_spec_size_axial              15
_pd_spec_size_equat              15
_pd_spec_size_thick              2
_refine_diff_density_max         1.01
_refine_diff_density_min         -1.82
_refine_ls_goodness_of_fit_all   4.45
_refine_ls_hydrogen_treatment    constr
_refine_ls_number_constraints    9
_refine_ls_number_parameters     39
_refine_ls_number_restraints     0
_refine_ls_R_factor_all          0.0417
_refine_ls_R_factor_gt           0.0417
_refine_ls_shift/su_max          0.0499
_refine_ls_shift/su_mean         0.0030
_refine_ls_weighting_scheme      sigma
_refine_ls_wR_factor_all         0.0600
_refine_ls_wR_factor_gt          0.0600
_cod_data_source_file            ao0c03224_si_002.cif
_cod_data_source_block           ZrOx
_cod_depositor_comments
;
The following automatic conversions were performed:

data item '_diffrn_radiation_probe' value 'X-ray' was changed to
'x-ray' in accordance with the
/home/data/users/saulius/crontab/automatic-downloads/rss-feeds/ACS/lib/dictionaries/cif_core.dic
dictionary named 'cif_core.dic' version 2.4.2 last updated on
2011-04-26.

Automatic conversion script
Id: cif_fix_values 7556 2019-12-06 15:28:31Z antanas 

 Adding full bibliography for 4517899--4517905.cif.
;
_cod_original_formula_sum        'C2 H2 O6 Zr1'
_cod_database_code               4517899
loop_
_space_group_symop_id
_space_group_symop_operation_xyz
1 x,y,z
2 -x,y,-z+1/2
3 -x,-y,-z
4 x,-y,z+1/2
5 x+1/2,y+1/2,z
6 -x+1/2,y+1/2,-z+1/2
7 -x+1/2,-y+1/2,-z
8 x+1/2,-y+1/2,z+1/2
loop_
_atom_site_label
_atom_site_type_symbol
_atom_site_fract_x
_atom_site_fract_y
_atom_site_fract_z
_atom_site_adp_type
_atom_site_U_iso_or_equiv
_atom_site_site_symmetry_multiplicity
_atom_site_occupancy
_atom_site_calc_flag
_atom_site_refinement_flags
_atom_site_disorder_assembly
_atom_site_disorder_group
Zr1 Zr 0.5 0.088(2) 0.75 Uiso 0.012(5) 4 1 d . . .
O1 O 0.618(3) 0.407(9) 0.907(6) Uiso 0.0194 8 1 d . . .
O2 O 0.473(4) -0.194(6) 0.531(5) Uiso 0.0194 8 1 d . . .
O3 O 0.703(3) -0.019(6) 0.898(8) Uiso 0.0194 8 1 d . . .
C4 C 0.730(5) 0.365(11) 0.995(11) Uiso 0.0148 8 1 d . . .
H2 H 0.451674 -0.344494 0.553606 Uiso 0.0233 8 1 d . . .
loop_
_atom_site_aniso_label
_atom_site_aniso_type_symbol
_atom_site_aniso_U_11
_atom_site_aniso_U_22
_atom_site_aniso_U_33
_atom_site_aniso_U_12
_atom_site_aniso_U_13
_atom_site_aniso_U_23
? ? ? ? ? ? ? ?
loop_
_atom_type_symbol
_atom_type_scat_dispersion_real
_atom_type_scat_dispersion_imag
_atom_type_scat_source
C 0.0191 0.0095 'International Tables Vol C tables 4.2.6.8 and 6.1.1.1'
H 0.0000 0.0000 'International Tables Vol C tables 4.2.6.8 and 6.1.1.1'
O 0.0516 0.0335 'International Tables Vol C tables 4.2.6.8 and 6.1.1.1'
Zr -0.1709 2.2794 'International Tables Vol C tables 4.2.6.8 and 6.1.1.1'
loop_
_exptl_crystal_face_index_h
_exptl_crystal_face_index_k
_exptl_crystal_face_index_l
_exptl_crystal_face_perp_dist
? ? ? ?
loop_
_geom_angle_atom_site_label_1
_geom_angle_atom_site_label_2
_geom_angle_atom_site_label_3
_geom_angle_site_symmetry_1
_geom_angle_site_symmetry_2
_geom_angle_site_symmetry_3
_geom_angle
_geom_angle_publ_flag
Zr1 Zr1 Zr1 3_656 . 3_657 145.7(5) ?
Zr1 Zr1 O1 3_656 . . 112.2(12) ?
Zr1 Zr1 O1 3_656 . 2_656 95.7(11) ?
Zr1 Zr1 O2 3_656 . . 35.5(12) ?
Zr1 Zr1 O2 3_656 . 2_656 110.8(12) ?
Zr1 Zr1 O2 3_656 . 3_656 34.9(10) ?
Zr1 Zr1 O2 3_656 . 4_555 171.8(10) ?
Zr1 Zr1 O3 3_656 . . 80.0(12) ?
Zr1 Zr1 O3 3_656 . 2_656 91.1(13) ?
Zr1 Zr1 O1 3_657 . . 95.7(11) ?
Zr1 Zr1 O1 3_657 . 2_656 112.2(12) ?
Zr1 Zr1 O2 3_657 . . 110.8(12) ?
Zr1 Zr1 O2 3_657 . 2_656 35.5(12) ?
Zr1 Zr1 O2 3_657 . 3_656 171.8(10) ?
Zr1 Zr1 O2 3_657 . 4_555 34.9(10) ?
Zr1 Zr1 O3 3_657 . . 91.1(13) ?
Zr1 Zr1 O3 3_657 . 2_656 80.0(12) ?
O1 Zr1 O1 . . 2_656 72.1(14) ?
O1 Zr1 O2 . . . 143.1(18) ?
O1 Zr1 O2 . . 2_656 117.3(13) ?
O1 Zr1 O2 . . 3_656 79.9(15) ?
O1 Zr1 O2 . . 4_555 73.2(16) ?
O1 Zr1 O3 . . . 71.3(13) ?
O1 Zr1 O3 . . 2_656 138.1(14) ?
O1 Zr1 O2 2_656 . . 117.3(13) ?
O1 Zr1 O2 2_656 . 2_656 143.1(18) ?
O1 Zr1 O2 2_656 . 3_656 73.2(16) ?
O1 Zr1 O2 2_656 . 4_555 79.9(15) ?
O1 Zr1 O3 2_656 . . 138.1(14) ?
O1 Zr1 O3 2_656 . 2_656 71.3(13) ?
O2 Zr1 O2 . . 2_656 77.8(15) ?
O2 Zr1 O2 . . 3_656 70.5(15) ?
O2 Zr1 O2 . . 4_555 141.5(17) ?
O2 Zr1 O3 . . . 82.6(15) ?
O2 Zr1 O3 . . 2_656 73.7(17) ?
O2 Zr1 O2 2_656 . 3_656 141.5(17) ?
O2 Zr1 O2 2_656 . 4_555 70.5(15) ?
O2 Zr1 O3 2_656 . . 73.7(17) ?
O2 Zr1 O3 2_656 . 2_656 82.6(15) ?
O2 Zr1 O2 3_656 . 4_555 146.5(16) ?
O2 Zr1 O3 3_656 . . 81.0(17) ?
O2 Zr1 O3 3_656 . 2_656 107.9(16) ?
O2 Zr1 O3 4_555 . . 107.9(16) ?
O2 Zr1 O3 4_555 . 2_656 81.0(17) ?
O3 Zr1 O3 . . 2_656 149.6(13) ?
Zr1 O1 C4 . . . 113(4) ?
Zr1 O2 Zr1 . . 3_656 109.5(18) ?
Zr1 O2 H2 . . . 125.23 ?
Zr1 O2 H2 3_656 . . 125.23 ?
Zr1 O3 C4 . . 7_657 112(4) ?
O1 C4 O3 . . 7_657 116(6) ?
O1 C4 C4 . . 7_657 120(5) ?
O3 C4 C4 7_657 . 7_657 122(5) ?
loop_
_geom_bond_atom_site_label_1
_geom_bond_atom_site_label_2
_geom_bond_site_symmetry_1
_geom_bond_site_symmetry_2
_geom_bond_distance
_geom_bond_publ_flag
Zr1 Zr1 . 3_656 3.511(5) ?
Zr1 Zr1 . 3_657 3.511(5) ?
Zr1 O1 . . 2.33(5) ?
Zr1 O1 . 2_656 2.33(5) ?
Zr1 O2 . . 2.13(4) ?
Zr1 O2 . 2_656 2.13(4) ?
Zr1 O2 . 3_656 2.17(5) ?
Zr1 O2 . 4_555 2.17(5) ?
Zr1 O3 . . 2.39(4) ?
Zr1 O3 . 2_656 2.39(4) ?
O1 C4 . . 1.29(7) ?
O2 H2 . . 0.96 ?
O3 C4 . 7_657 1.22(7) ?
C4 C4 . 7_657 1.44(9) ?
loop_
_geom_hbond_atom_site_label_D
_geom_hbond_atom_site_label_H
_geom_hbond_atom_site_label_A
_geom_hbond_site_symmetry_D
_geom_hbond_site_symmetry_H
_geom_hbond_site_symmetry_A
_geom_hbond_distance_DH
_geom_hbond_distance_HA
_geom_hbond_distance_DA
_geom_hbond_angle_DHA
_geom_hbond_publ_flag
O2 H2 O1 . . 2_646 0.96 1.79 2.74(7) 166.45 ?
loop_
_geom_torsion_atom_site_label_1
_geom_torsion_atom_site_label_2
_geom_torsion_atom_site_label_3
_geom_torsion_atom_site_label_4
_geom_torsion_site_symmetry_1
_geom_torsion_site_symmetry_2
_geom_torsion_site_symmetry_3
_geom_torsion_site_symmetry_4
_geom_torsion
_geom_torsion_publ_flag
? ? ? ? ? ? ? ? ? ?
loop_
_pd_proc_point_id
_pd_proc_2theta_corrected
_pd_proc_intensity_net
_pd_calc_intensity_net
_pd_proc_ls_weight
1 10.9856 7160.00 6878.56 84.62
2 11.0061 7151.00 6898.04 84.56
3 11.0266 7329.00 6917.17 85.61
4 11.0471 7357.00 6935.95 85.77
5 11.0676 7134.00 6954.39 84.46
6 11.0881 7164.00 6972.49 84.64
7 11.1085 7254.00 6990.17 85.17
8 11.1290 7232.00 7007.60 85.04
9 11.1495 7157.00 7024.71 84.60
10 11.1700 7159.00 7041.50 84.61
11 11.1905 7255.00 7057.97 85.18
12 11.2110 7394.00 7074.13 85.99
13 11.2315 7271.00 7089.97 85.27
14 11.2520 7269.00 7105.51 85.26
15 11.2724 7219.00 7120.68 84.96
16 11.2929 7286.00 7135.62 85.36
17 11.3134 7179.00 7150.27 84.73
18 11.3339 7196.00 7164.63 84.83
19 11.3544 7045.00 7178.70 83.93
20 11.3749 7036.00 7192.49 83.88
21 11.3954 7192.00 7206.00 84.81
22 11.4159 7217.00 7219.24 84.95
23 11.4363 7203.00 7232.14 84.87
24 11.4568 7149.00 7244.83 84.55
25 11.4773 7226.00 7257.27 85.01
26 11.4978 7240.00 7269.44 85.09
27 11.5183 7080.00 7281.35 84.14
28 11.5388 7295.00 7293.01 85.41
29 11.5593 7340.00 7304.42 85.67
30 11.5797 7280.00 7315.53 85.32
31 11.6002 7321.00 7326.46 85.56
32 11.6207 7313.00 7337.14 85.52
33 11.6412 7300.00 7347.58 85.44
34 11.6617 7146.00 7357.79 84.53
35 11.6822 7232.00 7367.77 85.04
36 11.7027 7288.00 7377.53 85.37
37 11.7232 7282.00 7387.06 85.33
38 11.7436 7408.00 7396.32 86.07
39 11.7641 7340.00 7405.42 85.67
40 11.7846 7339.00 7414.29 85.67
41 11.8051 7421.00 7422.96 86.15
42 11.8256 7485.00 7431.42 86.52
43 11.8461 7416.00 7439.67 86.12
44 11.8666 7509.00 7447.72 86.65
45 11.8871 7516.00 7455.58 86.69
46 11.9075 7397.00 7463.20 86.01
47 11.9280 7476.00 7470.66 86.46
48 11.9485 7372.00 7477.93 85.86
49 11.9690 7498.00 7485.01 86.59
50 11.9895 7468.00 7491.91 86.42
51 12.0100 7371.00 7498.63 85.85
52 12.0305 7571.00 7505.17 87.01
53 12.0510 7441.00 7511.53 86.26
54 12.0714 7415.00 7517.69 86.11
55 12.0919 7644.00 7523.71 87.43
56 12.1124 7351.00 7529.55 85.74
57 12.1329 7357.00 7535.23 85.77
58 12.1534 7212.00 7540.75 84.92
59 12.1739 7419.00 7546.11 86.13
60 12.1944 7437.00 7551.31 86.24
61 12.2148 7378.00 7556.33 85.90
62 12.2353 7381.00 7561.22 85.91
63 12.2558 7402.00 7565.95 86.03
64 12.2763 7429.00 7570.54 86.19
65 12.2968 7597.00 7574.99 87.16
66 12.3173 7482.00 7579.29 86.50
67 12.3378 7624.00 7583.45 87.32
68 12.3583 7546.00 7587.47 86.87
69 12.3787 7550.00 7591.33 86.89
70 12.3992 7399.00 7595.08 86.02
71 12.4197 7457.00 7598.70 86.35
72 12.4402 7366.00 7602.18 85.83
73 12.4607 7298.00 7605.54 85.43
74 12.4812 7472.00 7608.78 86.44
75 12.5017 7569.00 7611.89 87.00
76 12.5222 7571.00 7614.87 87.01
77 12.5426 7515.00 7617.73 86.69
78 12.5631 7425.00 7620.48 86.17
79 12.5836 7499.00 7623.12 86.60
80 12.6041 7592.00 7625.64 87.13
81 12.6246 7572.00 7628.05 87.02
82 12.6451 7496.00 7630.36 86.58
83 12.6656 7546.00 7632.55 86.87
84 12.6860 7525.00 7634.64 86.75
85 12.7065 7646.00 7636.63 87.44
86 12.7270 7559.00 7638.51 86.94
87 12.7475 7611.00 7640.30 87.24
88 12.7680 7412.00 7641.99 86.09
89 12.7885 7580.00 7643.59 87.06
90 12.8090 7464.00 7645.09 86.39
91 12.8295 7464.00 7646.50 86.39
92 12.8499 7642.00 7647.81 87.42
93 12.8704 7343.00 7649.04 85.69
94 12.8909 7518.00 7650.18 86.71
95 12.9114 7570.00 7651.24 87.01
96 12.9319 7606.00 7652.21 87.21
97 12.9524 7650.00 7653.11 87.46
98 12.9729 7629.00 7653.92 87.34
99 12.9934 7514.00 7654.66 86.68
100 13.0138 7559.00 7655.31 86.94
101 13.0343 7537.00 7655.89 86.82
102 13.0548 7626.00 7656.40 87.33
103 13.0753 7438.00 7656.84 86.24
104 13.0958 7479.00 7657.21 86.48
105 13.1163 7483.00 7657.51 86.50
106 13.1368 7652.00 7657.74 87.48
107 13.1573 7444.00 7657.90 86.28
108 13.1777 7492.00 7658.00 86.56
109 13.1982 7444.00 7658.04 86.28
110 13.2187 7577.00 7658.01 87.05
111 13.2392 7728.00 7657.93 87.91
112 13.2597 7576.00 7657.79 87.04
113 13.2802 7497.00 7657.59 86.59
114 13.3007 7647.00 7657.33 87.45
115 13.3211 7602.00 7657.02 87.19
116 13.3416 7577.00 7656.66 87.05
117 13.3621 7658.00 7656.24 87.51
118 13.3826 7738.00 7655.77 87.97
119 13.4031 7481.00 7655.25 86.49
120 13.4236 7648.00 7654.69 87.45
121 13.4441 7797.00 7654.08 88.30
122 13.4646 7637.00 7653.42 87.39
123 13.4850 7702.00 7652.72 87.76
124 13.5055 7632.00 7651.98 87.36
125 13.5260 7668.00 7651.19 87.57
126 13.5465 7497.00 7650.36 86.59
127 13.5670 7529.00 7649.49 86.77
128 13.5875 7747.00 7648.58 88.02
129 13.6080 7550.00 7647.64 86.89
130 13.6285 7603.00 7646.66 87.20
131 13.6489 7605.00 7645.65 87.21
132 13.6694 7654.00 7644.60 87.49
133 13.6899 7712.00 7643.51 87.82
134 13.7104 7656.00 7642.40 87.50
135 13.7309 7657.00 7641.25 87.50
136 13.7514 7635.00 7640.07 87.38
137 13.7719 7668.00 7638.87 87.57
138 13.7923 7688.00 7637.64 87.68
139 13.8128 7769.00 7636.38 88.14
140 13.8333 7496.00 7635.09 86.58
141 13.8538 7695.00 7633.77 87.72
142 13.8743 7646.00 7632.44 87.44
143 13.8948 7670.00 7631.08 87.58
144 13.9153 7558.00 7629.69 86.94
145 13.9358 7652.00 7628.29 87.48
146 13.9562 7733.00 7626.87 87.94
147 13.9767 7856.00 7625.43 88.63
148 13.9972 7750.00 7623.96 88.03
149 14.0177 7801.00 7622.48 88.32
150 14.0382 7664.00 7620.98 87.54
151 14.0587 7865.00 7619.46 88.68
152 14.0792 7882.00 7617.93 88.78
153 14.0997 7897.00 7616.39 88.87
154 14.1201 7812.00 7614.83 88.39
155 14.1406 7842.00 7613.26 88.56
156 14.1611 7963.00 7692.85 89.24
157 14.1816 7768.00 7732.70 88.14
158 14.2021 7970.00 7734.46 89.27
159 14.2226 7929.00 7736.35 89.04
160 14.2431 8062.00 7738.38 89.79
161 14.2636 7975.00 7740.56 89.30
162 14.2839 7913.00 7742.89 88.96
163 14.3044 7985.00 7745.39 89.36
164 14.3249 7816.00 7748.08 88.41
165 14.3454 7662.00 7750.95 87.53
166 14.3659 7817.00 7754.03 88.41
167 14.3864 7878.00 7757.33 88.76
168 14.4069 7761.00 7760.87 88.10
169 14.4273 7817.00 7764.63 88.41
170 14.4478 7835.00 7768.68 88.52
171 14.4683 8024.00 7773.01 89.58
172 14.4888 7899.00 7777.65 88.88
173 14.5093 7833.00 7782.62 88.50
174 14.5298 8148.00 7787.94 90.27
175 14.5503 8023.00 7793.63 89.57
176 14.5708 7947.00 7799.72 89.15
177 14.5912 7755.00 7806.22 88.06
178 14.6117 8108.00 7813.22 90.04
179 14.6322 7899.00 7820.72 88.88
180 14.6527 8062.00 7828.77 89.79
181 14.6732 7876.00 7837.41 88.75
182 14.6937 7992.00 7846.68 89.40
183 14.7142 8018.00 7856.64 89.54
184 14.7347 8094.00 7867.35 89.97
185 14.7551 8098.00 7878.82 89.99
186 14.7756 8114.00 7891.23 90.08
187 14.7961 8127.00 7904.60 90.15
188 14.8166 8123.00 7919.04 90.13
189 14.8371 8125.00 7934.63 90.14
190 14.8576 8341.00 7951.49 91.33
191 14.8781 8201.00 7969.74 90.56
192 14.8985 8152.00 7989.44 90.29
193 14.9190 8282.00 8010.93 91.01
194 14.9395 8380.00 8034.31 91.54
195 14.9600 8336.00 8059.78 91.30
196 14.9805 8339.00 8087.58 91.32
197 15.0010 8394.00 8117.98 91.62
198 15.0215 8619.00 8151.31 92.84
199 15.0420 8529.00 8187.91 92.35
200 15.0624 8663.00 8228.01 93.08
201 15.0829 8620.00 8272.49 92.84
202 15.1034 8738.00 8321.74 93.48
203 15.1239 8909.00 8376.43 94.39
204 15.1444 9055.00 8437.35 95.16
205 15.1649 8883.00 8505.48 94.25
206 15.1854 9090.00 8581.94 95.34
207 15.2059 9332.00 8668.11 96.60
208 15.2263 9343.00 8765.15 96.66
209 15.2468 9319.00 8876.05 96.54
210 15.2673 9536.00 9002.88 97.65
211 15.2878 9680.00 9148.77 98.39
212 15.3083 9987.00 9317.66 99.93
213 15.3288 10123.00 9514.55 100.61
214 15.3493 10103.00 9745.82 100.51
215 15.3698 10184.00 10143.50 100.92
216 15.3902 10330.00 10472.70 101.64
217 15.4107 10410.00 10933.00 102.03
218 15.4312 10877.00 11422.30 104.29
219 15.4517 11191.00 12027.60 105.79
220 15.4722 11631.00 12788.20 107.85
221 15.4927 12377.00 13760.10 111.25
222 15.5132 13350.00 15026.10 115.54
223 15.5336 14991.00 16701.50 122.44
224 15.5541 17084.00 18993.20 130.71
225 15.5746 20241.00 22192.40 142.27
226 15.5951 24978.00 26757.60 158.04
227 15.6156 32052.00 33348.00 179.03
228 15.6361 42143.00 42668.40 205.29
229 15.6566 54810.00 54585.10 234.12
230 15.6771 66392.00 66050.10 257.67
231 15.6975 73100.00 71220.00 270.37
232 15.7180 69777.00 67815.90 264.15
233 15.7385 59731.00 58468.90 244.40
234 15.7590 46417.00 47042.10 215.45
235 15.7795 34121.00 36923.80 184.72
236 15.8000 25455.00 29358.30 159.55
237 15.8205 19843.00 24045.70 140.87
238 15.8410 16806.00 20341.10 129.64
239 15.8614 14753.00 17729.00 121.46
240 15.8819 13665.00 15827.20 116.90
241 15.9024 12704.00 14418.50 112.71
242 15.9229 11767.00 13352.50 108.48
243 15.9434 11417.00 12530.50 106.85
244 15.9639 11082.00 11886.00 105.27
245 15.9844 10755.00 11373.60 103.71
246 16.0048 10169.00 10963.20 100.84
247 16.0253 10121.00 10628.10 100.60
248 16.0458 10111.00 10353.70 100.55
249 16.0663 10153.00 10127.90 100.76
250 16.0868 9888.00 9941.31 99.44
251 16.1073 9835.00 9787.09 99.17
252 16.1278 9918.00 9659.79 99.59
253 16.1483 9607.00 9555.29 98.02
254 16.1687 9621.00 9470.73 98.09
255 16.1892 9435.00 9402.79 97.13
256 16.2097 9549.00 9349.98 97.72
257 16.2302 9622.00 9310.82 98.09
258 16.2507 9484.00 9284.17 97.39
259 16.2712 9678.00 9269.25 98.38
260 16.2917 9522.00 9265.49 97.58
261 16.3122 9433.00 9272.60 97.12
262 16.3326 9856.00 9290.39 99.28
263 16.3531 9961.00 9319.17 99.80
264 16.3736 9891.00 9359.22 99.45
265 16.3941 10133.00 9411.14 100.66
266 16.4146 10043.00 9475.74 100.21
267 16.4351 10137.00 9554.12 100.68
268 16.4556 10442.00 9647.72 102.19
269 16.4760 10508.00 9757.76 102.51
270 16.4965 10451.00 9887.58 102.23
271 16.5170 10903.00 10039.50 104.42
272 16.5375 10891.00 10217.10 104.36
273 16.5580 10836.00 10424.90 104.10
274 16.5785 11164.00 10668.30 105.66
275 16.5990 11387.00 10954.70 106.71
276 16.6195 11476.00 11293.00 107.13
277 16.6399 11741.00 11693.10 108.36
278 16.6604 12245.00 12174.20 110.66
279 16.6809 12540.00 12755.00 111.98
280 16.7014 13198.00 13463.40 114.88
281 16.7219 13817.00 14336.90 117.55
282 16.7424 14463.00 15428.40 120.26
283 16.7629 15460.00 16812.80 124.34
284 16.7834 17171.00 18598.20 131.04
285 16.8038 19105.00 20932.30 138.22
286 16.8243 22470.00 24078.00 149.90
287 16.8448 26669.00 28393.50 163.31
288 16.8653 32856.00 34441.80 181.26
289 16.8858 41660.00 43039.90 204.11
290 16.9063 54011.00 55191.80 232.40
291 16.9268 69383.00 71392.80 263.41
292 16.9473 86204.00 89470.80 293.61
293 16.9677 99856.00 102462.00 316.00
294 16.9882 103962.00 103919.00 322.43
295 17.0087 97828.00 94704.20 312.77
296 17.0292 82057.00 79343.00 286.46
297 17.0497 64404.00 62825.40 253.78
298 17.0702 48421.00 48937.30 220.05
299 17.0907 35883.00 38644.40 189.43
300 17.1111 28285.00 31364.10 168.18
301 17.1316 22822.00 26168.30 151.07
302 17.1521 19565.00 22422.40 139.88
303 17.1726 17188.00 19662.70 131.10
304 17.1931 15383.00 17585.00 124.03
305 17.2136 14174.00 15987.90 119.06
306 17.2341 13067.00 14737.20 114.31
307 17.2546 12758.00 13664.00 112.95
308 17.2750 11753.00 12864.50 108.41
309 17.2955 11415.00 12168.30 106.84
310 17.3160 10975.00 11624.00 104.76
311 17.3365 10613.00 11168.50 103.02
312 17.3570 10308.00 10783.60 101.53
313 17.3775 10175.00 10455.40 100.87
314 17.3980 9729.00 10173.60 98.64
315 17.4185 9631.00 9929.81 98.14
316 17.4389 9530.00 9718.47 97.62
317 17.4594 9567.00 9532.44 97.81
318 17.4799 9441.00 9368.61 97.16
319 17.5004 9290.00 9223.64 96.38
320 17.5209 9097.00 9094.74 95.38
321 17.5414 9007.00 8979.65 94.91
322 17.5619 8902.00 8876.49 94.35
323 17.5823 8934.00 8784.09 94.52
324 17.6028 8727.00 8700.25 93.42
325 17.6233 8762.00 8624.32 93.61
326 17.6438 8781.00 8555.34 93.71
327 17.6643 8702.00 8492.50 93.28
328 17.6847 8703.00 8435.11 93.29
329 17.7052 8554.00 8382.56 92.49
330 17.7257 8494.00 8334.32 92.16
331 17.7461 8532.00 8290.16 92.37
332 17.7666 8550.00 8249.26 92.47
333 17.7871 8607.00 8211.49 92.77
334 17.8076 8484.00 8176.54 92.11
335 17.8281 8400.00 8144.15 91.65
336 17.8486 8204.00 8114.08 90.58
337 17.8691 8315.00 8086.13 91.19
338 17.8896 8338.00 8060.10 91.31
339 17.9100 8318.00 8035.94 91.20
340 17.9305 8323.00 8013.27 91.23
341 17.9510 8309.00 7992.08 91.15
342 17.9715 8346.00 7972.25 91.36
343 17.9920 8419.00 7953.67 91.76
344 18.0125 8275.00 7936.23 90.97
345 18.0330 8194.00 7919.87 90.52
346 18.0535 8185.00 7904.48 90.47
347 18.0739 8341.00 7890.08 91.33
348 18.0944 8293.00 7876.46 91.07
349 18.1149 8145.00 7863.62 90.25
350 18.1354 8136.00 7851.51 90.20
351 18.1559 8146.00 7840.08 90.26
352 18.1764 8095.00 7829.29 89.97
353 18.1969 8227.00 7819.09 90.70
354 18.2173 8342.00 7809.50 91.33
355 18.2378 8193.00 7800.38 90.52
356 18.2583 8083.00 7791.74 89.91
357 18.2788 8219.00 7783.57 90.66
358 18.2993 8218.00 7834.51 90.65
359 18.3198 8242.00 7828.56 90.79
360 18.3403 8116.00 7823.03 90.09
361 18.3608 8091.00 7847.35 89.95
362 18.3812 8092.00 7843.35 89.96
363 18.4017 8121.00 7839.72 90.12
364 18.4222 7981.00 7836.49 89.34
365 18.4427 8075.00 7833.63 89.86
366 18.4632 7938.00 7831.14 89.10
367 18.4837 7957.00 7829.00 89.20
368 18.5042 7909.00 7827.21 88.93
369 18.5247 8105.00 7825.76 90.03
370 18.5451 8054.00 7824.65 89.74
371 18.5656 8077.00 7823.86 89.87
372 18.5861 8025.00 7702.45 89.58
373 18.6066 7939.00 7705.32 89.10
374 18.6271 7975.00 7648.41 89.30
375 18.6476 8063.00 7653.20 89.79
376 18.6681 8126.00 7658.16 90.14
377 18.6885 8277.00 7663.28 90.98
378 18.7090 7781.00 7668.60 88.21
379 18.7295 8023.00 7674.13 89.57
380 18.7500 8149.00 7679.87 90.27
381 18.7705 8118.00 7685.83 90.10
382 18.7910 8225.00 7692.04 90.69
383 18.8115 8204.00 7698.49 90.58
384 18.8320 8019.00 7705.22 89.55
385 18.8524 8085.00 7712.20 89.92
386 18.8729 8108.00 7719.51 90.04
387 18.8934 8101.00 7727.16 90.01
388 18.9139 8016.00 7735.16 89.53
389 18.9344 8253.00 7743.53 90.85
390 18.9549 8303.00 7752.30 91.12
391 18.9754 8279.00 7761.50 90.99
392 18.9959 8209.00 7771.17 90.60
393 19.0163 8288.00 7781.29 91.04
394 19.0368 8071.00 7792.00 89.84
395 19.0573 8173.00 7803.28 90.40
396 19.0778 8194.00 7815.20 90.52
397 19.0983 8325.00 7827.79 91.24
398 19.1188 8394.00 7841.13 91.62
399 19.1393 8165.00 7855.27 90.36
400 19.1598 8324.00 7870.29 91.24
401 19.1802 8518.00 7886.18 92.29
402 19.2007 8309.00 7903.19 91.15
403 19.2212 8291.00 7921.35 91.05
404 19.2417 8480.00 7940.77 92.09
405 19.2622 8398.00 7961.56 91.64
406 19.2827 8642.00 7983.89 92.96
407 19.3032 8483.00 8007.90 92.10
408 19.3236 8332.00 8033.66 91.28
409 19.3441 8577.00 8061.61 92.61
410 19.3646 8721.00 8091.89 93.39
411 19.3851 8736.00 8124.76 93.47
412 19.4056 8963.00 8160.54 94.67
413 19.4261 8853.00 8199.59 94.09
414 19.4466 8862.00 8242.35 94.14
415 19.4671 9004.00 8289.30 94.89
416 19.4875 8990.00 8340.77 94.82
417 19.5080 9052.00 8397.95 95.14
418 19.5285 9138.00 8461.40 95.59
419 19.5490 9254.00 8532.09 96.20
420 19.5695 9347.00 8611.18 96.68
421 19.5900 9689.00 8700.09 98.43
422 19.6105 9611.00 8800.52 98.04
423 19.6310 10007.00 8914.55 100.04
424 19.6514 10061.00 9044.10 100.31
425 19.6719 10304.00 9193.60 101.51
426 19.6924 10387.00 9366.57 101.92
427 19.7129 10796.00 9568.10 103.90
428 19.7334 10916.00 9804.85 104.48
429 19.7539 11211.00 10085.40 105.88
430 19.7744 11916.00 10421.10 109.16
431 19.7948 12393.00 10825.10 111.32
432 19.8153 13159.00 11321.60 114.71
433 19.8358 13833.00 11937.60 117.61
434 19.8563 15184.00 12712.90 123.22
435 19.8768 16243.00 13704.50 127.45
436 19.8973 17940.00 14995.50 133.94
437 19.9178 20057.00 16707.70 141.62
438 19.9383 22881.00 19020.60 151.26
439 19.9587 26202.00 22175.20 161.87
440 19.9792 30405.00 26543.30 174.37
441 19.9997 35174.00 32452.30 187.55
442 20.0202 39787.00 39866.70 199.47
443 20.0407 44401.00 47552.30 210.71
444 20.0612 47194.00 52739.80 217.24
445 20.0817 48348.00 53309.30 219.88
446 20.1022 46997.00 49845.10 216.79
447 20.1226 43840.00 43880.10 209.38
448 20.1431 39207.00 36826.00 198.01
449 20.1636 33717.00 30259.20 183.62
450 20.1841 28348.00 25002.00 168.37
451 20.2046 23898.00 21081.60 154.59
452 20.2251 20302.00 18218.30 142.49
453 20.2456 17295.00 16118.50 131.51
454 20.2661 15439.00 14555.90 124.25
455 20.2865 13788.00 13377.10 117.42
456 20.3070 12594.00 12462.70 112.22
457 20.3275 11814.00 11745.20 108.69
458 20.3480 11137.00 11173.30 105.53
459 20.3685 10615.00 10710.90 103.03
460 20.3890 10167.00 10332.20 100.83
461 20.4095 9943.00 10018.40 99.71
462 20.4299 9504.00 9756.97 97.49
463 20.4504 9311.00 9534.91 96.49
464 20.4709 9210.00 9345.68 95.97
465 20.4914 8892.00 9183.23 94.30
466 20.5119 8794.00 9042.75 93.78
467 20.5324 8695.00 8920.51 93.25
468 20.5529 8810.00 8813.53 93.86
469 20.5734 8687.00 8719.38 93.20
470 20.5938 8321.00 8636.51 91.22
471 20.6142 8327.00 8562.51 91.25
472 20.6347 8330.00 8496.49 91.27
473 20.6552 8287.00 8437.36 91.03
474 20.6757 8090.00 8384.20 89.94
475 20.6962 7968.00 8336.26 89.26
476 20.7167 8060.00 8292.87 89.78
477 20.7372 7976.00 8253.50 89.31
478 20.7576 7968.00 8217.83 89.26
479 20.7781 8091.00 8185.11 89.95
480 20.7986 7917.00 8155.19 88.98
481 20.8191 7768.00 8127.74 88.14
482 20.8396 7750.00 8102.52 88.03
483 20.8601 7841.00 8079.30 88.55
484 20.8806 7654.00 8057.88 87.49
485 20.9010 7662.00 8038.16 87.53
486 20.9215 7640.00 8019.81 87.41
487 20.9420 7668.00 8002.79 87.57
488 20.9625 7612.00 7986.97 87.25
489 20.9830 7698.00 7972.26 87.74
490 21.0035 7496.00 7958.54 86.58
491 21.0240 7485.00 7945.74 86.52
492 21.0445 7494.00 7933.78 86.57
493 21.0649 7533.00 7922.64 86.79
494 21.0854 7578.00 7912.15 87.05
495 21.1059 7428.00 7902.31 86.19
496 21.1264 7504.00 7893.07 86.63
497 21.1469 7392.00 7884.38 85.98
498 21.1674 7429.00 7876.21 86.19
499 21.1879 7415.00 7868.51 86.11
500 21.2084 7127.00 7861.25 84.42
501 21.2288 7143.00 7854.42 84.52
502 21.2493 7337.00 7847.95 85.66
503 21.2698 7432.00 7841.82 86.21
504 21.2903 7318.00 7836.02 85.55
505 21.3108 7271.00 7830.53 85.27
506 21.3313 7372.00 7825.32 85.86
507 21.3518 7364.00 7820.38 85.81
508 21.3722 7383.00 7815.70 85.92
509 21.3927 7424.00 7811.24 86.16
510 21.4132 7300.00 7807.00 85.44
511 21.4337 7310.00 7802.96 85.50
512 21.4542 7336.00 7799.11 85.65
513 21.4747 7231.00 7795.44 85.04
514 21.4952 7190.00 7791.93 84.79
515 21.5157 7281.00 7788.59 85.33
516 21.5361 7354.00 7785.41 85.76
517 21.5566 7321.00 7782.35 85.56
518 21.5771 7211.00 7779.43 84.92
519 21.5976 7175.00 7776.63 84.71
520 21.6181 7258.00 7773.95 85.19
521 21.6386 7138.00 7771.38 84.49
522 21.6591 7229.00 7768.91 85.02
523 21.6796 7415.00 7766.53 86.11
524 21.7000 7390.00 7764.27 85.97
525 21.7205 7341.00 7762.07 85.68
526 21.7410 7369.00 7759.96 85.84
527 21.7615 7299.00 7757.93 85.43
528 21.7820 7279.00 7755.97 85.32
529 21.8025 7098.00 7754.08 84.25
530 21.8230 7237.00 7752.26 85.07
531 21.8435 7233.00 7693.12 85.05
532 21.8639 7128.00 7692.71 84.43
533 21.8844 7019.00 7663.60 83.78
534 21.9049 7103.00 7663.86 84.28
535 21.9254 7182.00 7664.12 84.75
536 21.9459 7231.00 7664.36 85.04
537 21.9664 7271.00 7664.58 85.27
538 21.9869 7271.00 7664.80 85.27
539 22.0073 7192.00 7665.00 84.81
540 22.0278 7377.00 7665.19 85.89
541 22.0483 7286.00 7665.36 85.36
542 22.0688 7455.00 7665.53 86.34
543 22.0893 7270.00 7665.68 85.26
544 22.1098 7310.00 7665.82 85.50
545 22.1303 7222.00 7665.95 84.98
546 22.1508 7185.00 7666.06 84.76
547 22.1712 7185.00 7666.16 84.76
548 22.1917 7327.00 7666.25 85.60
549 22.2122 7250.00 7666.32 85.15
550 22.2327 7228.00 7666.38 85.02
551 22.2532 7410.00 7666.43 86.08
552 22.2737 7336.00 7666.47 85.65
553 22.2942 7326.00 7666.49 85.59
554 22.3147 7221.00 7666.50 84.98
555 22.3351 7190.00 7666.50 84.79
556 22.3556 7397.00 7666.49 86.01
557 22.3761 7338.00 7666.46 85.66
558 22.3966 7245.00 7666.42 85.12
559 22.4171 7233.00 7666.36 85.05
560 22.4376 7183.00 7666.29 84.75
561 22.4581 7356.00 7666.21 85.77
562 22.4785 7320.00 7666.12 85.56
563 22.4990 7057.00 7666.01 84.01
564 22.5195 7434.00 7665.89 86.22
565 22.5400 7356.00 7665.76 85.77
566 22.5605 7296.00 7665.61 85.42
567 22.5810 7186.00 7665.45 84.77
568 22.6015 7283.00 7665.28 85.34
569 22.6220 7258.00 7665.09 85.19
570 22.6424 7370.00 7664.90 85.85
571 22.6629 7425.00 7664.68 86.17
572 22.6834 7207.00 7664.46 84.89
573 22.7039 7314.00 7664.22 85.52
574 22.7244 7360.00 7663.97 85.79
575 22.7449 7435.00 7663.70 86.23
576 22.7654 7172.00 7663.42 84.69
577 22.7859 7449.00 7663.13 86.31
578 22.8063 7555.00 7662.83 86.92
579 22.8268 7266.00 7662.51 85.24
580 22.8473 7343.00 7662.18 85.69
581 22.8678 7486.00 7661.83 86.52
582 22.8883 7470.00 7661.47 86.43
583 22.9088 7338.00 7661.10 85.66
584 22.9293 7280.00 7660.72 85.32
585 22.9498 7329.00 7660.32 85.61
586 22.9702 7487.00 7659.91 86.53
587 22.9907 7413.00 7659.49 86.10
588 23.0112 7360.00 7659.05 85.79
589 23.0317 7408.00 7658.60 86.07
590 23.0522 7199.00 7658.13 84.85
591 23.0727 7147.00 7662.65 84.54
592 23.0931 7053.00 7662.26 83.98
593 23.1136 7193.00 7661.87 84.81
594 23.1340 7372.00 7663.93 85.86
595 23.1545 7506.00 7663.57 86.64
596 23.1750 7272.00 7663.19 85.28
597 23.1955 7408.00 7662.81 86.07
598 23.2160 7401.00 7662.42 86.03
599 23.2365 7277.00 7662.02 85.31
600 23.2570 7295.00 7661.62 85.41
601 23.2774 7230.00 7661.21 85.03
602 23.2979 7316.00 7660.80 85.53
603 23.3184 7439.00 7660.37 86.25
604 23.3389 7405.00 7659.95 86.05
605 23.3594 7329.00 7659.51 85.61
606 23.3799 7393.00 7659.08 85.98
607 23.4004 7474.00 7658.63 86.45
608 23.4209 7433.00 7658.19 86.21
609 23.4413 7422.00 7657.74 86.15
610 23.4618 7559.00 7657.29 86.94
611 23.4823 7370.00 7656.83 85.85
612 23.5028 7386.00 7656.37 85.94
613 23.5233 7482.00 7655.92 86.50
614 23.5438 7476.00 7655.46 86.46
615 23.5643 7548.00 7655.00 86.88
616 23.5847 7512.00 7654.54 86.67
617 23.6052 7247.00 7654.08 85.13
618 23.6257 7322.00 7653.63 85.57
619 23.6462 7491.00 7653.17 86.55
620 23.6667 7523.00 7652.73 86.74
621 23.6872 7469.00 7652.28 86.42
622 23.7077 7502.00 7651.84 86.61
623 23.7282 7511.00 7651.41 86.67
624 23.7486 7408.00 7650.99 86.07
625 23.7691 7541.00 7650.58 86.84
626 23.7896 7409.00 7650.18 86.08
627 23.8101 7378.00 7649.79 85.90
628 23.8306 7434.00 7649.42 86.22
629 23.8511 7531.00 7649.06 86.78
630 23.8716 7611.00 7648.72 87.24
631 23.8921 7564.00 7648.40 86.97
632 23.9125 7582.00 7648.10 87.07
633 23.9330 7648.00 7647.83 87.45
634 23.9535 7750.00 7647.58 88.03
635 23.9740 7708.00 7649.25 87.80
636 23.9945 7557.00 7649.11 86.93
637 24.0150 7392.00 7649.00 85.98
638 24.0355 7825.00 7649.87 88.46
639 24.0560 7603.00 7649.87 87.20
640 24.0764 7662.00 7649.92 87.53
641 24.0969 7610.00 7650.03 87.24
642 24.1174 7754.00 7650.20 88.06
643 24.1379 7543.00 7650.44 86.85
644 24.1584 7645.00 7650.75 87.44
645 24.1789 7648.00 7651.14 87.45
646 24.1994 7603.00 7651.63 87.20
647 24.2198 7668.00 7652.21 87.57
648 24.2403 7500.00 7652.91 86.60
649 24.2608 7567.00 7653.73 86.99
650 24.2813 7622.00 7654.69 87.30
651 24.3018 7659.00 7655.79 87.52
652 24.3223 7774.00 7657.06 88.17
653 24.3428 7641.00 7658.52 87.41
654 24.3633 7543.00 7660.19 86.85
655 24.3837 7654.00 7662.08 87.49
656 24.4042 7503.00 7664.24 86.62
657 24.4247 7621.00 7666.69 87.30
658 24.4452 7595.00 7669.47 87.15
659 24.4657 7595.00 7672.62 87.15
660 24.4862 7605.00 7676.19 87.21
661 24.5067 7706.00 7730.02 87.78
662 24.5272 7692.00 7735.61 87.70
663 24.5476 7740.00 7741.83 87.98
664 24.5681 7736.00 7773.35 87.95
665 24.5886 7701.00 7781.70 87.76
666 24.6091 7823.00 7791.08 88.45
667 24.6296 7706.00 7801.65 87.78
668 24.6501 7678.00 7813.61 87.62
669 24.6706 7778.00 7827.21 88.19
670 24.6910 7770.00 7842.67 88.15
671 24.7115 7697.00 7860.53 87.73
672 24.7320 7767.00 7881.19 88.13
673 24.7525 7925.00 7905.26 89.02
674 24.7730 7804.00 7933.51 88.34
675 24.7935 7784.00 7966.97 88.23
676 24.8140 7893.00 8006.96 88.84
677 24.8345 7873.00 8055.25 88.73
678 24.8549 7910.00 8113.91 88.94
679 24.8754 7923.00 8186.77 89.01
680 24.8959 8034.00 8278.10 89.63
681 24.9164 8097.00 8394.20 89.98
682 24.9369 8312.00 8543.92 91.17
683 24.9574 8349.00 8739.63 91.37
684 24.9779 8534.00 8997.88 92.38
685 24.9984 8803.00 9338.93 93.82
686 25.0188 9071.00 9778.17 95.24
687 25.0393 9369.00 10316.60 96.79
688 25.0598 9409.00 10890.30 97.00
689 25.0803 9837.00 11353.90 99.18
690 25.1008 9791.00 11553.80 98.95
691 25.1213 9761.00 11467.50 98.80
692 25.1418 9674.00 11179.90 98.36
693 25.1623 9502.00 10760.00 97.48
694 25.1827 9121.00 10269.70 95.50
695 25.2032 9178.00 9784.52 95.80
696 25.2237 8850.00 9367.95 94.07
697 25.2442 8589.00 9038.05 92.68
698 25.2647 8466.00 8786.25 92.01
699 25.2852 8172.00 8596.11 90.40
700 25.3057 8386.00 8452.16 91.58
701 25.3261 8356.00 8342.80 91.41
702 25.3465 8193.00 8258.19 90.52
703 25.3671 8160.00 8192.53 90.33
704 25.3875 8233.00 8141.32 90.74
705 25.4080 8268.00 8101.27 90.93
706 25.4285 8064.00 8070.02 89.80
707 25.4490 8088.00 8045.83 89.93
708 25.4695 7995.00 8027.42 89.41
709 25.4899 8094.00 8013.89 89.97
710 25.5104 8080.00 8004.41 89.89
711 25.5309 8088.00 7998.51 89.93
712 25.5514 8179.00 7995.82 90.44
713 25.5719 8095.00 7996.06 89.97
714 25.5924 8216.00 7999.06 90.64
715 25.6129 8202.00 8004.71 90.56
716 25.6334 8280.00 8012.99 90.99
717 25.6538 8340.00 8023.87 91.32
718 25.6743 8411.00 8037.58 91.71
719 25.6948 8487.00 8054.24 92.12
720 25.7153 8491.00 8074.15 92.15
721 25.7358 8633.00 8097.68 92.91
722 25.7563 8288.00 8125.34 91.04
723 25.7768 8632.00 8157.84 92.91
724 25.7972 8662.00 8195.87 93.07
725 25.8177 8662.00 8241.08 93.07
726 25.8382 8892.00 8294.98 94.30
727 25.8587 8940.00 8359.88 94.55
728 25.8792 8907.00 8438.98 94.38
729 25.8997 8946.00 8536.65 94.58
730 25.9202 9161.00 8658.72 95.71
731 25.9407 9335.00 8812.49 96.62
732 25.9611 9275.00 9036.61 96.31
733 25.9816 9623.00 9270.71 98.10
734 26.0021 9723.00 9531.62 98.61
735 26.0226 9942.00 9792.78 99.71
736 26.0431 10005.00 9964.49 100.03
737 26.0636 10359.00 10037.00 101.78
738 26.0841 10309.00 10034.10 101.53
739 26.1046 10366.00 9986.38 101.81
740 26.1250 10368.00 9914.03 101.82
741 26.1455 10524.00 9842.71 102.59
742 26.1660 10562.00 9801.95 102.77
743 26.1865 10667.00 9808.78 103.28
744 26.2070 10965.00 9867.87 104.71
745 26.2275 11289.00 9978.93 106.25
746 26.2480 11612.00 10141.80 107.76
747 26.2685 11830.00 10358.60 108.77
748 26.2889 12489.00 10633.40 111.75
749 26.3094 12954.00 10978.20 113.82
750 26.3299 13720.00 11405.70 117.13
751 26.3504 14636.00 11935.90 120.98
752 26.3709 15292.00 12596.50 123.66
753 26.3914 16277.00 13426.20 127.58
754 26.4119 17450.00 14479.00 132.10
755 26.4323 19126.00 15822.50 138.30
756 26.4528 21053.00 17573.30 145.10
757 26.4733 23341.00 19864.80 152.78
758 26.4938 25691.00 22870.30 160.28
759 26.5143 28314.00 26761.70 168.27
760 26.5348 31131.00 31588.40 176.44
761 26.5553 33606.00 37008.00 183.32
762 26.5758 35957.00 41976.90 189.62
763 26.5962 37613.00 45000.80 193.94
764 26.6167 38492.00 45336.00 196.19
765 26.6372 38541.00 43456.90 196.32
766 26.6577 37968.00 40137.90 194.85
767 26.6782 36162.00 35830.70 190.16
768 26.6987 33982.00 31096.20 184.34
769 26.7192 30541.00 26630.20 174.76
770 26.7397 27421.00 22863.00 165.59
771 26.7601 24492.00 19888.60 156.50
772 26.7806 21991.00 17578.40 148.29
773 26.8011 19390.00 15802.40 139.25
774 26.8216 17355.00 14429.10 131.74
775 26.8421 15606.00 13356.00 124.92
776 26.8626 14481.00 12506.70 120.34
777 26.8831 13397.00 11826.10 115.75
778 26.9035 12430.00 11276.30 111.49
779 26.9240 11848.00 10822.80 108.85
780 26.9445 11507.00 10446.90 107.27
781 26.9650 10798.00 10132.30 103.91
782 26.9855 10534.00 9866.94 102.64
783 27.0060 10218.00 9641.25 101.08
784 27.0265 10220.00 9448.08 101.09
785 27.0470 9632.00 9281.76 98.14
786 27.0674 9685.00 9138.46 98.41
787 27.0879 9529.00 9013.25 97.62
788 27.1084 9424.00 8904.02 97.08
789 27.1289 9286.00 8803.54 96.36
790 27.1494 9107.00 8719.83 95.43
791 27.1699 8914.00 8646.33 94.41
792 27.1904 9193.00 8579.37 95.88
793 27.2109 9018.00 8522.78 94.96
794 27.2313 9021.00 8473.47 94.98
795 27.2518 8946.00 8430.23 94.58
796 27.2723 8803.00 8392.73 93.82
797 27.2928 8828.00 8360.48 93.96
798 27.3133 8919.00 8333.09 94.44
799 27.3338 8680.00 8310.26 93.17
800 27.3543 8754.00 8291.73 93.56
801 27.3747 8799.00 8277.38 93.80
802 27.3952 8805.00 8266.96 93.83
803 27.4157 8719.00 8260.49 93.38
804 27.4362 8582.00 8257.94 92.64
805 27.4566 8643.00 8259.38 92.97
806 27.4771 8612.00 8264.89 92.80
807 27.4976 8642.00 8274.64 92.96
808 27.5181 8710.00 8288.87 93.33
809 27.5385 8615.00 8307.77 92.82
810 27.5590 8516.00 8331.92 92.28
811 27.5795 8465.00 8361.72 92.01
812 27.6000 8435.00 8397.77 91.84
813 27.6205 8530.00 8440.83 92.36
814 27.6410 8605.00 8491.79 92.76
815 27.6615 8621.00 8551.79 92.85
816 27.6820 8723.00 8622.21 93.40
817 27.7024 8773.00 8704.31 93.66
818 27.7229 8729.00 8801.03 93.43
819 27.7434 8821.00 8914.63 93.92
820 27.7639 8769.00 9048.45 93.64
821 27.7844 9100.00 9206.74 95.39
822 27.8049 9065.00 9394.93 95.21
823 27.8254 9044.00 9620.02 95.10
824 27.8459 9276.00 9891.28 96.31
825 27.8663 9453.00 10219.10 97.23
826 27.8868 9678.00 10622.80 98.38
827 27.9073 9869.00 11123.00 99.34
828 27.9278 10603.00 11749.60 102.97
829 27.9483 11039.00 12544.00 105.07
830 27.9688 11557.00 13561.60 107.50
831 27.9893 12740.00 14878.00 112.87
832 28.0097 14068.00 16579.00 118.61
833 28.0302 16051.00 18785.30 126.69
834 28.0507 19309.00 21564.70 138.96
835 28.0712 23414.00 24824.90 153.02
836 28.0917 27592.00 28161.60 166.11
837 28.1122 32632.00 30777.20 180.64
838 28.1327 35253.00 31910.10 187.76
839 28.1532 35380.00 31480.20 188.10
840 28.1736 32863.00 29961.80 181.28
841 28.1941 29832.00 27707.00 172.72
842 28.2146 26063.00 24941.50 161.44
843 28.2351 22599.00 22008.90 150.33
844 28.2556 18723.00 19295.60 136.83
845 28.2761 15898.00 17015.70 126.09
846 28.2966 13599.00 15198.10 116.61
847 28.3171 12158.00 13780.60 110.26
848 28.3375 11059.00 12683.80 105.16
849 28.3580 10504.00 11821.60 102.49
850 28.3785 9965.00 11140.80 99.82
851 28.3990 9586.00 10596.80 97.91
852 28.4195 9115.00 10156.70 95.47
853 28.4400 8903.00 9796.62 94.36
854 28.4605 8854.00 9498.54 94.10
855 28.4809 8778.00 9250.42 93.69
856 28.5014 8764.00 9039.81 93.62
857 28.5219 8582.00 8860.44 92.64
858 28.5424 8517.00 8706.44 92.29
859 28.5629 8597.00 8573.23 92.72
860 28.5834 8308.00 8457.22 91.15
861 28.6039 8345.00 8355.54 91.35
862 28.6244 8126.00 8265.90 90.14
863 28.6448 8010.00 8186.82 89.50
864 28.6653 8046.00 8116.00 89.70
865 28.6858 8122.00 8052.62 90.12
866 28.7063 8143.00 7947.04 90.24
867 28.7268 8077.00 7896.55 89.87
868 28.7473 8128.00 7850.87 90.16
869 28.7678 8037.00 7785.20 89.65
870 28.7883 7874.00 7747.88 88.74
871 28.8087 8003.00 7713.97 89.46
872 28.8292 7678.00 7682.76 87.62
873 28.8497 7712.00 7654.11 87.82
874 28.8702 7964.00 7627.73 89.24
875 28.8907 7835.00 7603.40 88.52
876 28.9112 7749.00 7580.90 88.03
877 28.9317 7845.00 7560.06 88.57
878 28.9522 7907.00 7540.71 88.92
879 28.9726 8080.00 7522.80 89.89
880 28.9931 7957.00 7527.64 89.20
881 29.0136 7988.00 7512.38 89.38
882 29.0341 7749.00 7498.16 88.03
883 29.0546 7774.00 7495.44 88.17
884 29.0751 7789.00 7483.25 88.26
885 29.0956 7768.00 7471.87 88.14
886 29.1160 7960.00 7461.31 89.22
887 29.1365 7972.00 7451.41 89.29
888 29.1570 7933.00 7442.17 89.07
889 29.1775 7766.00 7433.56 88.12
890 29.1980 7809.00 7425.53 88.37
891 29.2185 7716.00 7418.06 87.84
892 29.2390 7676.00 7411.12 87.61
893 29.2595 7787.00 7404.69 88.24
894 29.2799 7846.00 7398.76 88.58
895 29.3004 7852.00 7393.27 88.61
896 29.3209 7809.00 7409.11 88.37
897 29.3414 7679.00 7404.88 87.63
898 29.3619 7781.00 7401.09 88.21
899 29.3824 7825.00 7397.73 88.46
900 29.4029 7779.00 7405.15 88.20
901 29.4233 7655.00 7402.83 87.49
902 29.4437 7822.00 7403.58 88.44
903 29.4642 7931.00 7402.17 89.06
904 29.4847 7681.00 7401.22 87.64
905 29.5052 7695.00 7400.72 87.72
906 29.5257 7795.00 7401.99 88.29
907 29.5462 7791.00 7402.48 88.27
908 29.5667 7851.00 7403.47 88.61
909 29.5871 7952.00 7404.99 89.17
910 29.6076 7879.00 7407.09 88.76
911 29.6281 7833.00 7409.79 88.50
912 29.6486 7786.00 7413.14 88.24
913 29.6691 7959.00 7417.19 89.21
914 29.6896 7875.00 7422.00 88.74
915 29.7101 7773.00 7427.63 88.16
916 29.7306 7905.00 7436.07 88.91
917 29.7510 7913.00 7443.62 88.96
918 29.7715 7892.00 7452.32 88.84
919 29.7920 7677.00 7463.21 87.62
920 29.8125 8014.00 7474.61 89.52
921 29.8330 7958.00 7487.62 89.21
922 29.8535 7897.00 7502.48 88.87
923 29.8740 7977.00 7519.47 89.31
924 29.8945 7859.00 7538.93 88.65
925 29.9149 8013.00 7561.18 89.52
926 29.9354 7929.00 7586.93 89.04
927 29.9559 7954.00 7616.75 89.19
928 29.9764 7833.00 7651.46 88.50
929 29.9969 7982.00 7692.09 89.34
930 30.0174 8025.00 7739.99 89.58
931 30.0379 8158.00 7796.88 90.32
932 30.0584 8183.00 7865.04 90.46
933 30.0788 8218.00 7946.97 90.65
934 30.0993 8612.00 8047.41 92.80
935 30.1198 8448.00 8171.05 91.91
936 30.1403 8434.00 8324.38 91.84
937 30.1608 8706.00 8515.12 93.31
938 30.1813 8943.00 8751.98 94.57
939 30.2018 9237.00 9044.10 96.11
940 30.2222 9463.00 9400.27 97.28
941 30.2427 10011.00 9837.71 100.06
942 30.2632 10420.00 10364.00 102.08
943 30.2837 11219.00 10960.30 105.92
944 30.3042 11788.00 11516.70 108.57
945 30.3247 12721.00 11962.20 112.79
946 30.3452 12906.00 12147.00 113.61
947 30.3657 13154.00 12065.90 114.69
948 30.3861 12872.00 11786.60 113.46
949 30.4066 12428.00 11402.30 111.48
950 30.4271 11678.00 10927.20 108.07
951 30.4476 11185.00 10405.80 105.76
952 30.4681 10644.00 9902.68 103.17
953 30.4886 9955.00 9465.24 99.77
954 30.5091 9523.00 9109.51 97.59
955 30.5296 9406.00 8830.50 96.98
956 30.5500 9137.00 8616.18 95.59
957 30.5705 8959.00 8451.19 94.65
958 30.5910 8727.00 8325.43 93.42
959 30.6115 8768.00 8230.13 93.64
960 30.6320 8836.00 8158.75 94.00
961 30.6525 8787.00 8106.43 93.74
962 30.6730 8774.00 8069.65 93.67
963 30.6934 8750.00 8045.93 93.54
964 30.7139 8689.00 8033.20 93.21
965 30.7344 8512.00 8030.30 92.26
966 30.7549 9028.00 8036.36 95.02
967 30.7754 8770.00 8050.84 93.65
968 30.7959 8914.00 8073.51 94.41
969 30.8164 8948.00 8104.37 94.59
970 30.8369 8810.00 8143.67 93.86
971 30.8573 8981.00 8191.65 94.77
972 30.8778 9065.00 8249.53 95.21
973 30.8983 8932.00 8318.10 94.51
974 30.9188 9330.00 8398.76 96.59
975 30.9393 9645.00 8493.24 98.21
976 30.9598 9632.00 8603.81 98.14
977 30.9803 9663.00 8733.32 98.30
978 31.0008 10039.00 8885.52 100.19
979 31.0212 10204.00 9064.15 101.01
980 31.0417 10608.00 9277.12 103.00
981 31.0622 10837.00 9531.64 104.10
982 31.0827 11182.00 9838.25 105.75
983 31.1032 11832.00 10211.00 108.78
984 31.1237 12129.00 10668.50 110.13
985 31.1442 12761.00 11235.60 112.96
986 31.1647 13500.00 11945.80 116.19
987 31.1851 14459.00 12837.00 120.25
988 31.2056 15466.00 13970.90 124.36
989 31.2260 16677.00 15399.50 129.14
990 31.2465 17888.00 17160.10 133.75
991 31.2670 19489.00 19217.70 139.60
992 31.2875 20674.00 21380.60 143.79
993 31.3080 21362.00 23255.10 146.16
994 31.3284 22264.00 24389.90 149.21
995 31.3489 22818.00 24622.80 151.06
996 31.3694 22793.00 24142.80 150.97
997 31.3899 22570.00 23220.80 150.23
998 31.4104 21873.00 21988.00 147.90
999 31.4309 20857.00 20549.00 144.42
1000 31.4514 19305.00 19102.00 138.94
1001 31.4719 18384.00 17860.80 135.59
1002 31.4923 17106.00 16960.90 130.79
1003 31.5128 16460.00 16448.60 128.30
1004 31.5333 15866.00 16322.40 125.96
1005 31.5538 15521.00 16593.50 124.58
1006 31.5743 15938.00 17274.80 126.25
1007 31.5948 16449.00 18383.20 128.25
1008 31.6153 18474.00 19889.50 135.92
1009 31.6358 20967.00 21668.40 144.80
1010 31.6562 23874.00 23401.70 154.51
1011 31.6767 27087.00 24662.40 164.58
1012 31.6972 28460.00 25122.40 168.70
1013 31.7177 27932.00 24828.90 167.13
1014 31.7382 26604.00 24045.80 163.11
1015 31.7587 24396.00 22942.50 156.19
1016 31.7792 22279.00 21563.60 149.26
1017 31.7996 19431.00 19994.90 139.40
1018 31.8201 17280.00 18368.30 131.45
1019 31.8406 14973.00 16835.70 122.36
1020 31.8611 13333.00 15485.30 115.47
1021 31.8816 12097.00 14336.10 109.99
1022 31.9021 11313.00 13368.00 106.36
1023 31.9226 10694.00 12544.50 103.41
1024 31.9431 10341.00 11861.60 101.69
1025 31.9635 9964.00 11314.00 99.82
1026 31.9840 9796.00 10891.20 98.97
1027 32.0045 9340.00 10584.80 96.64
1028 32.0250 9162.00 10380.80 95.72
1029 32.0455 8992.00 10261.10 94.83
1030 32.0660 8875.00 10196.90 94.21
1031 32.0865 8707.00 10145.70 93.31
1032 32.1070 8814.00 10062.20 93.88
1033 32.1274 8611.00 9925.46 92.80
1034 32.1479 8528.00 9744.85 92.35
1035 32.1684 8577.00 9540.31 92.61
1036 32.1889 8334.00 9320.15 91.29
1037 32.2094 8370.00 9088.92 91.49
1038 32.2299 8284.00 8858.94 91.02
1039 32.2504 8159.00 8645.85 90.33
1040 32.2708 7971.00 8460.15 89.28
1041 32.2913 7995.00 8301.95 89.41
1042 32.3118 7999.00 8169.60 89.44
1043 32.3323 8018.00 8058.86 89.54
1044 32.3528 8033.00 7965.63 89.63
1045 32.3733 7893.00 7886.41 88.84
1046 32.3938 7993.00 7818.44 89.40
1047 32.4143 7995.00 7759.54 89.41
1048 32.4347 7883.00 7708.31 88.79
1049 32.4552 7810.00 7662.91 88.37
1050 32.4757 7832.00 7622.62 88.50
1051 32.4962 7764.00 7586.63 88.11
1052 32.5167 7855.00 7554.08 88.63
1053 32.5372 7851.00 7524.93 88.61
1054 32.5577 7503.00 7498.52 86.62
1055 32.5782 7551.00 7474.50 86.90
1056 32.5986 7563.00 7452.58 86.97
1057 32.6191 7827.00 7432.54 88.47
1058 32.6396 7818.00 7408.09 88.42
1059 32.6601 7777.00 7391.33 88.19
1060 32.6806 7754.00 7375.93 88.06
1061 32.7011 7620.00 7361.75 87.29
1062 32.7216 7539.00 7345.69 86.83
1063 32.7421 7650.00 7333.71 87.46
1064 32.7625 7491.00 7322.73 86.55
1065 32.7830 7474.00 7312.57 86.45
1066 32.8035 7679.00 7303.22 87.63
1067 32.8240 7566.00 7294.63 86.98
1068 32.8445 7715.00 7286.76 87.84
1069 32.8650 7547.00 7279.56 86.87
1070 32.8855 7612.00 7272.99 87.25
1071 32.9059 7717.00 7267.07 87.85
1072 32.9264 7648.00 7261.70 87.45
1073 32.9469 7577.00 7256.89 87.05
1074 32.9674 7801.00 7252.62 88.32
1075 32.9879 7723.00 7248.89 87.88
1076 33.0083 7512.00 7245.67 86.67
1077 33.0288 7465.00 7242.97 86.40
1078 33.0493 7578.00 7240.78 87.05
1079 33.0697 7382.00 7239.10 85.92
1080 33.0902 7492.00 7237.92 86.56
1081 33.1107 7586.00 7237.26 87.10
1082 33.1312 7429.00 7237.13 86.19
1083 33.1517 7598.00 7237.53 87.17
1084 33.1722 7526.00 7238.49 86.75
1085 33.1927 7445.00 7240.03 86.28
1086 33.2132 7518.00 7242.18 86.71
1087 33.2336 7430.00 7244.94 86.20
1088 33.2541 7384.00 7248.40 85.93
1089 33.2746 7441.00 7252.57 86.26
1090 33.2951 7207.00 7257.52 84.89
1091 33.3156 7523.00 7263.29 86.74
1092 33.3361 7551.00 7269.98 86.90
1093 33.3566 7618.00 7277.66 87.28
1094 33.3770 7411.00 7286.38 86.09
1095 33.3975 7580.00 7296.34 87.06
1096 33.4180 7573.00 7307.64 87.02
1097 33.4385 7577.00 7320.44 87.05
1098 33.4590 7635.00 7334.93 87.38
1099 33.4795 7579.00 7351.32 87.06
1100 33.5000 7431.00 7369.89 86.20
1101 33.5205 7524.00 7390.95 86.74
1102 33.5409 7552.00 7414.76 86.90
1103 33.5614 7471.00 7442.02 86.43
1104 33.5819 7804.00 7473.18 88.34
1105 33.6024 7859.00 7508.94 88.65
1106 33.6229 7642.00 7550.15 87.42
1107 33.6434 7685.00 7597.89 87.66
1108 33.6639 7818.00 7653.49 88.42
1109 33.6844 7795.00 7697.59 88.29
1110 33.7048 7843.00 7774.49 88.56
1111 33.7253 7920.00 7866.31 88.99
1112 33.7458 8075.00 7976.34 89.86
1113 33.7663 8228.00 8098.95 90.71
1114 33.7868 8282.00 8261.50 91.01
1115 33.8073 8401.00 8461.67 91.66
1116 33.8278 8663.00 8710.17 93.08
1117 33.8483 8932.00 9020.69 94.51
1118 33.8687 9153.00 9407.08 95.67
1119 33.8892 9498.00 9889.26 97.46
1120 33.9097 9984.00 10474.50 99.92
1121 33.9302 10773.00 11149.60 103.79
1122 33.9507 11143.00 11855.80 105.56
1123 33.9712 11603.00 12477.10 107.72
1124 33.9917 11689.00 12878.20 108.12
1125 34.0121 11842.00 12992.60 108.82
1126 34.0326 11732.00 12866.40 108.31
1127 34.0531 11809.00 12566.20 108.67
1128 34.0736 11161.00 12183.90 105.65
1129 34.0941 10597.00 11718.00 102.94
1130 34.1146 10348.00 11206.90 101.72
1131 34.1351 9857.00 10703.70 99.28
1132 34.1556 9343.00 10284.00 96.66
1133 34.1760 8996.00 9967.46 94.85
1134 34.1965 8866.00 9756.05 94.16
1135 34.2170 8799.00 9655.04 93.80
1136 34.2375 8555.00 9658.27 92.49
1137 34.2580 8774.00 9762.12 93.67
1138 34.2785 8845.00 9957.66 94.05
1139 34.2990 8842.00 10226.00 94.03
1140 34.3195 9116.00 10517.60 95.48
1141 34.3399 9314.00 10754.90 96.51
1142 34.3604 9153.00 10865.10 95.67
1143 34.3809 8954.00 10820.40 94.63
1144 34.4014 8964.00 10653.80 94.68
1145 34.4219 8653.00 10411.30 93.02
1146 34.4424 8580.00 10114.30 92.63
1147 34.4629 8326.00 9776.99 91.25
1148 34.4833 7943.00 9414.29 89.12
1149 34.5038 7988.00 9059.17 89.38
1150 34.5243 7770.00 8743.59 88.15
1151 34.5448 7419.00 8478.87 86.13
1152 34.5653 7543.00 8259.40 86.85
1153 34.5858 7332.00 8080.25 85.63
1154 34.6063 7325.00 7935.67 85.59
1155 34.6268 7304.00 7817.86 85.46
1156 34.6471 7221.00 7721.59 84.98
1157 34.6676 7348.00 7641.43 85.72
1158 34.6881 7213.00 7574.46 84.93
1159 34.7086 7215.00 7518.01 84.94
1160 34.7291 7224.00 7470.04 84.99
1161 34.7496 7053.00 7428.96 83.98
1162 34.7701 6880.00 7393.53 82.95
1163 34.7906 7224.00 7362.78 84.99
1164 34.8110 7178.00 7336.05 84.72
1165 34.8315 7143.00 7312.47 84.52
1166 34.8520 7115.00 7291.68 84.35
1167 34.8725 7023.00 7273.26 83.80
1168 34.8930 6931.00 7256.90 83.25
1169 34.9135 6991.00 7242.29 83.61
1170 34.9340 7180.00 7229.21 84.73
1171 34.9545 7041.00 7217.48 83.91
1172 34.9749 6977.00 7206.97 83.53
1173 34.9954 7214.00 7197.45 84.94
1174 35.0159 6927.00 7188.85 83.23
1175 35.0364 6941.00 7181.08 83.31
1176 35.0569 7024.00 7174.03 83.81
1177 35.0774 6992.00 7167.65 83.62
1178 35.0979 7034.00 7161.86 83.87
1179 35.1183 6905.00 7156.62 83.10
1180 35.1388 6983.00 7151.85 83.56
1181 35.1593 7074.00 7147.52 84.11
1182 35.1798 7039.00 7143.59 83.90
1183 35.2003 7008.00 7140.03 83.71
1184 35.2208 6984.00 7136.81 83.57
1185 35.2413 7024.00 7133.90 83.81
1186 35.2618 6975.00 7131.28 83.52
1187 35.2822 6900.00 7128.93 83.07
1188 35.3027 7156.00 7126.82 84.59
1189 35.3232 6964.00 7124.94 83.45
1190 35.3437 6747.00 7123.27 82.14
1191 35.3642 7056.00 7121.80 84.00
1192 35.3847 6994.00 7120.52 83.63
1193 35.4052 6896.00 7124.85 83.04
1194 35.4257 6937.00 7123.99 83.29
1195 35.4461 6900.00 7123.29 83.07
1196 35.4666 6953.00 7122.74 83.38
1197 35.4871 6856.00 7124.99 82.80
1198 35.5076 6980.00 7124.76 83.55
1199 35.5281 6909.00 7124.66 83.12
1200 35.5486 6947.00 7124.68 83.35
1201 35.5691 6831.00 7124.83 82.65
1202 35.5895 6959.00 7125.09 83.42
1203 35.6100 7042.00 7125.46 83.92
1204 35.6305 6945.00 7125.94 83.34
1205 35.6510 7031.00 7126.52 83.85
1206 35.6715 6982.00 7127.21 83.56
1207 35.6920 7009.00 7128.00 83.72
1208 35.7125 7109.00 7129.21 84.31
1209 35.7330 6928.00 7130.20 83.23
1210 35.7534 6923.00 7131.28 83.20
1211 35.7739 6793.00 7132.46 82.42
1212 35.7944 7047.00 7133.74 83.95
1213 35.8149 6970.00 7135.27 83.49
1214 35.8354 6980.00 7136.75 83.55
1215 35.8559 6982.00 7138.32 83.56
1216 35.8764 6964.00 7139.98 83.45
1217 35.8969 7059.00 7141.75 84.02
1218 35.9173 7110.00 7143.60 84.32
1219 35.9378 7142.00 7145.57 84.51
1220 35.9583 6972.00 7147.64 83.50
1221 35.9788 7056.00 7149.82 84.00
1222 35.9993 7143.00 7152.12 84.52
1223 36.0198 7111.00 7154.52 84.33
1224 36.0403 6891.00 7157.05 83.01
1225 36.0608 6971.00 7159.70 83.49
1226 36.0812 7208.00 7162.46 84.90
1227 36.1017 7002.00 7165.38 83.68
1228 36.1222 6935.00 7168.44 83.28
1229 36.1427 7035.00 7171.65 83.87
1230 36.1632 7027.00 7175.02 83.83
1231 36.1837 7175.00 7178.57 84.71
1232 36.2041 7162.00 7182.29 84.63
1233 36.2245 7049.00 7186.19 83.96
1234 36.2450 7058.00 7190.32 84.01
1235 36.2655 7250.00 7194.67 85.15
1236 36.2860 6814.00 7199.27 82.55
1237 36.3065 7100.00 7204.13 84.26
1238 36.3270 7204.00 7209.27 84.88
1239 36.3475 7069.00 7214.72 84.08
1240 36.3680 7058.00 7220.52 84.01
1241 36.3884 7124.00 7226.65 84.40
1242 36.4089 7168.00 7233.23 84.66
1243 36.4294 7293.00 7240.26 85.40
1244 36.4499 7132.00 7247.79 84.45
1245 36.4704 7166.00 7255.88 84.65
1246 36.4909 7270.00 7257.12 85.26
1247 36.5114 7303.00 7266.66 85.46
1248 36.5319 7117.00 7276.98 84.36
1249 36.5523 7131.00 7288.12 84.45
1250 36.5728 7147.00 7300.33 84.54
1251 36.5933 7155.00 7310.03 84.59
1252 36.6138 7239.00 7324.75 85.08
1253 36.6343 7366.00 7341.00 85.83
1254 36.6548 7217.00 7358.99 84.95
1255 36.6753 7166.00 7379.03 84.65
1256 36.6957 7245.00 7401.35 85.12
1257 36.7162 7252.00 7426.60 85.16
1258 36.7367 7208.00 7455.19 84.90
1259 36.7572 7448.00 7487.78 86.30
1260 36.7777 7504.00 7525.19 86.63
1261 36.7982 7393.00 7568.44 85.98
1262 36.8187 7621.00 7618.84 87.30
1263 36.8392 7454.00 7677.93 86.34
1264 36.8596 7610.00 7747.70 87.24
1265 36.8801 7700.00 7827.24 87.75
1266 36.9006 7695.00 7928.36 87.72
1267 36.9211 7986.00 8051.34 89.36
1268 36.9416 8164.00 8201.98 90.35
1269 36.9621 8277.00 8385.46 90.98
1270 36.9826 8591.00 8614.36 92.69
1271 37.0031 8715.00 8894.59 93.35
1272 37.0235 9327.00 9228.93 96.58
1273 37.0440 9906.00 9614.58 99.53
1274 37.0645 9875.00 10023.20 99.37
1275 37.0850 10291.00 10399.70 101.44
1276 37.1055 10667.00 10672.10 103.28
1277 37.1260 10910.00 10789.70 104.45
1278 37.1465 10961.00 10756.70 104.69
1279 37.1670 10887.00 10617.80 104.34
1280 37.1874 10624.00 10413.60 103.07
1281 37.2079 10265.00 10155.80 101.32
1282 37.2284 9855.00 9859.78 99.27
1283 37.2489 9742.00 9529.09 98.70
1284 37.2694 9028.00 9203.15 95.02
1285 37.2899 8821.00 8907.62 93.92
1286 37.3104 8629.00 8654.94 92.89
1287 37.3308 8437.00 8451.42 91.85
1288 37.3513 8146.00 8282.26 90.26
1289 37.3718 8115.00 8146.31 90.08
1290 37.3923 7956.00 8037.26 89.20
1291 37.4128 7879.00 7949.80 88.76
1292 37.4333 7810.00 7879.60 88.37
1293 37.4538 7747.00 7823.30 88.02
1294 37.4743 7800.00 7778.30 88.32
1295 37.4947 7757.00 7742.73 88.07
1296 37.5152 7720.00 7714.73 87.86
1297 37.5357 7521.00 7693.33 86.72
1298 37.5562 7583.00 7677.68 87.08
1299 37.5767 7648.00 7667.12 87.45
1300 37.5972 7590.00 7661.19 87.12
1301 37.6177 7768.00 7659.60 88.14
1302 37.6381 7589.00 7662.19 87.11
1303 37.6586 7710.00 7668.88 87.81
1304 37.6791 7615.00 7679.83 87.26
1305 37.6995 7704.00 7695.23 87.77
1306 37.7200 7794.00 7715.44 88.28
1307 37.7405 7770.00 7741.72 88.15
1308 37.7610 7809.00 7773.32 88.37
1309 37.7815 7865.00 7811.90 88.68
1310 37.8019 8025.00 7858.46 89.58
1311 37.8224 8041.00 7915.04 89.67
1312 37.8429 8036.00 8000.45 89.64
1313 37.8634 7920.00 8083.83 88.99
1314 37.8839 7912.00 8185.36 88.95
1315 37.9044 8223.00 8309.62 90.68
1316 37.9249 8405.00 8462.40 91.68
1317 37.9454 8460.00 8668.83 91.98
1318 37.9658 8581.00 8900.62 92.63
1319 37.9863 8751.00 9186.54 93.55
1320 38.0068 9020.00 9537.10 94.97
1321 38.0273 9299.00 9941.95 96.43
1322 38.0478 9288.00 10387.20 96.37
1323 38.0683 9499.00 10826.60 97.46
1324 38.0888 9886.00 11187.70 99.43
1325 38.1093 9860.00 11400.30 99.30
1326 38.1297 10145.00 11440.00 100.72
1327 38.1502 10190.00 11339.40 100.95
1328 38.1707 9876.00 11149.30 99.38
1329 38.1912 9935.00 10899.00 99.67
1330 38.2117 9810.00 10595.00 99.05
1331 38.2322 9535.00 10247.60 97.65
1332 38.2527 9256.00 9884.27 96.21
1333 38.2731 8998.00 9539.93 94.86
1334 38.2936 8843.00 9234.59 94.04
1335 38.3141 8501.00 8979.36 92.20
1336 38.3346 8573.00 8773.81 92.59
1337 38.3551 8250.00 8612.59 90.83
1338 38.3756 8084.00 8488.53 89.91
1339 38.3961 7979.00 8393.78 89.33
1340 38.4166 8005.00 8319.81 89.47
1341 38.4370 7949.00 8258.13 89.16
1342 38.4575 7765.00 8200.92 88.12
1343 38.4780 7989.00 8145.04 89.38
1344 38.4985 8069.00 8090.65 89.83
1345 38.5190 7927.00 8038.93 89.03
1346 38.5395 8026.00 7989.95 89.59
1347 38.5600 7783.00 7942.94 88.22
1348 38.5805 7786.00 7897.76 88.24
1349 38.6009 7874.00 7855.63 88.74
1350 38.6214 7898.00 7817.43 88.87
1351 38.6419 7868.00 7784.17 88.70
1352 38.6624 7787.00 7755.93 88.24
1353 38.6829 7669.00 7732.31 87.57
1354 38.7034 7848.00 7712.72 88.59
1355 38.7239 7817.00 7706.70 88.41
1356 38.7444 7686.00 7693.57 87.67
1357 38.7648 7466.00 7682.93 86.41
1358 38.7853 7767.00 7674.30 88.13
1359 38.8058 7622.00 7667.43 87.30
1360 38.8263 7690.00 7667.10 87.69
1361 38.8468 7714.00 7663.17 87.83
1362 38.8673 7849.00 7660.41 88.59
1363 38.8878 7571.00 7658.71 87.01
1364 38.9082 7636.00 7657.96 87.38
1365 38.9287 7777.00 7658.07 88.19
1366 38.9492 7685.00 7658.99 87.66
1367 38.9697 7811.00 7660.65 88.38
1368 38.9902 7725.00 7663.02 87.89
1369 39.0107 7900.00 7666.06 88.88
1370 39.0312 7835.00 7669.74 88.52
1371 39.0517 7942.00 7674.05 89.12
1372 39.0721 7876.00 7678.96 88.75
1373 39.0926 7846.00 7684.49 88.58
1374 39.1131 7833.00 7690.64 88.50
1375 39.1335 7869.00 7697.40 88.71
1376 39.1540 7803.00 7704.79 88.33
1377 39.1745 7984.00 7712.82 89.35
1378 39.1950 8028.00 7721.51 89.60
1379 39.2155 7911.00 7730.89 88.94
1380 39.2359 7877.00 7740.94 88.75
1381 39.2564 8002.00 7751.79 89.45
1382 39.2769 7936.00 7763.44 89.08
1383 39.2974 7957.00 7775.95 89.20
1384 39.3179 7966.00 7789.37 89.25
1385 39.3384 8055.00 7803.78 89.75
1386 39.3589 7903.00 7819.24 88.90
1387 39.3793 8060.00 7835.79 89.78
1388 39.3998 8149.00 7853.67 90.27
1389 39.4203 8134.00 7872.94 90.19
1390 39.4408 8190.00 7893.74 90.50
1391 39.4613 8279.00 7916.23 90.99
1392 39.4818 8327.00 7940.59 91.25
1393 39.5023 8174.00 7967.06 90.41
1394 39.5228 8337.00 7995.90 91.31
1395 39.5432 8368.00 8027.24 91.48
1396 39.5637 8226.00 8061.76 90.70
1397 39.5842 8271.00 8099.73 90.94
1398 39.6047 8372.00 8141.67 91.50
1399 39.6252 8443.00 8188.18 91.89
1400 39.6457 8458.00 8240.00 91.97
1401 39.6662 8508.00 8298.04 92.24
1402 39.6867 8619.00 8363.39 92.84
1403 39.7071 8733.00 8437.03 93.45
1404 39.7276 8854.00 8521.34 94.10
1405 39.7481 8806.00 8618.05 93.84
1406 39.7686 8953.00 8729.87 94.62
1407 39.7891 8924.00 8855.41 94.47
1408 39.8096 9011.00 9008.36 94.93
1409 39.8301 9378.00 9189.36 96.84
1410 39.8506 9602.00 9405.21 97.99
1411 39.8710 9589.00 9663.16 97.92
1412 39.8915 9722.00 9990.30 98.60
1413 39.9120 9909.00 10369.50 99.54
1414 39.9325 10450.00 10826.90 102.22
1415 39.9530 10878.00 11371.70 104.30
1416 39.9735 11046.00 12002.10 105.10
1417 39.9940 11592.00 12701.10 107.67
1418 40.0144 12178.00 13387.30 110.35
1419 40.0349 12643.00 13978.00 112.44
1420 40.0554 12962.00 14375.20 113.85
1421 40.0759 13373.00 14520.60 115.64
1422 40.0964 13384.00 14453.50 115.69
1423 40.1169 13431.00 14247.40 115.89
1424 40.1374 13599.00 13955.30 116.61
1425 40.1579 13020.00 13594.90 114.11
1426 40.1783 12909.00 13168.00 113.62
1427 40.1988 12720.00 12699.90 112.78
1428 40.2193 12164.00 12237.90 110.29
1429 40.2398 11871.00 11824.30 108.95
1430 40.2603 11728.00 11484.00 108.30
1431 40.2808 11425.00 11225.20 106.89
1432 40.3013 11436.00 11054.30 106.94
1433 40.3218 11249.00 10948.90 106.06
1434 40.3422 11282.00 10911.30 106.22
1435 40.3627 11139.00 10937.00 105.54
1436 40.3832 11517.00 11024.50 107.32
1437 40.4037 11568.00 11181.60 107.56
1438 40.4242 11848.00 11398.80 108.85
1439 40.4447 12111.00 11690.90 110.05
1440 40.4652 12769.00 12065.80 113.00
1441 40.4856 13074.00 12535.90 114.34
1442 40.5061 13728.00 13122.30 117.17
1443 40.5266 14516.00 13842.50 120.48
1444 40.5471 15456.00 14717.10 124.32
1445 40.5675 17089.00 15766.90 130.73
1446 40.5880 18286.00 17012.00 135.23
1447 40.6085 20262.00 18462.30 142.35
1448 40.6290 22105.00 20096.40 148.68
1449 40.6494 23592.00 21821.70 153.60
1450 40.6699 25511.00 23492.80 159.72
1451 40.6904 27435.00 24900.50 165.63
1452 40.7109 28078.00 25896.10 167.57
1453 40.7314 28908.00 26444.10 170.02
1454 40.7519 28759.00 26573.80 169.59
1455 40.7724 28445.00 26296.60 168.66
1456 40.7929 27556.00 25603.70 166.00
1457 40.8133 26181.00 24539.00 161.80
1458 40.8338 24849.00 23197.00 157.64
1459 40.8543 22973.00 21728.70 151.57
1460 40.8748 21278.00 20230.60 145.87
1461 40.8953 19473.00 18762.20 139.55
1462 40.9158 18169.00 17369.00 134.79
1463 40.9363 16727.00 16092.50 129.33
1464 40.9568 15285.00 14970.20 123.63
1465 40.9772 14348.00 14015.10 119.78
1466 40.9977 13263.00 13210.60 115.17
1467 41.0182 12487.00 12544.00 111.75
1468 41.0387 12134.00 11994.50 110.15
1469 41.0592 11462.00 11541.90 107.06
1470 41.0797 11326.00 11169.20 106.42
1471 41.1002 10960.00 10861.90 104.69
1472 41.1206 10581.00 10609.80 102.86
1473 41.1411 10364.00 10401.50 101.80
1474 41.1616 10362.00 10231.50 101.79
1475 41.1821 10201.00 10094.50 101.00
1476 41.2026 10171.00 9986.06 100.85
1477 41.2231 9999.00 9903.94 100.00
1478 41.2436 9966.00 9845.85 99.83
1479 41.2641 9909.00 9810.62 99.54
1480 41.2845 10015.00 9797.90 100.07
1481 41.3050 10113.00 9807.78 100.56
1482 41.3255 9980.00 9841.92 99.90
1483 41.3460 9991.00 9902.28 99.96
1484 41.3665 10061.00 9992.43 100.31
1485 41.3870 10221.00 10116.00 101.10
1486 41.4075 10421.00 10279.40 102.08
1487 41.4280 10602.00 10490.30 102.97
1488 41.4484 10827.00 10757.10 104.05
1489 41.4689 11081.00 11095.30 105.27
1490 41.4894 11653.00 11514.70 107.95
1491 41.5099 12178.00 12028.70 110.35
1492 41.5304 13004.00 12643.50 114.04
1493 41.5509 13749.00 13349.80 117.26
1494 41.5714 14600.00 14108.40 120.83
1495 41.5918 16011.00 14833.90 126.54
1496 41.6123 16844.00 15420.20 129.78
1497 41.6328 17389.00 15760.00 131.87
1498 41.6533 17746.00 15819.20 133.21
1499 41.6738 17359.00 15647.00 131.75
1500 41.6943 16775.00 15325.90 129.52
1501 41.7148 16139.00 14909.60 127.04
1502 41.7353 15554.00 14410.30 124.72
1503 41.7557 14601.00 13833.70 120.83
1504 41.7762 14049.00 13200.10 118.53
1505 41.7967 13091.00 12559.70 114.42
1506 41.8172 12376.00 11958.90 111.25
1507 41.8377 11437.00 11426.30 106.94
1508 41.8582 10903.00 10971.60 104.42
1509 41.8787 10576.00 10591.70 102.84
1510 41.8992 10154.00 10277.80 100.77
1511 41.9195 9820.00 10020.90 99.10
1512 41.9400 9623.00 9808.41 98.10
1513 41.9605 9721.00 9633.57 98.60
1514 41.9810 9587.00 9489.46 97.91
1515 42.0015 9618.00 9370.58 98.07
1516 42.0220 9300.00 9272.50 96.44
1517 42.0425 9277.00 9191.78 96.32
1518 42.0630 9349.00 9125.72 96.69
1519 42.0834 9428.00 9072.40 97.10
1520 42.1039 9176.00 9029.62 95.79
1521 42.1244 9449.00 8996.34 97.21
1522 42.1449 9444.00 8971.54 97.18
1523 42.1654 9346.00 8954.43 96.67
1524 42.1859 9170.00 8944.41 95.76
1525 42.2064 9215.00 8941.06 95.99
1526 42.2268 9223.00 8944.07 96.04
1527 42.2473 9180.00 8953.32 95.81
1528 42.2678 9176.00 8968.77 95.79
1529 42.2883 9424.00 8990.50 97.08
1530 42.3088 9342.00 9018.73 96.65
1531 42.3293 9368.00 9053.76 96.79
1532 42.3498 9303.00 9097.43 96.45
1533 42.3703 9462.00 9147.60 97.27
1534 42.3907 9465.00 9206.09 97.29
1535 42.4112 9437.00 9274.41 97.14
1536 42.4317 9629.00 9353.46 98.13
1537 42.4522 9599.00 9445.36 97.97
1538 42.4727 9649.00 9550.61 98.23
1539 42.4932 9811.00 9672.06 99.05
1540 42.5137 9920.00 9812.40 99.60
1541 42.5342 9993.00 9975.05 99.96
1542 42.5546 10120.00 10163.20 100.60
1543 42.5751 10214.00 10383.90 101.06
1544 42.5956 10589.00 10643.00 102.90
1545 42.6161 10863.00 10948.50 104.23
1546 42.6366 11019.00 11310.90 104.97
1547 42.6571 11512.00 11743.10 107.29
1548 42.6776 11665.00 12261.10 108.00
1549 42.6980 12063.00 12880.40 109.83
1550 42.7185 13006.00 13628.90 114.04
1551 42.7390 13945.00 14525.70 118.09
1552 42.7595 15112.00 15586.90 122.93
1553 42.7800 16882.00 16811.60 129.93
1554 42.8005 18782.00 18162.30 137.05
1555 42.8210 22158.00 19545.70 148.86
1556 42.8415 25643.00 20809.00 160.13
1557 42.8619 27990.00 21780.70 167.30
1558 42.8824 30019.00 22370.80 173.26
1559 42.9029 30259.00 22594.70 173.95
1560 42.9234 29076.00 22591.40 170.52
1561 42.9439 28013.00 22470.10 167.37
1562 42.9644 26911.00 22274.20 164.05
1563 42.9849 26093.00 21982.70 161.53
1564 43.0054 25190.00 21558.20 158.71
1565 43.0258 23774.00 21005.60 154.19
1566 43.0463 22315.00 20343.20 149.38
1567 43.0668 20665.00 19630.40 143.75
1568 43.0873 19586.00 18939.10 139.95
1569 43.1078 18669.00 18331.40 136.63
1570 43.1283 18007.00 17838.60 134.19
1571 43.1488 17475.00 17464.30 132.19
1572 43.1692 17295.00 17206.50 131.51
1573 43.1897 17351.00 17071.20 131.72
1574 43.2102 17217.00 17076.10 131.21
1575 43.2306 17078.00 17224.90 130.68
1576 43.2511 17211.00 17487.40 131.19
1577 43.2716 17279.00 17789.90 131.45
1578 43.2921 17499.00 18028.30 132.28
1579 43.3126 17617.00 18107.40 132.73
1580 43.3330 17618.00 17984.60 132.73
1581 43.3535 17480.00 17676.80 132.21
1582 43.3740 17157.00 17233.20 130.99
1583 43.3945 16952.00 16696.40 130.20
1584 43.4150 16536.00 16086.00 128.59
1585 43.4355 16122.00 15410.90 126.97
1586 43.4560 15496.00 14688.60 124.48
1587 43.4765 14513.00 13952.60 120.47
1588 43.4969 14043.00 13243.70 118.50
1589 43.5174 13387.00 12586.20 115.70
1590 43.5379 13061.00 12001.60 114.29
1591 43.5584 12282.00 11495.20 110.82
1592 43.5789 11638.00 11047.60 107.88
1593 43.5994 11345.00 10682.90 106.51
1594 43.6199 10841.00 10374.90 104.12
1595 43.6404 10506.00 10114.20 102.50
1596 43.6608 10401.00 9884.39 101.99
1597 43.6813 10136.00 9687.02 100.68
1598 43.7018 9700.00 9524.41 98.49
1599 43.7223 9552.00 9384.05 97.73
1600 43.7428 9500.00 9261.85 97.47
1601 43.7633 9393.00 9150.43 96.92
1602 43.7838 9089.00 9056.67 95.34
1603 43.8042 9130.00 8974.34 95.55
1604 43.8247 9216.00 8901.03 96.00
1605 43.8452 9003.00 8835.96 94.88
1606 43.8657 8841.00 8777.88 94.03
1607 43.8862 8838.00 8725.97 94.01
1608 43.9067 8761.00 8679.50 93.60
1609 43.9272 8835.00 8637.87 93.99
1610 43.9477 8757.00 8604.71 93.58
1611 43.9681 8569.00 8571.52 92.57
1612 43.9886 8853.00 8541.71 94.09
1613 44.0091 8543.00 8515.19 92.43
1614 44.0296 8469.00 8491.73 92.03
1615 44.0501 8560.00 8473.18 92.52
1616 44.0706 8504.00 8455.42 92.22
1617 44.0911 8541.00 8440.37 92.42
1618 44.1116 8513.00 8428.03 92.27
1619 44.1320 8353.00 8418.48 91.39
1620 44.1525 8456.00 8411.75 91.96
1621 44.1730 8335.00 8408.06 91.30
1622 44.1935 8561.00 8407.70 92.53
1623 44.2140 8484.00 8411.04 92.11
1624 44.2345 8459.00 8418.57 91.97
1625 44.2550 8265.00 8430.92 90.91
1626 44.2754 8533.00 8448.76 92.37
1627 44.2959 8351.00 8473.14 91.38
1628 44.3164 8451.00 8504.89 91.93
1629 44.3369 8586.00 8544.73 92.66
1630 44.3574 8388.00 8592.83 91.59
1631 44.3779 8505.00 8648.36 92.22
1632 44.3984 8476.00 8709.11 92.07
1633 44.4189 8428.00 8771.77 91.80
1634 44.4393 8573.00 8832.67 92.59
1635 44.4598 8658.00 8889.71 93.05
1636 44.4803 8587.00 8939.76 92.67
1637 44.5007 8537.00 8978.06 92.40
1638 44.5212 8492.00 8997.95 92.15
1639 44.5417 8559.00 8994.26 92.51
1640 44.5622 8547.00 8957.33 92.45
1641 44.5827 8717.00 8913.00 93.36
1642 44.6031 8367.00 8858.77 91.47
1643 44.6236 8465.00 8798.86 92.01
1644 44.6441 8547.00 8735.05 92.45
1645 44.6646 8499.00 8662.98 92.19
1646 44.6851 8420.00 8594.47 91.76
1647 44.7056 8210.00 8527.66 90.61
1648 44.7261 8107.00 8465.73 90.04
1649 44.7466 8537.00 8410.65 92.40
1650 44.7670 8264.00 8363.33 90.91
1651 44.7875 8317.00 8323.03 91.20
1652 44.8080 8338.00 8289.23 91.31
1653 44.8285 8161.00 8261.05 90.34
1654 44.8490 8365.00 8237.64 91.46
1655 44.8695 8119.00 8218.23 90.11
1656 44.8900 8060.00 8202.21 89.78
1657 44.9104 8306.00 8189.12 91.14
1658 44.9309 8290.00 8178.44 91.05
1659 44.9514 8147.00 8169.93 90.26
1660 44.9719 8111.00 8173.25 90.06
1661 44.9924 8210.00 8168.58 90.61
1662 45.0129 8242.00 8165.59 90.79
1663 45.0334 8127.00 8164.20 90.15
1664 45.0539 8144.00 8164.41 90.24
1665 45.0743 8176.00 8166.23 90.42
1666 45.0948 8353.00 8177.22 91.39
1667 45.1153 8258.00 8182.67 90.87
1668 45.1358 8181.00 8190.14 90.45
1669 45.1563 8063.00 8201.11 89.79
1670 45.1768 8240.00 8213.46 90.77
1671 45.1973 8220.00 8228.85 90.66
1672 45.2178 8247.00 8247.84 90.81
1673 45.2382 8407.00 8270.99 91.69
1674 45.2587 8385.00 8299.39 91.57
1675 45.2792 8247.00 8334.02 90.81
1676 45.2997 8359.00 8376.13 91.43
1677 45.3202 8356.00 8427.17 91.41
1678 45.3407 8459.00 8488.52 91.97
1679 45.3612 8493.00 8561.19 92.16
1680 45.3816 8421.00 8644.62 91.77
1681 45.4021 8415.00 8737.18 91.73
1682 45.4226 8596.00 8832.34 92.71
1683 45.4431 8679.00 8919.80 93.16
1684 45.4636 8691.00 8986.88 93.23
1685 45.4841 8738.00 9023.69 93.48
1686 45.5046 8705.00 9028.25 93.30
1687 45.5251 8650.00 9006.86 93.01
1688 45.5455 8730.00 8968.97 93.43
1689 45.5660 8684.00 8920.46 93.19
1690 45.5865 8687.00 8863.08 93.20
1691 45.6070 8589.00 8796.39 92.68
1692 45.6275 8665.00 8721.68 93.09
1693 45.6480 8343.00 8643.10 91.34
1694 45.6685 8404.00 8566.01 91.67
1695 45.6890 8486.00 8494.79 92.12
1696 45.7094 8343.00 8432.09 91.34
1697 45.7298 8397.00 8377.88 91.64
1698 45.7503 8338.00 8332.05 91.31
1699 45.7708 8220.00 8293.64 90.66
1700 45.7913 8119.00 8261.54 90.11
1701 45.8118 8030.00 8234.71 89.61
1702 45.8323 8174.00 8212.25 90.41
1703 45.8528 7874.00 8193.40 88.74
1704 45.8732 7916.00 8161.41 88.97
1705 45.8937 8346.00 8148.23 91.36
1706 45.9142 8039.00 8137.12 89.66
1707 45.9347 8168.00 8127.75 90.38
1708 45.9552 8105.00 8119.85 90.03
1709 45.9757 7922.00 8105.16 89.01
1710 45.9962 7990.00 8099.73 89.39
1711 46.0166 7956.00 8095.26 89.20
1712 46.0371 8052.00 8091.60 89.73
1713 46.0576 8008.00 8082.90 89.49
1714 46.0781 8181.00 8080.72 90.45
1715 46.0986 8073.00 8079.13 89.85
1716 46.1191 8121.00 8078.09 90.12
1717 46.1396 8048.00 8077.55 89.71
1718 46.1601 7998.00 8074.60 89.43
1719 46.1805 7935.00 8075.01 89.08
1720 46.2010 8039.00 8075.85 89.66
1721 46.2215 8094.00 8077.10 89.97
1722 46.2420 8213.00 8078.76 90.63
1723 46.2625 7988.00 8080.81 89.38
1724 46.2830 7989.00 8083.27 89.38
1725 46.3035 8179.00 8086.13 90.44
1726 46.3240 8037.00 8081.13 89.65
1727 46.3444 8009.00 8084.93 89.49
1728 46.3649 7971.00 8089.20 89.28
1729 46.3854 7911.00 8091.56 88.94
1730 46.4059 8150.00 8096.83 90.28
1731 46.4264 8199.00 8102.63 90.55
1732 46.4469 8147.00 8109.62 90.26
1733 46.4674 8201.00 8116.73 90.56
1734 46.4878 8105.00 8123.31 90.03
1735 46.5083 7844.00 8131.86 88.57
1736 46.5288 7974.00 8141.25 89.30
1737 46.5493 8123.00 8151.56 90.13
1738 46.5698 8220.00 8165.21 90.66
1739 46.5903 8311.00 8177.74 91.16
1740 46.6108 8189.00 8191.58 90.49
1741 46.6313 8111.00 8206.91 90.06
1742 46.6517 8312.00 8223.87 91.17
1743 46.6722 8371.00 8242.86 91.49
1744 46.6927 8410.00 8264.13 91.71
1745 46.7132 8462.00 8288.03 91.99
1746 46.7337 8482.00 8315.03 92.10
1747 46.7542 8450.00 8345.63 91.92
1748 46.7747 8364.00 8380.48 91.45
1749 46.7952 8471.00 8420.32 92.04
1750 46.8156 8711.00 8465.72 93.33
1751 46.8361 8635.00 8518.02 92.92
1752 46.8566 8593.00 8577.84 92.70
1753 46.8771 8837.00 8645.88 94.01
1754 46.8976 8931.00 8722.52 94.50
1755 46.9180 8889.00 8807.92 94.28
1756 46.9385 9002.00 8902.50 94.88
1757 46.9590 9440.00 9007.76 97.16
1758 46.9794 9411.00 9126.34 97.01
1759 46.9999 9391.00 9264.17 96.91
1760 47.0204 9755.00 9426.08 98.77
1761 47.0409 9846.00 9616.65 99.23
1762 47.0614 9757.00 9838.20 98.78
1763 47.0819 10148.00 10089.30 100.74
1764 47.1024 10569.00 10361.50 102.81
1765 47.1228 10574.00 10635.00 102.83
1766 47.1433 11016.00 10883.20 104.96
1767 47.1638 10873.00 11070.30 104.27
1768 47.1843 10985.00 11170.80 104.81
1769 47.2048 11102.00 11180.80 105.37
1770 47.2253 11082.00 11118.30 105.27
1771 47.2458 11225.00 11009.30 105.95
1772 47.2663 10971.00 10872.00 104.74
1773 47.2867 11066.00 10712.10 105.19
1774 47.3072 10882.00 10526.30 104.32
1775 47.3277 10535.00 10316.70 102.64
1776 47.3482 10298.00 10096.80 101.48
1777 47.3687 10016.00 9874.15 100.08
1778 47.3892 9931.00 9665.43 99.65
1779 47.4097 9583.00 9479.07 97.89
1780 47.4302 9479.00 9318.33 97.36
1781 47.4506 9311.00 9183.46 96.49
1782 47.4711 9138.00 9070.96 95.59
1783 47.4916 8989.00 8980.39 94.81
1784 47.5121 9026.00 8905.34 95.01
1785 47.5326 8946.00 8844.56 94.58
1786 47.5531 8576.00 8796.62 92.61
1787 47.5736 8740.00 8759.30 93.49
1788 47.5940 8501.00 8731.27 92.20
1789 47.6145 8789.00 8711.14 93.75
1790 47.6350 8658.00 8697.33 93.05
1791 47.6555 8718.00 8690.74 93.37
1792 47.6760 8738.00 8690.42 93.48
1793 47.6965 8646.00 8695.90 92.98
1794 47.7170 8516.00 8707.03 92.28
1795 47.7375 8631.00 8723.81 92.90
1796 47.7579 8569.00 8745.83 92.57
1797 47.7784 8776.00 8774.39 93.68
1798 47.7989 8535.00 8809.40 92.39
1799 47.8194 8626.00 8851.39 92.88
1800 47.8399 8918.00 8901.08 94.44
1801 47.8604 8747.00 8965.45 93.53
1802 47.8809 8916.00 9033.58 94.42
1803 47.9014 9032.00 9112.94 95.04
1804 47.9218 9253.00 9204.81 96.19
1805 47.9423 9218.00 9312.25 96.01
1806 47.9628 9287.00 9437.59 96.37
1807 47.9833 9553.00 9587.12 97.74
1808 48.0038 9656.00 9759.89 98.26
1809 48.0243 9919.00 9962.40 99.59
1810 48.0448 10271.00 10201.70 101.35
1811 48.0653 10366.00 10485.30 101.81
1812 48.0857 10802.00 10820.40 103.93
1813 48.1062 11115.00 11220.60 105.43
1814 48.1266 11527.00 11698.50 107.36
1815 48.1471 12387.00 12256.30 111.30
1816 48.1676 13034.00 12902.40 114.17
1817 48.1881 13899.00 13630.10 117.89
1818 48.2086 14438.00 14414.70 120.16
1819 48.2290 15935.00 15202.50 126.23
1820 48.2495 16913.00 15921.90 130.05
1821 48.2700 17783.00 16487.40 133.35
1822 48.2905 18564.00 16839.20 136.25
1823 48.3110 19070.00 16965.20 138.09
1824 48.3315 18980.00 16895.10 137.77
1825 48.3520 18622.00 16674.30 136.46
1826 48.3725 18100.00 16338.60 134.54
1827 48.3929 17377.00 15909.00 131.82
1828 48.4134 16686.00 15390.90 129.17
1829 48.4339 15594.00 14801.20 124.88
1830 48.4544 14744.00 14165.50 121.43
1831 48.4749 14069.00 13516.10 118.61
1832 48.4954 13221.00 12883.50 114.98
1833 48.5159 12355.00 12291.70 111.15
1834 48.5364 11615.00 11757.40 107.77
1835 48.5568 11003.00 11287.40 104.89
1836 48.5773 10323.00 10878.20 101.60
1837 48.5978 10183.00 10527.90 100.91
1838 48.6183 9499.00 10229.60 97.46
1839 48.6388 9207.00 9974.75 95.95
1840 48.6593 9014.00 9763.16 94.94
1841 48.6798 8817.00 9579.12 93.90
1842 48.7002 8758.00 9422.21 93.58
1843 48.7207 8553.00 9286.47 92.48
1844 48.7412 8679.00 9169.15 93.16
1845 48.7617 8489.00 9066.65 92.14
1846 48.7822 8593.00 8977.88 92.70
1847 48.8027 8307.00 8901.95 91.14
1848 48.8232 8423.00 8835.77 91.78
1849 48.8437 8232.00 8775.67 90.73
1850 48.8641 8305.00 8722.82 91.13
1851 48.8846 8262.00 8675.78 90.90
1852 48.9051 8264.00 8634.05 90.91
1853 48.9256 8422.00 8597.00 91.77
1854 48.9461 8061.00 8564.09 89.78
1855 48.9666 8136.00 8541.71 90.20
1856 48.9871 8150.00 8515.86 90.28
1857 49.0076 8083.00 8493.00 89.91
1858 49.0280 8042.00 8477.14 89.68
1859 49.0485 8146.00 8459.52 90.26
1860 49.0690 8178.00 8444.22 90.43
1861 49.0895 8238.00 8431.07 90.76
1862 49.1100 8221.00 8420.65 90.67
1863 49.1305 8121.00 8411.50 90.12
1864 49.1510 8302.00 8404.21 91.12
1865 49.1714 8156.00 8398.77 90.31
1866 49.1919 8186.00 8395.11 90.48
1867 49.2124 8150.00 8393.26 90.28
1868 49.2329 7849.00 8393.24 88.59
1869 49.2533 8033.00 8395.10 89.63
1870 49.2738 8022.00 8398.92 89.57
1871 49.2943 8195.00 8404.82 90.53
1872 49.3148 8130.00 8412.92 90.17
1873 49.3352 8258.00 8423.35 90.87
1874 49.3557 8276.00 8436.44 90.97
1875 49.3762 8275.00 8452.42 90.97
1876 49.3967 8196.00 8471.62 90.53
1877 49.4172 8245.00 8494.48 90.80
1878 49.4377 8352.00 8521.50 91.39
1879 49.4582 8368.00 8553.29 91.48
1880 49.4787 8495.00 8590.64 92.17
1881 49.4991 8380.00 8634.23 91.54
1882 49.5196 8472.00 8686.94 92.04
1883 49.5401 8685.00 8747.42 93.19
1884 49.5606 8737.00 8818.67 93.47
1885 49.5811 8901.00 8902.81 94.35
1886 49.6016 8789.00 9002.40 93.75
1887 49.6221 8882.00 9120.49 94.24
1888 49.6426 9046.00 9261.25 95.11
1889 49.6630 9342.00 9426.46 96.65
1890 49.6835 9581.00 9622.17 97.88
1891 49.7040 9552.00 9850.54 97.73
1892 49.7245 9731.00 10111.90 98.65
1893 49.7450 10086.00 10401.60 100.43
1894 49.7655 10263.00 10706.50 101.31
1895 49.7860 10680.00 11002.80 103.34
1896 49.8064 10567.00 11256.70 102.80
1897 49.8269 10884.00 11437.80 104.33
1898 49.8474 11132.00 11524.80 105.51
1899 49.8679 11192.00 11522.60 105.79
1900 49.8884 11088.00 11448.10 105.30
1901 49.9089 11150.00 11329.30 105.59
1902 49.9294 10877.00 11182.90 104.29
1903 49.9499 10812.00 11013.10 103.98
1904 49.9703 10556.00 10818.50 102.74
1905 49.9908 10355.00 10597.50 101.76
1906 50.0113 10252.00 10361.70 101.25
1907 50.0318 10053.00 10120.00 100.26
1908 50.0523 9816.00 9888.65 99.08
1909 50.0728 9597.00 9678.25 97.96
1910 50.0933 9338.00 9492.22 96.63
1911 50.1138 9455.00 9332.14 97.24
1912 50.1342 8970.00 9197.07 94.71
1913 50.1547 8843.00 9083.17 94.04
1914 50.1752 8927.00 8988.24 94.48
1915 50.1957 8676.00 8909.39 93.15
1916 50.2162 8766.00 8844.63 93.63
1917 50.2367 8398.00 8791.75 91.64
1918 50.2572 8497.00 8749.09 92.18
1919 50.2776 8713.00 8715.46 93.34
1920 50.2981 8554.00 8689.51 92.49
1921 50.3186 8521.00 8670.52 92.31
1922 50.3391 8506.00 8658.12 92.23
1923 50.3596 8608.00 8651.80 92.78
1924 50.3801 8566.00 8651.33 92.55
1925 50.4006 8505.00 8656.62 92.22
1926 50.4210 8568.00 8663.66 92.56
1927 50.4414 8550.00 8680.82 92.47
1928 50.4619 8575.00 8704.49 92.60
1929 50.4824 8565.00 8735.19 92.55
1930 50.5029 8616.00 8773.69 92.82
1931 50.5234 8795.00 8820.99 93.78
1932 50.5439 8860.00 8878.39 94.13
1933 50.5644 8907.00 8945.47 94.38
1934 50.5849 9025.00 9028.25 95.00
1935 50.6053 9033.00 9126.50 95.04
1936 50.6258 9293.00 9243.86 96.40
1937 50.6463 9463.00 9382.76 97.28
1938 50.6668 9372.00 9545.85 96.81
1939 50.6873 9533.00 9734.93 97.64
1940 50.7078 9957.00 9949.43 99.78
1941 50.7283 10236.00 10184.50 101.17
1942 50.7488 10195.00 10428.90 100.97
1943 50.7692 10481.00 10662.50 102.38
1944 50.7897 10423.00 10863.40 102.09
1945 50.8102 10613.00 11007.90 103.02
1946 50.8307 11090.00 11085.20 105.31
1947 50.8512 10959.00 11100.10 104.68
1948 50.8717 10912.00 11070.20 104.46
1949 50.8922 10765.00 11014.30 103.75
1950 50.9126 10790.00 10944.40 103.88
1951 50.9331 10715.00 10862.60 103.51
1952 50.9536 10420.00 10768.00 102.08
1953 50.9741 10561.00 10663.50 102.77
1954 50.9946 10293.00 10553.20 101.45
1955 51.0151 10269.00 10450.30 101.34
1956 51.0356 10172.00 10366.50 100.86
1957 51.0561 10121.00 10311.20 100.60
1958 51.0765 10151.00 10293.40 100.75
1959 51.0970 10126.00 10311.60 100.63
1960 51.1175 10149.00 10371.30 100.74
1961 51.1380 10423.00 10475.30 102.09
1962 51.1585 10477.00 10626.30 102.36
1963 51.1790 10741.00 10827.40 103.64
1964 51.1995 10867.00 11082.80 104.25
1965 51.2200 11359.00 11390.70 106.58
1966 51.2404 11816.00 11747.00 108.70
1967 51.2609 12063.00 12143.80 109.83
1968 51.2814 12924.00 12556.70 113.68
1969 51.3019 13192.00 12951.30 114.86
1970 51.3224 13597.00 13287.70 116.61
1971 51.3429 13854.00 13533.80 117.70
1972 51.3634 14178.00 13680.60 119.07
1973 51.3838 14097.00 13744.90 118.73
1974 51.4043 13948.00 13758.90 118.10
1975 51.4248 13855.00 13750.70 117.71
1976 51.4453 13556.00 13733.00 116.43
1977 51.4658 13700.00 13703.30 117.05
1978 51.4863 13693.00 13653.50 117.02
1979 51.5067 13367.00 13580.50 115.62
1980 51.5272 13193.00 13489.00 114.86
1981 51.5476 13128.00 13386.10 114.58
1982 51.5681 12724.00 13271.20 112.80
1983 51.5886 13006.00 13126.50 114.04
1984 51.6091 12574.00 12961.40 112.13
1985 51.6296 12541.00 12762.60 111.99
1986 51.6501 12199.00 12538.00 110.45
1987 51.6706 12015.00 12299.80 109.61
1988 51.6911 11905.00 12066.30 109.11
1989 51.7115 11636.00 11841.80 107.87
1990 51.7320 11862.00 11618.60 108.91
1991 51.7525 11539.00 11404.70 107.42
1992 51.7730 11242.00 11196.10 106.03
1993 51.7935 11075.00 10997.40 105.24
1994 51.8140 10770.00 10819.50 103.78
1995 51.8345 10814.00 10669.30 103.99
1996 51.8550 10553.00 10552.50 102.73
1997 51.8754 10342.00 10472.40 101.70
1998 51.8959 10572.00 10429.50 102.82
1999 51.9164 10622.00 10424.50 103.06
2000 51.9369 10556.00 10457.20 102.74
2001 51.9574 10660.00 10527.00 103.25
2002 51.9779 10841.00 10632.40 104.12
2003 51.9984 10824.00 10770.90 104.04
2004 52.0188 10944.00 10937.20 104.61
2005 52.0393 11404.00 11127.50 106.79
2006 52.0598 11688.00 11335.90 108.11
2007 52.0803 12021.00 11560.30 109.64
2008 52.1008 12304.00 11802.10 110.92
2009 52.1213 12748.00 12063.50 112.91
2010 52.1418 13114.00 12343.10 114.52
2011 52.1623 13428.00 12630.70 115.88
2012 52.1827 14000.00 12907.30 118.32
2013 52.2032 13881.00 13156.30 117.82
2014 52.2237 14269.00 13366.40 119.45
2015 52.2442 14534.00 13544.10 120.56
2016 52.2647 14641.00 13710.00 121.00
2017 52.2852 14864.00 13888.60 121.92
2018 52.3057 14536.00 14096.20 120.57
2019 52.3262 14839.00 14339.20 121.82
2020 52.3466 14980.00 14597.00 122.39
2021 52.3671 15122.00 14858.30 122.97
2022 52.3876 15174.00 15102.70 123.18
2023 52.4081 15418.00 15312.90 124.17
2024 52.4286 16009.00 15470.60 126.53
2025 52.4491 16256.00 15556.30 127.50
2026 52.4696 16500.00 15556.80 128.45
2027 52.4900 16843.00 15459.70 129.78
2028 52.5105 16687.00 15273.00 129.18
2029 52.5310 16431.00 15013.60 128.18
2030 52.5515 16210.00 14698.90 127.32
2031 52.5720 15600.00 14339.90 124.90
2032 52.5924 15155.00 13945.30 123.11
2033 52.6129 14678.00 13522.00 121.15
2034 52.6334 14291.00 13079.60 119.54
2035 52.6538 13941.00 12633.00 118.07
2036 52.6743 13242.00 12192.00 115.07
2037 52.6948 12645.00 11771.40 112.45
2038 52.7153 11990.00 11379.60 109.50
2039 52.7358 11599.00 11023.40 107.70
2040 52.7563 10908.00 10706.00 104.44
2041 52.7768 10651.00 10428.30 103.20
2042 52.7973 10100.00 10189.40 100.50
2043 52.8177 9979.00 9987.50 99.89
2044 52.8382 9489.00 9817.51 97.41
2045 52.8587 9619.00 9677.29 98.08
2046 52.8792 9644.00 9563.92 98.20
2047 52.8997 9602.00 9474.95 97.99
2048 52.9202 9267.00 9408.50 96.27
2049 52.9407 9331.00 9363.19 96.60
2050 52.9612 9298.00 9337.96 96.43
2051 52.9816 9211.00 9331.90 95.97
2052 53.0021 9290.00 9343.75 96.38
2053 53.0226 9218.00 9371.51 96.01
2054 53.0431 9193.00 9411.56 95.88
2055 53.0636 9257.00 9458.15 96.21
2056 53.0841 9548.00 9503.59 97.71
2057 53.1046 9329.00 9539.71 96.59
2058 53.1250 9490.00 9560.61 97.42
2059 53.1455 9439.00 9565.36 97.15
2060 53.1660 9396.00 9557.75 96.93
2061 53.1865 9567.00 9544.37 97.81
2062 53.2070 9219.00 9531.34 96.02
2063 53.2275 9423.00 9522.29 97.07
2064 53.2480 9286.00 9513.87 96.36
2065 53.2685 9255.00 9516.06 96.20
2066 53.2889 9458.00 9526.12 97.25
2067 53.3094 9358.00 9548.24 96.74
2068 53.3299 9236.00 9587.80 96.10
2069 53.3504 9373.00 9650.12 96.81
2070 53.3709 9440.00 9739.01 97.16
2071 53.3914 9769.00 9853.37 98.84
2072 53.4119 9936.00 9998.46 99.68
2073 53.4324 10119.00 10158.20 100.59
2074 53.4528 10332.00 10322.30 101.65
2075 53.4733 10666.00 10475.70 103.28
2076 53.4938 10948.00 10600.20 104.63
2077 53.5143 10791.00 10682.10 103.88
2078 53.5348 11010.00 10715.40 104.93
2079 53.5553 10834.00 10703.00 104.09
2080 53.5758 10859.00 10647.80 104.21
2081 53.5962 10745.00 10560.40 103.66
2082 53.6167 10482.00 10446.00 102.38
2083 53.6372 10288.00 10310.40 101.43
2084 53.6576 10035.00 10157.30 100.18
2085 53.6782 9995.00 9990.04 99.97
2086 53.6986 9712.00 9812.72 98.55
2087 53.7191 9589.00 9630.63 97.92
2088 53.7396 9265.00 9449.72 96.25
2089 53.7600 8947.00 9277.00 94.59
2090 53.7805 8865.00 9115.06 94.15
2091 53.8010 8719.00 8968.25 93.38
2092 53.8215 8520.00 8837.88 92.30
2093 53.8420 8494.00 8723.84 92.16
2094 53.8625 8345.00 8625.09 91.35
2095 53.8830 8213.00 8540.06 90.63
2096 53.9035 8250.00 8467.15 90.83
2097 53.9239 8307.00 8405.03 91.14
2098 53.9444 8143.00 8351.71 90.24
2099 53.9649 8156.00 8306.29 90.31
2100 53.9854 8194.00 8267.74 90.52
2101 54.0059 8112.00 8235.25 90.07
2102 54.0264 7983.00 8208.12 89.35
2103 54.0469 8083.00 8185.83 89.91
2104 54.0673 7996.00 8168.05 89.42
2105 54.0878 8069.00 8154.31 89.83
2106 54.1083 8082.00 8144.52 89.90
2107 54.1288 8165.00 8138.56 90.36
2108 54.1493 8038.00 8136.42 89.65
2109 54.1698 7996.00 8138.18 89.42
2110 54.1903 8210.00 8144.00 90.61
2111 54.2108 8114.00 8154.49 90.08
2112 54.2312 8056.00 8169.25 89.76
2113 54.2517 8209.00 8189.26 90.60
2114 54.2722 8218.00 8215.06 90.65
2115 54.2927 8362.00 8243.92 91.44
2116 54.3132 8444.00 8283.77 91.89
2117 54.3337 8503.00 8332.09 92.21
2118 54.3542 8611.00 8390.33 92.80
2119 54.3747 8757.00 8458.62 93.58
2120 54.3951 8881.00 8537.61 94.24
2121 54.4156 8844.00 8627.87 94.04
2122 54.4361 8967.00 8725.79 94.69
2123 54.4566 8963.00 8831.42 94.67
2124 54.4771 9276.00 8938.37 96.31
2125 54.4976 9526.00 9038.16 97.60
2126 54.5181 9594.00 9129.45 97.95
2127 54.5386 9690.00 9205.47 98.44
2128 54.5590 9657.00 9266.31 98.27
2129 54.5795 9729.00 9322.00 98.64
2130 54.6000 9798.00 9379.85 98.98
2131 54.6205 9848.00 9446.32 99.24
2132 54.6410 9747.00 9522.44 98.73
2133 54.6615 9637.00 9607.79 98.17
2134 54.6819 9788.00 9698.61 98.93
2135 54.7024 9693.00 9788.45 98.45
2136 54.7228 9680.00 9869.63 98.39
2137 54.7433 9665.00 9930.72 98.31
2138 54.7638 9571.00 9960.60 97.83
2139 54.7843 9632.00 9952.24 98.14
2140 54.8048 9803.00 9906.32 99.01
2141 54.8253 9792.00 9830.97 98.95
2142 54.8458 9713.00 9731.45 98.55
2143 54.8662 9576.00 9629.33 97.86
2144 54.8867 9269.00 9521.44 96.28
2145 54.9072 9329.00 9407.47 96.59
2146 54.9277 9163.00 9285.17 95.72
2147 54.9482 8877.00 9154.13 94.22
2148 54.9687 8782.00 9017.25 93.71
2149 54.9892 8919.00 8876.95 94.44
2150 55.0097 8809.00 8743.99 93.86
2151 55.0301 8665.00 8621.90 93.09
2152 55.0506 8630.00 8511.15 92.90
2153 55.0711 8529.00 8413.18 92.35
2154 55.0916 8280.00 8327.67 90.99
2155 55.1121 8198.00 8253.62 90.54
2156 55.1326 8244.00 8186.62 90.80
2157 55.1531 8199.00 8131.36 90.55
2158 55.1735 8173.00 8084.39 90.40
2159 55.1940 8068.00 8043.81 89.82
2160 55.2145 8063.00 8008.94 89.79
2161 55.2350 7988.00 7979.05 89.38
2162 55.2555 7870.00 7953.50 88.71
2163 55.2760 7897.00 7930.19 88.87
2164 55.2965 7865.00 7911.95 88.68
2165 55.3170 8072.00 7896.73 89.84
2166 55.3374 7912.00 7884.34 88.95
2167 55.3579 8013.00 7875.31 89.52
2168 55.3784 7944.00 7867.77 89.13
2169 55.3989 7817.00 7862.45 88.41
2170 55.4194 7728.00 7859.26 87.91
2171 55.4399 8007.00 7858.14 89.48
2172 55.4604 7886.00 7859.04 88.80
2173 55.4809 7952.00 7861.98 89.17
2174 55.5013 8088.00 7866.95 89.93
2175 55.5218 8021.00 7877.30 89.56
2176 55.5423 7953.00 7886.68 89.18
2177 55.5628 7871.00 7898.42 88.72
2178 55.5833 8009.00 7912.69 89.49
2179 55.6038 8160.00 7929.70 90.33
2180 55.6243 8082.00 7948.53 89.90
2181 55.6448 8147.00 7971.88 90.26
2182 55.6652 8035.00 7998.80 89.64
2183 55.6857 8199.00 8030.00 90.55
2184 55.7062 8216.00 8065.93 90.64
2185 55.7267 8267.00 8107.26 90.92
2186 55.7471 8177.00 8154.78 90.43
2187 55.7676 8428.00 8205.33 91.80
2188 55.7881 8538.00 8268.37 92.40
2189 55.8085 8612.00 8340.72 92.80
2190 55.8290 8637.00 8424.78 92.94
2191 55.8495 8715.00 8522.19 93.35
2192 55.8700 8823.00 8635.31 93.93
2193 55.8905 9085.00 8766.91 95.32
2194 55.9110 9132.00 8920.15 95.56
2195 55.9315 9311.00 9096.74 96.49
2196 55.9520 9490.00 9301.76 97.42
2197 55.9724 9799.00 9539.40 98.99
2198 55.9929 9883.00 9811.88 99.41
2199 56.0134 10162.00 10117.10 100.81
2200 56.0339 10512.00 10444.00 102.53
2201 56.0544 10536.00 10790.70 102.64
2202 56.0749 10931.00 11130.20 104.55
2203 56.0954 11155.00 11433.50 105.62
2204 56.1159 11422.00 11669.60 106.87
2205 56.1363 11507.00 11817.00 107.27
2206 56.1568 11628.00 11874.50 107.83
2207 56.1773 11458.00 11853.10 107.04
2208 56.1978 11572.00 11774.30 107.57
2209 56.2183 11512.00 11666.30 107.29
2210 56.2388 11128.00 11539.80 105.49
2211 56.2593 11205.00 11396.70 105.85
2212 56.2797 11218.00 11232.60 105.92
2213 56.3002 10886.00 11043.00 104.34
2214 56.3207 10722.00 10828.60 103.55
2215 56.3412 10530.00 10595.50 102.62
2216 56.3617 10196.00 10353.00 100.97
2217 56.3822 9866.00 10110.70 99.33
2218 56.4027 9718.00 9876.54 98.58
2219 56.4232 9613.00 9657.07 98.05
2220 56.4436 9494.00 9457.23 97.44
2221 56.4641 9235.00 9276.47 96.10
2222 56.4846 9092.00 9114.82 95.35
2223 56.5051 8836.00 8969.74 94.00
2224 56.5256 8765.00 8838.18 93.62
2225 56.5461 8657.00 8717.75 93.04
2226 56.5666 8392.00 8607.27 91.61
2227 56.5871 8637.00 8506.53 92.94
2228 56.6075 8317.00 8416.18 91.20
2229 56.6280 8252.00 8335.46 90.84
2230 56.6485 8191.00 8264.70 90.50
2231 56.6690 8130.00 8203.44 90.17
2232 56.6895 8030.00 8151.01 89.61
2233 56.7100 8121.00 8106.68 90.12
2234 56.7305 8029.00 8068.47 89.60
2235 56.7509 7993.00 8038.29 89.40
2236 56.7713 8082.00 8014.40 89.90
2237 56.7918 7905.00 7996.14 88.91
2238 56.8123 7923.00 7983.33 89.01
2239 56.8328 8139.00 7975.76 90.22
2240 56.8533 8088.00 7973.36 89.93
2241 56.8738 8095.00 7976.16 89.97
2242 56.8943 8008.00 7983.67 89.49
2243 56.9147 8085.00 7997.36 89.92
2244 56.9352 8052.00 8017.11 89.73
2245 56.9557 8031.00 8043.43 89.62
2246 56.9762 8069.00 8077.04 89.83
2247 56.9967 8311.00 8118.86 91.16
2248 57.0172 8367.00 8169.99 91.47
2249 57.0377 8397.00 8231.77 91.64
2250 57.0582 8597.00 8305.75 92.72
2251 57.0786 8596.00 8393.25 92.71
2252 57.0991 8617.00 8496.97 92.83
2253 57.1196 8756.00 8618.31 93.57
2254 57.1401 8819.00 8756.25 93.91
2255 57.1606 8803.00 8916.90 93.82
2256 57.1811 8868.00 9093.43 94.17
2257 57.2016 9040.00 9280.60 95.08
2258 57.2221 9275.00 9471.72 96.31
2259 57.2425 9291.00 9650.77 96.39
2260 57.2630 9634.00 9803.35 98.15
2261 57.2835 9534.00 9913.27 97.64
2262 57.3040 9485.00 9975.61 97.39
2263 57.3245 9591.00 9992.53 97.93
2264 57.3450 9922.00 9973.31 99.61
2265 57.3655 9683.00 9930.99 98.40
2266 57.3859 9801.00 9877.03 99.00
2267 57.4064 9544.00 9813.78 97.69
2268 57.4269 9596.00 9739.38 97.96
2269 57.4474 9516.00 9649.32 97.55
2270 57.4679 9372.00 9540.50 96.81
2271 57.4884 9333.00 9413.97 96.61
2272 57.5089 9211.00 9274.82 95.97
2273 57.5294 9191.00 9130.69 95.87
2274 57.5498 8961.00 8989.78 94.66
2275 57.5703 9012.00 8856.61 94.93
2276 57.5908 8738.00 8735.15 93.48
2277 57.6113 8652.00 8626.27 93.02
2278 57.6318 8390.00 8529.14 91.60
2279 57.6523 8272.00 8442.39 90.95
2280 57.6728 8362.00 8364.71 91.44
2281 57.6933 8276.00 8295.55 90.97
2282 57.7137 8168.00 8235.09 90.38
2283 57.7341 8117.00 8182.96 90.09
2284 57.7547 8169.00 8139.63 90.38
2285 57.7751 8097.00 8105.12 89.98
2286 57.7956 7869.00 8079.27 88.71
2287 57.8161 8015.00 8061.87 89.53
2288 57.8366 7970.00 8052.70 89.27
2289 57.8571 7976.00 8051.62 89.31
2290 57.8775 7898.00 8058.57 88.87
2291 57.8980 7909.00 8073.75 88.93
2292 57.9185 8087.00 8097.45 89.93
2293 57.9390 8041.00 8130.17 89.67
2294 57.9595 7904.00 8172.59 88.90
2295 57.9800 8177.00 8225.55 90.43
2296 58.0005 8199.00 8290.09 90.55
2297 58.0209 8248.00 8366.88 90.82
2298 58.0414 8539.00 8457.77 92.41
2299 58.0619 8546.00 8563.50 92.44
2300 58.0824 8690.00 8685.01 93.22
2301 58.1029 8937.00 8822.95 94.54
2302 58.1234 9159.00 8978.18 95.70
2303 58.1439 9388.00 9151.54 96.89
2304 58.1644 9498.00 9344.55 97.46
2305 58.1848 9652.00 9556.99 98.24
2306 58.2053 9902.00 9790.44 99.51
2307 58.2258 10006.00 10038.90 100.03
2308 58.2463 10081.00 10296.50 100.40
2309 58.2668 10234.00 10547.80 101.16
2310 58.2873 10550.00 10775.30 102.71
2311 58.3078 10822.00 10960.80 104.03
2312 58.3283 10892.00 11091.60 104.36
2313 58.3487 10864.00 11163.20 104.23
2314 58.3692 10967.00 11180.70 104.72
2315 58.3897 10898.00 11151.60 104.39
2316 58.4102 10965.00 11084.80 104.71
2317 58.4307 10808.00 10984.50 103.96
2318 58.4512 10704.00 10852.30 103.46
2319 58.4717 10412.00 10689.90 102.04
2320 58.4921 10331.00 10499.00 101.64
2321 58.5126 10044.00 10289.10 100.22
2322 58.5331 9848.00 10066.50 99.24
2323 58.5536 9513.00 9839.31 97.53
2324 58.5741 9454.00 9613.92 97.23
2325 58.5946 9254.00 9395.99 96.20
2326 58.6151 9007.00 9187.82 94.91
2327 58.6356 8827.00 8993.16 93.95
2328 58.6560 8659.00 8813.90 93.05
2329 58.6765 8392.00 8652.21 91.61
2330 58.6970 8180.00 8508.34 90.44
2331 58.7174 7927.00 8381.77 89.03
2332 58.7379 7941.00 8271.50 89.11
2333 58.7584 7855.00 8178.43 88.63
2334 58.7789 7794.00 8096.32 88.28
2335 58.7994 7659.00 8026.09 87.52
2336 58.8198 7800.00 7966.61 88.32
2337 58.8403 7434.00 7916.17 86.22
2338 58.8608 7614.00 7874.12 87.26
2339 58.8813 7612.00 7839.66 87.25
2340 58.9018 7535.00 7813.61 86.80
2341 58.9223 7568.00 7792.68 86.99
2342 58.9428 7598.00 7777.97 87.17
2343 58.9632 7532.00 7769.35 86.79
2344 58.9837 7578.00 7766.64 87.05
2345 59.0042 7528.00 7770.16 86.76
2346 59.0247 7637.00 7779.58 87.39
2347 59.0452 7430.00 7795.29 86.20
2348 59.0657 7524.00 7817.45 86.74
2349 59.0862 7599.00 7846.34 87.17
2350 59.1067 7771.00 7882.33 88.15
2351 59.1271 7602.00 7925.78 87.19
2352 59.1476 7651.00 7978.04 87.47
2353 59.1681 7804.00 8040.19 88.34
2354 59.1886 7956.00 8113.78 89.20
2355 59.2091 8002.00 8200.16 89.45
2356 59.2296 8041.00 8300.27 89.67
2357 59.2501 8147.00 8413.94 90.26
2358 59.2706 8236.00 8539.13 90.75
2359 59.2910 8367.00 8670.75 91.47
2360 59.3115 8752.00 8802.43 93.55
2361 59.3320 8837.00 8923.10 94.01
2362 59.3525 9248.00 9020.72 96.17
2363 59.3730 9564.00 9086.20 97.80
2364 59.3935 9431.00 9111.99 97.11
2365 59.4140 9447.00 9100.92 97.20
2366 59.4345 9293.00 9060.43 96.40
2367 59.4549 9095.00 9000.58 95.37
2368 59.4754 8892.00 8928.71 94.30
2369 59.4959 8801.00 8849.11 93.81
2370 59.5164 8652.00 8762.02 93.02
2371 59.5369 8703.00 8666.24 93.29
2372 59.5574 8615.00 8559.58 92.82
2373 59.5779 8724.00 8444.21 93.40
2374 59.5983 8223.00 8323.63 90.68
2375 59.6188 8128.00 8201.96 90.16
2376 59.6393 7871.00 8084.52 88.72
2377 59.6598 7760.00 7974.69 88.09
2378 59.6803 7387.00 7874.49 85.95
2379 59.7007 7480.00 7784.60 86.49
2380 59.7212 7322.00 7704.80 85.57
2381 59.7417 7272.00 7636.02 85.28
2382 59.7621 7324.00 7574.42 85.58
2383 59.7826 7166.00 7519.99 84.65
2384 59.8031 7059.00 7472.07 84.02
2385 59.8236 7124.00 7429.76 84.40
2386 59.8441 7097.00 7392.31 84.24
2387 59.8646 7180.00 7359.03 84.73
2388 59.8851 7009.00 7329.36 83.72
2389 59.9056 7127.00 7303.48 84.42
2390 59.9260 7139.00 7279.72 84.49
2391 59.9465 7026.00 7252.44 83.82
2392 59.9670 7203.00 7233.02 84.87
2393 59.9875 7047.00 7215.38 83.95
2394 60.0080 6943.00 7199.32 83.32
2395 60.0285 7073.00 7184.65 84.10
2396 60.0490 6927.00 7171.23 83.23
2397 60.0694 6871.00 7158.97 82.89
2398 60.0899 7008.00 7147.64 83.71
2399 60.1104 7094.00 7134.39 84.23
2400 60.1309 6978.00 7124.81 83.53
2401 60.1514 7112.00 7115.97 84.33
2402 60.1719 6976.00 7107.82 83.52
2403 60.1924 7188.00 7099.54 84.78
2404 60.2129 6955.00 7092.63 83.40
2405 60.2333 6954.00 7086.31 83.39
2406 60.2538 6890.00 7080.93 83.01
2407 60.2743 7050.00 7075.62 83.96
2408 60.2948 7006.00 7070.82 83.70
2409 60.3153 7055.00 7066.51 83.99
2410 60.3358 7166.00 7062.68 84.65
2411 60.3563 7069.00 7058.97 84.08
2412 60.3768 6895.00 7056.12 83.04
2413 60.3972 6896.00 7053.78 83.04
2414 60.4177 7030.00 7052.74 83.85
2415 60.4382 6853.00 7051.31 82.78
2416 60.4587 6924.00 7050.29 83.21
2417 60.4792 7013.00 7050.14 83.74
2418 60.4997 6938.00 7049.63 83.29
2419 60.5202 6933.00 7049.15 83.26
2420 60.5407 6960.00 7048.59 83.43
2421 60.5611 6937.00 7047.86 83.29
2422 60.5816 7055.00 7046.96 83.99
2423 60.6021 6969.00 7045.97 83.48
2424 60.6226 7005.00 7045.03 83.70
2425 60.6430 6882.00 7044.42 82.96
2426 60.6635 7119.00 7043.95 84.37
2427 60.6840 7031.00 7043.82 83.85
2428 60.7044 7005.00 7044.04 83.70
2429 60.7249 7064.00 7044.63 84.05
2430 60.7454 7043.00 7045.65 83.92
2431 60.7659 7219.00 7047.18 84.96
2432 60.7864 7138.00 7049.33 84.49
2433 60.8069 7081.00 7053.28 84.15
2434 60.8274 6973.00 7057.14 83.50
2435 60.8479 6977.00 7062.06 83.53
2436 60.8683 7189.00 7068.17 84.79
2437 60.8888 7139.00 7075.66 84.49
2438 60.9093 7168.00 7084.69 84.66
2439 60.9298 7251.00 7095.46 85.15
2440 60.9503 7177.00 7108.21 84.72
2441 60.9708 7144.00 7124.43 84.52
2442 60.9913 7149.00 7142.04 84.55
2443 61.0118 7202.00 7163.19 84.86
2444 61.0322 7214.00 7187.10 84.94
2445 61.0527 7335.00 7215.11 85.64
2446 61.0732 7334.00 7247.65 85.64
2447 61.0937 7473.00 7286.07 86.45
2448 61.1142 7310.00 7329.53 85.50
2449 61.1347 7605.00 7379.24 87.21
2450 61.1552 7475.00 7435.37 86.46
2451 61.1756 7585.00 7494.04 87.09
2452 61.1961 7456.00 7562.40 86.35
2453 61.2166 7583.00 7632.40 87.08
2454 61.2371 7584.00 7700.59 87.09
2455 61.2576 7710.00 7762.32 87.81
2456 61.2781 7665.00 7812.03 87.55
2457 61.2986 7741.00 7845.22 87.98
2458 61.3191 7690.00 7859.82 87.69
2459 61.3395 7640.00 7855.37 87.41
2460 61.3600 7792.00 7838.64 88.27
2461 61.3805 7596.00 7812.49 87.15
2462 61.4010 7713.00 7780.09 87.82
2463 61.4215 7699.00 7744.50 87.74
2464 61.4420 7719.00 7705.35 87.86
2465 61.4625 7559.00 7661.84 86.94
2466 61.4830 7489.00 7613.34 86.54
2467 61.5034 7472.00 7560.41 86.44
2468 61.5239 7392.00 7504.00 85.98
2469 61.5444 7421.00 7446.59 86.15
2470 61.5649 7348.00 7391.70 85.72
2471 61.5854 7381.00 7338.59 85.91
2472 61.6059 7397.00 7289.72 86.01
2473 61.6263 7216.00 7245.59 84.95
2474 61.6468 7244.00 7206.31 85.11
2475 61.6672 7186.00 7171.81 84.77
2476 61.6877 7095.00 7141.35 84.23
2477 61.7082 7243.00 7114.70 85.11
2478 61.7287 7079.00 7091.39 84.14
2479 61.7492 7147.00 7072.74 84.54
2480 61.7697 7189.00 7054.93 84.79
2481 61.7902 6932.00 7039.34 83.26
2482 61.8106 6929.00 7025.74 83.24
2483 61.8311 7071.00 7013.77 84.09
2484 61.8516 7072.00 7003.75 84.10
2485 61.8721 7041.00 6994.57 83.91
2486 61.8926 6975.00 6986.64 83.52
2487 61.9131 7052.00 6979.67 83.98
2488 61.9336 7015.00 6973.65 83.76
2489 61.9541 7071.00 6968.48 84.09
2490 61.9745 6896.00 6964.11 83.04
2491 61.9950 6995.00 6960.44 83.64
2492 62.0155 6856.00 6957.45 82.80
2493 62.0360 6922.00 6955.11 83.20
2494 62.0565 7076.00 6954.24 84.12
2495 62.0770 7016.00 6953.10 83.76
2496 62.0975 6949.00 6952.20 83.36
2497 62.1180 7042.00 6952.22 83.92
2498 62.1384 6978.00 6953.19 83.53
2499 62.1589 7029.00 6954.34 83.84
2500 62.1794 7015.00 6956.08 83.76
2501 62.1999 7036.00 6958.42 83.88
2502 62.2204 7091.00 6961.17 84.21
2503 62.2409 7066.00 6964.79 84.06
2504 62.2614 7188.00 6968.95 84.78
2505 62.2818 7240.00 6970.19 85.09
2506 62.3023 7094.00 6976.09 84.23
2507 62.3228 6944.00 6984.10 83.33
2508 62.3433 7093.00 6991.81 84.22
2509 62.3638 7129.00 7000.55 84.43
2510 62.3843 7087.00 7008.96 84.18
2511 62.4048 7214.00 7020.11 84.94
2512 62.4253 7086.00 7032.66 84.18
2513 62.4457 7027.00 7044.83 83.83
2514 62.4662 7189.00 7060.73 84.79
2515 62.4867 7063.00 7078.63 84.04
2516 62.5071 7241.00 7099.41 85.09
2517 62.5276 7384.00 7122.14 85.93
2518 62.5481 7332.00 7147.13 85.63
2519 62.5686 7326.00 7176.14 85.59
2520 62.5891 7426.00 7209.19 86.17
2521 62.6095 7372.00 7246.17 85.86
2522 62.6300 7420.00 7288.26 86.14
2523 62.6505 7432.00 7335.94 86.21
2524 62.6710 7626.00 7389.89 87.33
2525 62.6915 7626.00 7450.83 87.33
2526 62.7120 7675.00 7519.28 87.61
2527 62.7325 7712.00 7595.65 87.82
2528 62.7530 7766.00 7680.00 88.12
2529 62.7734 7700.00 7771.13 87.75
2530 62.7939 7864.00 7869.06 88.68
2531 62.8144 8038.00 7971.89 89.65
2532 62.8349 8199.00 8078.27 90.55
2533 62.8554 8174.00 8187.16 90.41
2534 62.8759 8314.00 8298.10 91.18
2535 62.8964 8298.00 8410.69 91.09
2536 62.9168 8359.00 8522.86 91.43
2537 62.9373 8400.00 8632.26 91.65
2538 62.9578 8598.00 8732.56 92.73
2539 62.9783 8625.00 8816.24 92.87
2540 62.9988 8711.00 8876.25 93.33
2541 63.0193 8716.00 8908.15 93.36
2542 63.0398 8643.00 8911.67 92.97
2543 63.0603 8889.00 8890.35 94.28
2544 63.0807 8855.00 8850.02 94.10
2545 63.1012 8774.00 8795.82 93.67
2546 63.1217 8734.00 8731.82 93.46
2547 63.1422 8583.00 8660.68 92.64
2548 63.1627 8616.00 8581.80 92.82
2549 63.1832 8378.00 8496.14 91.53
2550 63.2037 8246.00 8404.60 90.81
2551 63.2242 8312.00 8309.15 91.17
2552 63.2446 8155.00 8213.09 90.31
2553 63.2651 8236.00 8118.39 90.75
2554 63.2856 8043.00 8028.30 89.68
2555 63.3061 7930.00 7944.96 89.05
2556 63.3266 7843.00 7870.31 88.56
2557 63.3471 7871.00 7804.98 88.72
2558 63.3676 7845.00 7749.99 88.57
2559 63.3880 7718.00 7705.99 87.85
2560 63.4085 7647.00 7670.05 87.45
2561 63.4290 7731.00 7647.69 87.93
2562 63.4494 7593.00 7636.17 87.14
2563 63.4699 7755.00 7635.38 88.06
2564 63.4904 7699.00 7645.16 87.74
2565 63.5109 7625.00 7665.29 87.32
2566 63.5314 7877.00 7695.33 88.75
2567 63.5518 7815.00 7734.26 88.40
2568 63.5723 8013.00 7780.68 89.52
2569 63.5928 8076.00 7831.81 89.87
2570 63.6133 8068.00 7885.80 89.82
2571 63.6338 8207.00 7937.70 90.59
2572 63.6543 8415.00 7983.48 91.73
2573 63.6748 8308.00 8020.03 91.15
2574 63.6953 8351.00 8046.32 91.38
2575 63.7157 8208.00 8063.58 90.60
2576 63.7362 8279.00 8075.04 90.99
2577 63.7567 8403.00 8085.33 91.67
2578 63.7772 8287.00 8095.50 91.03
2579 63.7977 8310.00 8108.15 91.16
2580 63.8182 8272.00 8123.31 90.95
2581 63.8387 8240.00 8139.87 90.77
2582 63.8592 8213.00 8156.38 90.63
2583 63.8796 8287.00 8171.84 91.03
2584 63.9001 8286.00 8186.50 91.03
2585 63.9206 8154.00 8201.35 90.30
2586 63.9411 8125.00 8219.95 90.14
2587 63.9616 7960.00 8239.41 89.22
2588 63.9821 8134.00 8261.58 90.19
2589 64.0026 7924.00 8284.38 89.02
2590 64.0230 8043.00 8303.85 89.68
2591 64.0435 7876.00 8315.29 88.75
2592 64.0640 8050.00 8314.11 89.72
2593 64.0845 8059.00 8298.56 89.77
2594 64.1050 8200.00 8267.56 90.55
2595 64.1255 8141.00 8224.89 90.23
2596 64.1460 7896.00 8174.90 88.86
2597 64.1665 7960.00 8121.60 89.22
2598 64.1869 7948.00 8068.31 89.15
2599 64.2074 7921.00 8014.63 89.00
2600 64.2279 8021.00 7960.78 89.56
2601 64.2484 7935.00 7905.98 89.08
2602 64.2689 7922.00 7849.99 89.01
2603 64.2894 7717.00 7793.52 87.85
2604 64.3098 7652.00 7738.26 87.48
2605 64.3303 7748.00 7686.33 88.02
2606 64.3507 7746.00 7640.00 88.01
2607 64.3712 7744.00 7601.67 88.00
2608 64.3917 7560.00 7570.33 86.95
2609 64.4122 7558.00 7547.82 86.94
2610 64.4327 7547.00 7534.45 86.87
2611 64.4532 7579.00 7530.28 87.06
2612 64.4737 7514.00 7535.16 86.68
2613 64.4941 7700.00 7548.65 87.75
2614 64.5146 7784.00 7570.23 88.23
2615 64.5351 7806.00 7599.32 88.35
2616 64.5556 7772.00 7633.46 88.16
2617 64.5761 7769.00 7671.10 88.14
2618 64.5966 7915.00 7709.88 88.97
2619 64.6171 7824.00 7747.26 88.45
2620 64.6376 7980.00 7780.97 89.33
2621 64.6580 7779.00 7809.10 88.20
2622 64.6785 7914.00 7830.94 88.96
2623 64.6990 8063.00 7846.09 89.79
2624 64.7195 8037.00 7855.20 89.65
2625 64.7400 7998.00 7859.52 89.43
2626 64.7605 8031.00 7860.56 89.62
2627 64.7810 8033.00 7859.58 89.63
2628 64.8015 7902.00 7857.23 88.89
2629 64.8219 7782.00 7853.58 88.22
2630 64.8424 8058.00 7848.19 89.77
2631 64.8629 7996.00 7840.73 89.42
2632 64.8834 7934.00 7831.29 89.07
2633 64.9039 7946.00 7820.75 89.14
2634 64.9244 7916.00 7812.00 88.97
2635 64.9449 7974.00 7805.10 89.30
2636 64.9653 8049.00 7803.50 89.72
2637 64.9858 7895.00 7809.25 88.85
2638 65.0063 7827.00 7823.90 88.47
2639 65.0268 7967.00 7848.44 89.26
2640 65.0473 7961.00 7883.49 89.22
2641 65.0678 8140.00 7929.41 90.22
2642 65.0883 8143.00 7987.56 90.24
2643 65.1088 8256.00 8055.17 90.86
2644 65.1292 8383.00 8132.10 91.56
2645 65.1497 8427.00 8218.16 91.80
2646 65.1702 8440.00 8307.37 91.87
2647 65.1907 8618.00 8396.38 92.83
2648 65.2112 8528.00 8480.74 92.35
2649 65.2317 8713.00 8555.36 93.34
2650 65.2522 8791.00 8618.20 93.76
2651 65.2726 8744.00 8669.25 93.51
2652 65.2930 8651.00 8711.12 93.01
2653 65.3135 8818.00 8746.27 93.90
2654 65.3340 8897.00 8778.35 94.32
2655 65.3545 8980.00 8809.14 94.76
2656 65.3750 8892.00 8838.39 94.30
2657 65.3955 8828.00 8863.80 93.96
2658 65.4160 8959.00 8881.48 94.65
2659 65.4365 9015.00 8886.98 94.95
2660 65.4569 9034.00 8875.08 95.05
2661 65.4774 8788.00 8846.38 93.74
2662 65.4979 8979.00 8799.07 94.76
2663 65.5184 8747.00 8737.53 93.53
2664 65.5389 8653.00 8663.91 93.02
2665 65.5594 8580.00 8584.86 92.63
2666 65.5799 8411.00 8505.08 91.71
2667 65.6003 8390.00 8428.15 91.60
2668 65.6208 8313.00 8354.67 91.18
2669 65.6413 8245.00 8284.24 90.80
2670 65.6618 8328.00 8217.53 91.26
2671 65.6823 8346.00 8153.41 91.36
2672 65.7028 8080.00 8092.93 89.89
2673 65.7233 8140.00 8036.19 90.22
2674 65.7438 7958.00 7985.80 89.21
2675 65.7642 7948.00 7944.15 89.15
2676 65.7847 8041.00 7912.74 89.67
2677 65.8052 7787.00 7893.33 88.24
2678 65.8257 7763.00 7886.99 88.11
2679 65.8462 7662.00 7894.45 87.53
2680 65.8667 7755.00 7916.07 88.06
2681 65.8872 7944.00 7951.91 89.13
2682 65.9077 7965.00 8001.53 89.25
2683 65.9281 8169.00 8063.57 90.38
2684 65.9486 8090.00 8136.94 89.94
2685 65.9691 7859.00 8217.78 88.65
2686 65.9896 8032.00 8302.10 89.62
2687 66.0101 8247.00 8384.84 90.81
2688 66.0306 8103.00 8460.79 90.02
2689 66.0511 8258.00 8525.85 90.87
2690 66.0714 8469.00 8577.50 92.03
2691 66.0919 8645.00 8616.04 92.98
2692 66.1124 8599.00 8642.23 92.73
2693 66.1329 8805.00 8657.38 93.83
2694 66.1534 8897.00 8662.55 94.32
2695 66.1739 8897.00 8656.61 94.32
2696 66.1944 8962.00 8639.63 94.67
2697 66.2149 8831.00 8611.76 93.97
2698 66.2353 8765.00 8574.44 93.62
2699 66.2558 8848.00 8529.72 94.06
2700 66.2763 8461.00 8481.89 91.98
2701 66.2968 8420.00 8432.56 91.76
2702 66.3173 8548.00 8384.38 92.46
2703 66.3378 8754.00 8339.10 93.56
2704 66.3583 8483.00 8296.94 92.10
2705 66.3788 8386.00 8257.38 91.58
2706 66.3992 8136.00 8219.62 90.20
2707 66.4197 8239.00 8182.05 90.77
2708 66.4402 8128.00 8143.59 90.16
2709 66.4607 7882.00 8103.23 88.78
2710 66.4812 7975.00 8061.43 89.30
2711 66.5017 7796.00 8016.85 88.29
2712 66.5222 7910.00 7971.82 88.94
2713 66.5427 7829.00 7928.30 88.48
2714 66.5631 7664.00 7888.45 87.54
2715 66.5836 7581.00 7853.36 87.07
2716 66.6041 7695.00 7823.97 87.72
2717 66.6246 7809.00 7800.32 88.37
2718 66.6451 7708.00 7782.12 87.80
2719 66.6656 7663.00 7769.75 87.54
2720 66.6861 7651.00 7761.90 87.47
2721 66.7065 7834.00 7759.62 88.51
2722 66.7270 7862.00 7763.41 88.67
2723 66.7475 7907.00 7773.51 88.92
2724 66.7680 7713.00 7789.35 87.82
2725 66.7885 7790.00 7809.27 88.26
2726 66.8090 7936.00 7830.43 89.08
2727 66.8295 8184.00 7849.10 90.47
2728 66.8500 8242.00 7861.48 90.79
2729 66.8704 8132.00 7864.26 90.18
2730 66.8909 8164.00 7856.18 90.35
2731 66.9114 8068.00 7837.84 89.82
2732 66.9318 7962.00 7811.59 89.23
2733 66.9523 8031.00 7780.54 89.62
2734 66.9728 7894.00 7747.43 88.85
2735 66.9933 7913.00 7714.00 88.96
2736 67.0138 7761.00 7680.63 88.10
2737 67.0342 7601.00 7646.76 87.18
2738 67.0547 7768.00 7610.88 88.14
2739 67.0752 7603.00 7572.09 87.20
2740 67.0957 7772.00 7529.89 88.16
2741 67.1162 7721.00 7483.88 87.87
2742 67.1367 7409.00 7436.17 86.08
2743 67.1572 7341.00 7387.32 85.68
2744 67.1776 7363.00 7338.92 85.81
2745 67.1981 7315.00 7291.78 85.53
2746 67.2186 7203.00 7247.26 84.87
2747 67.2391 7276.00 7206.12 85.30
2748 67.2596 7322.00 7168.83 85.57
2749 67.2801 7302.00 7133.39 85.45
2750 67.3006 7275.00 7103.36 85.29
2751 67.3211 7138.00 7077.09 84.49
2752 67.3415 7156.00 7053.65 84.59
2753 67.3620 7002.00 7032.72 83.68
2754 67.3825 6850.00 7013.98 82.76
2755 67.4030 7005.00 6998.34 83.70
2756 67.4235 7047.00 6985.62 83.95
2757 67.4440 6981.00 6976.07 83.55
2758 67.4645 7193.00 6968.94 84.81
2759 67.4850 7088.00 6966.45 84.19
2760 67.5054 7058.00 6968.06 84.01
2761 67.5259 6987.00 6973.35 83.59
2762 67.5464 7117.00 6982.71 84.36
2763 67.5669 7137.00 6996.73 84.48
2764 67.5874 7241.00 7014.38 85.09
2765 67.6079 7112.00 7035.96 84.33
2766 67.6284 7098.00 7061.30 84.25
2767 67.6489 7318.00 7089.07 85.55
2768 67.6693 7292.00 7118.13 85.39
2769 67.6898 7297.00 7147.05 85.42
2770 67.7103 7302.00 7173.64 85.45
2771 67.7308 7393.00 7195.83 85.98
2772 67.7513 7413.00 7212.00 86.10
2773 67.7718 7514.00 7221.42 86.68
2774 67.7923 7467.00 7224.44 86.41
2775 67.8127 7568.00 7222.40 86.99
2776 67.8332 7520.00 7217.02 86.72
2777 67.8536 7569.00 7210.00 87.00
2778 67.8741 7401.00 7202.52 86.03
2779 67.8946 7369.00 7195.14 85.84
2780 67.9151 7511.00 7187.87 86.67
2781 67.9356 7451.00 7180.45 86.32
2782 67.9561 7435.00 7172.73 86.23
2783 67.9765 7209.00 7164.96 84.91
2784 67.9970 7332.00 7156.56 85.63
2785 68.0175 7312.00 7150.83 85.51
2786 68.0380 7397.00 7147.74 86.01
2787 68.0585 7351.00 7148.30 85.74
2788 68.0790 7363.00 7153.36 85.81
2789 68.0995 7260.00 7163.47 85.21
2790 68.1200 7312.00 7178.98 85.51
2791 68.1404 7333.00 7199.92 85.63
2792 68.1609 7295.00 7226.51 85.41
2793 68.1814 7411.00 7258.63 86.09
2794 68.2019 7527.00 7295.82 86.76
2795 68.2224 7681.00 7339.38 87.64
2796 68.2429 7648.00 7388.78 87.45
2797 68.2634 7524.00 7445.27 86.74
2798 68.2838 7536.00 7508.49 86.81
2799 68.3043 7640.00 7579.06 87.41
2800 68.3248 7905.00 7656.14 88.91
2801 68.3453 7863.00 7738.35 88.67
2802 68.3658 8148.00 7823.64 90.27
2803 68.3863 8187.00 7909.49 90.48
2804 68.4068 8432.00 7993.26 91.83
2805 68.4273 8289.00 8071.33 91.04
2806 68.4477 8442.00 8145.14 91.88
2807 68.4682 8456.00 8213.21 91.96
2808 68.4887 8634.00 8274.44 92.92
2809 68.5092 8689.00 8327.60 93.21
2810 68.5297 8431.00 8370.45 91.82
2811 68.5502 8415.00 8400.25 91.73
2812 68.5707 8552.00 8415.39 92.48
2813 68.5912 8685.00 8413.21 93.19
2814 68.6116 8634.00 8395.83 92.92
2815 68.6320 8670.00 8365.66 93.11
2816 68.6525 8516.00 8327.01 92.28
2817 68.6730 8474.00 8284.34 92.05
2818 68.6935 8240.00 8240.55 90.77
2819 68.7140 8377.00 8197.92 91.53
2820 68.7345 8200.00 8157.19 90.55
2821 68.7550 8090.00 8118.31 89.94
2822 68.7754 8006.00 8081.19 89.48
2823 68.7959 8035.00 8045.54 89.64
2824 68.8164 7937.00 8012.02 89.09
2825 68.8369 7946.00 7981.48 89.14
2826 68.8574 7978.00 7954.72 89.32
2827 68.8779 8122.00 7932.44 90.12
2828 68.8984 8109.00 7915.13 90.05
2829 68.9188 8013.00 7903.06 89.52
2830 68.9393 7984.00 7895.93 89.35
2831 68.9598 8097.00 7893.05 89.98
2832 68.9803 8126.00 7892.80 90.14
2833 69.0008 8253.00 7893.41 90.85
2834 69.0213 8434.00 7890.15 91.84
2835 69.0418 8470.00 7881.74 92.03
2836 69.0623 8409.00 7865.87 91.70
2837 69.0827 8474.00 7842.24 92.05
2838 69.1032 8270.00 7811.12 90.94
2839 69.1237 8239.00 7775.97 90.77
2840 69.1442 8251.00 7738.75 90.83
2841 69.1647 8280.00 7701.58 90.99
2842 69.1852 8021.00 7665.81 89.56
2843 69.2057 8014.00 7632.04 89.52
2844 69.2262 7972.00 7599.83 89.29
2845 69.2466 7957.00 7569.91 89.20
2846 69.2671 7843.00 7540.42 88.56
2847 69.2876 7756.00 7512.21 88.07
2848 69.3081 7739.00 7487.42 87.97
2849 69.3286 7703.00 7466.89 87.77
2850 69.3491 7681.00 7452.06 87.64
2851 69.3696 7851.00 7444.32 88.61
2852 69.3900 7660.00 7444.75 87.52
2853 69.4105 7891.00 7454.28 88.83
2854 69.4310 7743.00 7474.12 87.99
2855 69.4515 7748.00 7503.92 88.02
2856 69.4720 7873.00 7544.59 88.73
2857 69.4925 7968.00 7596.29 89.26
2858 69.5130 7904.00 7659.31 88.90
2859 69.5334 7937.00 7733.16 89.09
2860 69.5538 7943.00 7816.45 89.12
2861 69.5743 8278.00 7908.26 90.98
2862 69.5948 8276.00 8005.42 90.97
2863 69.6153 8298.00 8104.30 91.09
2864 69.6358 8332.00 8201.00 91.28
2865 69.6563 8564.00 8290.24 92.54
2866 69.6768 8660.00 8367.43 93.06
2867 69.6973 8681.00 8431.09 93.17
2868 69.7177 8706.00 8479.95 93.31
2869 69.7382 8699.00 8513.65 93.27
2870 69.7587 8551.00 8532.70 92.47
2871 69.7792 8500.00 8538.52 92.20
2872 69.7997 8261.00 8532.59 90.89
2873 69.8202 8390.00 8517.20 91.60
2874 69.8407 8452.00 8494.22 91.93
2875 69.8611 8313.00 8464.73 91.18
2876 69.8816 8373.00 8431.37 91.50
2877 69.9021 8256.00 8394.96 90.86
2878 69.9226 8258.00 8356.90 90.87
2879 69.9431 8333.00 8318.15 91.29
2880 69.9636 8229.00 8280.51 90.71
2881 69.9841 8180.00 8243.41 90.44
2882 70.0046 8134.00 8206.73 90.19
2883 70.0250 8191.00 8170.76 90.50
2884 70.0455 8334.00 8135.11 91.29
2885 70.0660 8189.00 8100.43 90.49
2886 70.0865 8189.00 8067.72 90.49
2887 70.1070 8048.00 8038.54 89.71
2888 70.1275 8150.00 8014.42 90.28
2889 70.1480 8086.00 7997.12 89.92
2890 70.1685 8111.00 7988.24 90.06
2891 70.1889 8103.00 7987.33 90.02
2892 70.2094 8165.00 7993.03 90.36
2893 70.2299 8135.00 8002.87 90.19
2894 70.2504 8197.00 8013.30 90.54
2895 70.2709 8365.00 8020.26 91.46
2896 70.2914 8235.00 8019.88 90.75
2897 70.3119 8194.00 8009.26 90.52
2898 70.3324 8209.00 7987.17 90.60
2899 70.3527 7944.00 7954.46 89.13
2900 70.3732 8003.00 7913.20 89.46
2901 70.3937 7923.00 7866.44 89.01
2902 70.4142 7953.00 7817.43 89.18
2903 70.4347 7910.00 7768.66 88.94
2904 70.4552 7705.00 7721.43 87.78
2905 70.4757 7745.00 7676.00 88.01
2906 70.4961 7635.00 7632.08 87.38
2907 70.5166 7552.00 7588.56 86.90
2908 70.5371 7646.00 7545.31 87.44
2909 70.5576 7560.00 7501.01 86.95
2910 70.5781 7407.00 7459.66 86.06
2911 70.5986 7382.00 7421.18 85.92
2912 70.6191 7298.00 7387.08 85.43
2913 70.6396 7280.00 7358.74 85.32
2914 70.6600 7283.00 7337.31 85.34
2915 70.6805 7367.00 7322.27 85.83
2916 70.7010 7326.00 7315.82 85.59
2917 70.7215 7325.00 7316.86 85.59
2918 70.7420 7299.00 7324.14 85.43
2919 70.7625 7345.00 7338.48 85.70
2920 70.7830 7439.00 7358.22 86.25
2921 70.8035 7466.00 7382.41 86.41
2922 70.8239 7754.00 7409.80 88.06
2923 70.8444 7683.00 7439.35 87.65
2924 70.8649 7582.00 7469.21 87.07
2925 70.8854 7638.00 7496.83 87.40
2926 70.9059 7715.00 7520.60 87.84
2927 70.9264 7577.00 7537.88 87.05
2928 70.9469 7649.00 7546.88 87.46
2929 70.9673 7536.00 7547.00 86.81
2930 70.9878 7661.00 7538.90 87.53
2931 71.0083 7618.00 7523.54 87.28
2932 71.0288 7533.00 7504.87 86.79
2933 71.0493 7693.00 7484.41 87.71
2934 71.0698 7526.00 7463.99 86.75
2935 71.0903 7411.00 7444.88 86.09
2936 71.1108 7445.00 7427.09 86.28
2937 71.1312 7521.00 7410.88 86.72
2938 71.1517 7404.00 7395.93 86.05
2939 71.1721 7219.00 7382.45 84.96
2940 71.1926 7386.00 7370.90 85.94
2941 71.2132 7507.00 7361.62 86.64
2942 71.2336 7351.00 7356.01 85.74
2943 71.2541 7360.00 7353.96 85.79
2944 71.2746 7172.00 7355.04 84.69
2945 71.2950 7350.00 7358.16 85.73
2946 71.3155 7432.00 7361.35 86.21
2947 71.3360 7485.00 7362.53 86.52
2948 71.3565 7409.00 7359.71 86.08
2949 71.3770 7365.00 7351.61 85.82
2950 71.3975 7418.00 7337.95 86.13
2951 71.4180 7325.00 7319.45 85.59
2952 71.4385 7309.00 7296.20 85.49
2953 71.4589 7186.00 7272.23 84.77
2954 71.4794 7218.00 7247.03 84.96
2955 71.4999 7476.00 7220.99 86.46
2956 71.5204 7387.00 7193.73 85.95
2957 71.5409 7148.00 7164.42 84.55
2958 71.5614 7038.00 7132.23 83.89
2959 71.5819 7127.00 7096.74 84.42
2960 71.6023 7105.00 7058.32 84.29
2961 71.6228 6941.00 7017.39 83.31
2962 71.6433 6909.00 6974.73 83.12
2963 71.6638 7037.00 6932.80 83.89
2964 71.6843 7016.00 6892.04 83.76
2965 71.7048 6742.00 6853.23 82.11
2966 71.7253 6679.00 6816.52 81.73
2967 71.7458 6696.00 6782.54 81.83
2968 71.7662 6588.00 6751.23 81.17
2969 71.7867 6580.00 6722.24 81.12
2970 71.8072 6639.00 6695.74 81.48
2971 71.8277 6571.00 6671.79 81.06
2972 71.8482 6661.00 6650.45 81.61
2973 71.8687 6726.00 6631.79 82.01
2974 71.8892 6657.00 6615.83 81.59
2975 71.9097 6592.00 6602.60 81.19
2976 71.9301 6557.00 6592.02 80.98
2977 71.9506 6663.00 6584.19 81.63
2978 71.9711 6547.00 6579.06 80.91
2979 71.9915 6565.00 6576.63 81.02
2980 72.0120 6532.00 6576.93 80.82
2981 72.0325 6674.00 6580.02 81.69
2982 72.0530 6590.00 6585.95 81.18
2983 72.0734 6670.00 6594.78 81.67
2984 72.0939 6542.00 6606.68 80.88
2985 72.1144 6629.00 6621.71 81.42
2986 72.1349 6735.00 6639.89 82.07
2987 72.1554 6573.00 6661.20 81.07
2988 72.1759 6679.00 6685.48 81.73
2989 72.1964 6559.00 6712.42 80.99
2990 72.2169 6828.00 6741.51 82.63
2991 72.2373 6882.00 6771.93 82.96
2992 72.2578 6802.00 6803.11 82.47
2993 72.2783 6779.00 6833.91 82.33
2994 72.2988 7009.00 6863.24 83.72
2995 72.3193 6870.00 6889.91 82.89
2996 72.3398 7001.00 6912.76 83.67
2997 72.3603 7093.00 6930.94 84.22
2998 72.3808 6938.00 6942.18 83.29
2999 72.4012 6866.00 6947.52 82.86
3000 72.4217 6976.00 6946.14 83.52
3001 72.4422 6950.00 6938.43 83.37
3002 72.4627 6846.00 6925.24 82.74
3003 72.4832 6866.00 6907.74 82.86
3004 72.5037 6912.00 6887.10 83.14
3005 72.5242 6866.00 6864.29 82.86
3006 72.5447 6756.00 6839.95 82.19
3007 72.5651 6693.00 6814.99 81.81
3008 72.5856 6835.00 6787.92 82.67
3009 72.6061 6771.00 6760.33 82.29
3010 72.6266 6691.00 6731.30 81.80
3011 72.6471 6675.00 6701.57 81.70
3012 72.6676 6762.00 6671.27 82.23
3013 72.6881 6386.00 6641.19 79.91
3014 72.7085 6622.00 6612.12 81.38
3015 72.7290 6607.00 6584.40 81.28
3016 72.7495 6314.00 6558.64 79.46
3017 72.7700 6501.00 6535.13 80.63
3018 72.7905 6533.00 6514.03 80.83
3019 72.8110 6529.00 6495.39 80.80
3020 72.8315 6718.00 6479.15 81.96
3021 72.8519 6453.00 6465.22 80.33
3022 72.8723 6417.00 6454.01 80.11
3023 72.8928 6330.00 6444.71 79.56
3024 72.9133 6438.00 6437.02 80.24
3025 72.9338 6326.00 6431.19 79.54
3026 72.9543 6254.00 6427.16 79.08
3027 72.9748 6313.00 6424.85 79.45
3028 72.9953 6375.00 6424.25 79.84
3029 73.0158 6249.00 6425.36 79.05
3030 73.0362 6275.00 6428.16 79.21
3031 73.0567 6371.00 6432.73 79.82
3032 73.0772 6400.00 6439.07 80.00
3033 73.0977 6438.00 6447.09 80.24
3034 73.1182 6426.00 6457.54 80.16
3035 73.1387 6308.00 6470.60 79.42
3036 73.1592 6425.00 6485.73 80.16
3037 73.1796 6507.00 6503.42 80.67
3038 73.2001 6493.00 6524.10 80.58
3039 73.2206 6478.00 6548.10 80.49
3040 73.2411 6387.00 6575.43 79.92
3041 73.2616 6575.00 6604.99 81.09
3042 73.2821 6440.00 6640.02 80.25
3043 73.3026 6553.00 6678.61 80.95
3044 73.3231 6579.00 6721.64 81.11
3045 73.3435 6657.00 6768.05 81.59
3046 73.3640 6565.00 6817.56 81.02
3047 73.3845 6816.00 6868.73 82.56
3048 73.4050 6637.00 6919.92 81.47
3049 73.4255 6697.00 6968.89 81.84
3050 73.4460 6860.00 7013.28 82.83
3051 73.4665 6796.00 7050.07 82.44
3052 73.4870 6839.00 7078.77 82.70
3053 73.5074 6939.00 7097.69 83.30
3054 73.5279 6815.00 7107.02 82.55
3055 73.5484 6738.00 7107.64 82.09
3056 73.5688 6846.00 7101.20 82.74
3057 73.5893 6751.00 7089.22 82.16
3058 73.6098 6985.00 7074.19 83.58
3059 73.6303 6935.00 7056.98 83.28
3060 73.6508 6722.00 7038.27 81.99
3061 73.6712 6602.00 7018.47 81.25
3062 73.6917 6674.00 6996.99 81.69
3063 73.7122 6686.00 6973.93 81.77
3064 73.7327 6626.00 6949.45 81.40
3065 73.7532 6754.00 6924.06 82.18
3066 73.7737 6680.00 6897.52 81.73
3067 73.7942 6540.00 6872.94 80.87
3068 73.8146 6534.00 6850.42 80.83
3069 73.8351 6477.00 6831.99 80.48
3070 73.8556 6483.00 6816.98 80.52
3071 73.8761 6472.00 6806.89 80.45
3072 73.8966 6483.00 6802.18 80.52
3073 73.9171 6552.00 6803.07 80.94
3074 73.9376 6535.00 6809.53 80.84
3075 73.9581 6585.00 6821.25 81.15
3076 73.9785 6587.00 6837.06 81.16
3077 73.9990 6608.00 6857.20 81.29
3078 74.0195 6528.00 6879.87 80.80
3079 74.0400 6381.00 6903.60 79.88
3080 74.0605 6530.00 6927.42 80.81
3081 74.0810 6479.00 6949.03 80.49
3082 74.1015 6646.00 6967.76 81.52
3083 74.1220 6755.00 6983.48 82.19
3084 74.1424 6716.00 6996.71 81.95
3085 74.1629 6575.00 7008.61 81.09
3086 74.1834 6605.00 7020.37 81.27
3087 74.2039 6582.00 7033.05 81.13
3088 74.2244 6705.00 7047.20 81.88
3089 74.2449 6855.00 7062.68 82.79
3090 74.2654 6726.00 7078.58 82.01
3091 74.2858 6718.00 7093.30 81.96
3092 74.3063 6736.00 7105.10 82.07
3093 74.3268 6869.00 7112.01 82.88
3094 74.3473 6708.00 7112.82 81.90
3095 74.3678 6615.00 7106.33 81.33
3096 74.3883 6661.00 7093.02 81.61
3097 74.4088 6758.00 7073.96 82.21
3098 74.4292 6832.00 7049.66 82.66
3099 74.4496 6771.00 7024.29 82.29
3100 74.4701 6868.00 6998.01 82.87
3101 74.4906 6450.00 6971.39 80.31
3102 74.5111 6542.00 6946.27 80.88
3103 74.5316 6776.00 6922.07 82.32
3104 74.5521 6575.00 6898.61 81.09
3105 74.5726 6620.00 6874.92 81.36
3106 74.5931 6557.00 6852.23 80.98
3107 74.6135 6527.00 6830.06 80.79
3108 74.6340 6432.00 6808.44 80.20
3109 74.6545 6567.00 6787.33 81.04
3110 74.6750 6429.00 6768.05 80.18
3111 74.6955 6349.00 6750.11 79.68
3112 74.7160 6269.00 6732.89 79.18
3113 74.7365 6450.00 6716.43 80.31
3114 74.7570 6591.00 6699.67 81.18
3115 74.7774 6445.00 6681.55 80.28
3116 74.7979 6436.00 6662.16 80.22
3117 74.8184 6402.00 6641.02 80.01
3118 74.8389 6314.00 6618.34 79.46
3119 74.8594 6363.00 6593.98 79.77
3120 74.8799 6282.00 6569.93 79.26
3121 74.9004 6188.00 6546.14 78.66
3122 74.9208 6277.00 6523.13 79.23
3123 74.9413 6394.00 6500.86 79.96
3124 74.9618 6327.00 6479.33 79.54
3125 74.9823 6268.00 6458.30 79.17
3126 75.0028 6050.00 6437.47 77.78
3127 75.0233 6236.00 6416.60 78.97
3128 75.0438 6156.00 6395.64 78.46
3129 75.0643 6202.00 6374.67 78.75
3130 75.0847 6203.00 6353.72 78.76
3131 75.1052 6185.00 6333.57 78.64
3132 75.1257 6240.00 6314.32 78.99
3133 75.1461 6201.00 6294.97 78.75
3134 75.1666 6218.00 6278.28 78.85
3135 75.1871 6062.00 6263.09 77.86
3136 75.2076 6072.00 6249.42 77.92
3137 75.2281 6011.00 6237.26 77.53
3138 75.2485 6114.00 6226.65 78.19
3139 75.2690 6110.00 6217.38 78.17
3140 75.2895 6070.00 6209.42 77.91
3141 75.3100 6102.00 6202.66 78.12
3142 75.3305 6077.00 6196.97 77.96
3143 75.3510 6109.00 6191.62 78.16
3144 75.3715 5958.00 6187.76 77.19
3145 75.3919 6150.00 6184.65 78.42
3146 75.4124 6100.00 6182.15 78.10
3147 75.4329 6049.00 6180.17 77.78
3148 75.4534 6106.00 6178.59 78.14
3149 75.4739 5917.00 6177.22 76.92
3150 75.4944 6027.00 6175.86 77.63
3151 75.5149 6121.00 6174.26 78.24
3152 75.5354 6033.00 6172.22 77.67
3153 75.5558 6030.00 6169.55 77.65
3154 75.5763 6035.00 6166.14 77.69
3155 75.5968 6143.00 6162.00 78.38
3156 75.6173 5880.00 6157.69 76.68
3157 75.6378 6056.00 6152.50 77.82
3158 75.6583 6055.00 6146.82 77.81
3159 75.6788 6039.00 6141.30 77.71
3160 75.6993 6129.00 6135.79 78.29
3161 75.7197 6086.00 6130.38 78.01
3162 75.7402 6094.00 6124.99 78.06
3163 75.7607 5991.00 6119.62 77.40
3164 75.7812 6052.00 6114.22 77.79
3165 75.8017 6135.00 6108.43 78.33
3166 75.8222 6058.00 6102.66 77.83
3167 75.8427 5997.00 6097.28 77.44
3168 75.8631 5999.00 6091.96 77.45
3169 75.8836 5969.00 6086.96 77.26
3170 75.9041 6072.00 6082.30 77.92
3171 75.9246 6087.00 6078.04 78.02
3172 75.9451 6055.00 6074.24 77.81
3173 75.9655 6063.00 6070.93 77.87
3174 75.9860 6053.00 6068.15 77.80
3175 76.0065 6164.00 6066.46 78.51
3176 76.0269 6185.00 6064.58 78.64
3177 76.0474 5998.00 6063.75 77.45
3178 76.0679 6030.00 6063.16 77.65
3179 76.0884 5947.00 6063.13 77.12
3180 76.1089 6168.00 6063.68 78.54
3181 76.1294 6097.00 6064.83 78.08
3182 76.1499 6136.00 6066.80 78.33
3183 76.1704 6093.00 6069.16 78.06
3184 76.1908 6046.00 6072.09 77.76
3185 76.2113 6321.00 6075.58 79.50
3186 76.2318 6201.00 6079.53 78.75
3187 76.2523 5996.00 6083.83 77.43
3188 76.2728 5998.00 6087.37 77.45
3189 76.2933 6239.00 6091.88 78.99
3190 76.3138 6158.00 6095.86 78.47
3191 76.3343 6086.00 6099.15 78.01
3192 76.3547 6160.00 6101.47 78.49
3193 76.3752 6284.00 6102.65 79.27
3194 76.3957 6253.00 6102.64 79.08
3195 76.4162 6254.00 6101.50 79.08
3196 76.4367 6215.00 6099.44 78.84
3197 76.4572 6322.00 6096.50 79.51
3198 76.4777 6216.00 6093.33 78.84
3199 76.4981 6143.00 6089.50 78.38
3200 76.5186 6134.00 6086.38 78.32
3201 76.5391 6155.00 6082.76 78.45
3202 76.5596 6097.00 6079.00 78.08
3203 76.5801 5949.00 6075.05 77.13
3204 76.6006 6063.00 6071.14 77.87
3205 76.6211 6149.00 6066.67 78.42
3206 76.6416 6117.00 6061.95 78.21
3207 76.6620 6193.00 6057.28 78.70
3208 76.6824 6147.00 6052.30 78.40
3209 76.7029 6101.00 6047.52 78.11
3210 76.7234 5954.00 6042.97 77.16
3211 76.7439 6075.00 6038.72 77.94
3212 76.7644 6029.00 6034.83 77.65
3213 76.7849 6010.00 6032.33 77.52
3214 76.8054 6132.00 6029.29 78.31
3215 76.8258 6098.00 6026.68 78.09
3216 76.8463 6216.00 6024.48 78.84
3217 76.8668 6037.00 6023.12 77.70
3218 76.8873 5888.00 6021.71 76.73
3219 76.9078 5847.00 6020.68 76.47
3220 76.9283 5886.00 6020.01 76.72
3221 76.9488 6070.00 6019.68 77.91
3222 76.9692 6219.00 6019.69 78.86
3223 76.9897 6065.00 6020.02 77.88
3224 77.0102 6161.00 6020.68 78.49
3225 77.0307 6154.00 6021.67 78.45
3226 77.0512 6061.00 6022.99 77.85
3227 77.0717 5987.00 6024.64 77.38
3228 77.0922 5928.00 6026.63 76.99
3229 77.1127 6107.00 6028.99 78.15
3230 77.1331 6123.00 6031.71 78.25
3231 77.1536 5982.00 6034.84 77.34
3232 77.1741 6001.00 6038.38 77.47
3233 77.1946 5892.00 6042.38 76.76
3234 77.2151 6093.00 6046.87 78.06
3235 77.2356 6045.00 6051.81 77.75
3236 77.2561 6115.00 6057.40 78.20
3237 77.2766 6140.00 6063.62 78.36
3238 77.2970 6152.00 6070.49 78.43
3239 77.3175 6175.00 6077.95 78.58
3240 77.3380 6231.00 6086.44 78.94
3241 77.3585 6159.00 6095.87 78.48
3242 77.3790 6212.00 6106.32 78.82
3243 77.3995 6204.00 6117.33 78.77
3244 77.4200 6260.00 6130.20 79.12
3245 77.4405 6317.00 6144.49 79.48
3246 77.4609 6227.00 6160.25 78.91
3247 77.4814 6398.00 6177.85 79.99
3248 77.5018 6146.00 6197.37 78.40
3249 77.5223 6229.00 6219.00 78.92
3250 77.5428 6320.00 6242.82 79.50
3251 77.5633 6306.00 6269.26 79.41
3252 77.5838 6351.00 6298.16 79.69
3253 77.6042 6313.00 6329.65 79.45
3254 77.6247 6306.00 6363.28 79.41
3255 77.6452 6313.00 6399.40 79.45
3256 77.6657 6457.00 6437.26 80.36
3257 77.6862 6516.00 6476.11 80.72
3258 77.7067 6640.00 6515.02 81.49
3259 77.7272 6702.00 6552.84 81.87
3260 77.7477 6582.00 6588.46 81.13
3261 77.7681 6568.00 6620.56 81.04
3262 77.7886 6714.00 6648.76 81.94
3263 77.8091 6782.00 6672.61 82.35
3264 77.8296 6905.00 6692.32 83.10
3265 77.8501 6889.00 6708.57 83.00
3266 77.8706 6849.00 6722.33 82.76
3267 77.8911 6647.00 6734.66 81.53
3268 77.9116 6802.00 6746.52 82.47
3269 77.9320 6637.00 6758.55 81.47
3270 77.9525 6655.00 6771.15 81.58
3271 77.9730 6857.00 6784.19 82.81
3272 77.9935 6823.00 6797.23 82.60
3273 78.0140 6891.00 6809.75 83.01
3274 78.0345 6651.00 6820.79 81.55
3275 78.0550 6791.00 6829.88 82.41
3276 78.0754 6673.00 6836.65 81.69
3277 78.0959 6658.00 6841.17 81.60
3278 78.1164 6803.00 6843.84 82.48
3279 78.1369 6638.00 6845.48 81.47
3280 78.1574 6931.00 6847.10 83.25
3281 78.1779 6675.00 6849.77 81.70
3282 78.1984 6852.00 6854.33 82.78
3283 78.2189 6745.00 6861.23 82.13
3284 78.2393 6715.00 6870.33 81.95
3285 78.2597 6839.00 6881.13 82.70
3286 78.2802 6774.00 6892.33 82.30
3287 78.3007 6716.00 6902.45 81.95
3288 78.3212 6699.00 6909.89 81.85
3289 78.3417 6723.00 6913.23 81.99
3290 78.3622 6832.00 6911.71 82.66
3291 78.3827 6798.00 6904.49 82.45
3292 78.4031 6733.00 6892.10 82.05
3293 78.4236 6726.00 6875.15 82.01
3294 78.4441 6722.00 6854.65 81.99
3295 78.4646 6722.00 6831.59 81.99
3296 78.4851 6750.00 6806.82 82.16
3297 78.5056 6753.00 6780.93 82.18
3298 78.5261 6748.00 6754.26 82.15
3299 78.5466 6623.00 6726.16 81.38
3300 78.5670 6695.00 6698.27 81.82
3301 78.5875 6543.00 6669.66 80.89
3302 78.6080 6521.00 6639.84 80.75
3303 78.6285 6575.00 6610.00 81.09
3304 78.6490 6442.00 6580.04 80.26
3305 78.6695 6420.00 6550.38 80.12
3306 78.6900 6386.00 6521.46 79.91
3307 78.7104 6442.00 6493.90 80.26
3308 78.7309 6485.00 6468.09 80.53
3309 78.7514 6473.00 6444.02 80.46
3310 78.7719 6336.00 6421.86 79.60
3311 78.7924 6146.00 6402.62 78.40
3312 78.8129 6310.00 6386.09 79.44
3313 78.8334 6263.00 6372.13 79.14
3314 78.8539 6337.00 6361.22 79.61
3315 78.8743 6322.00 6353.12 79.51
3316 78.8948 6582.00 6347.62 81.13
3317 78.9153 6348.00 6344.57 79.67
3318 78.9358 6089.00 6343.71 78.03
3319 78.9563 6300.00 6345.19 79.37
3320 78.9768 6442.00 6347.95 80.26
3321 78.9972 6355.00 6352.20 79.72
3322 79.0177 6248.00 6357.81 79.04
3323 79.0381 6220.00 6364.70 78.87
3324 79.0586 6294.00 6373.04 79.33
3325 79.0791 6407.00 6383.37 80.04
3326 79.0996 6290.00 6395.17 79.31
3327 79.1201 6450.00 6409.16 80.31
3328 79.1406 6346.00 6425.64 79.66
3329 79.1611 6335.00 6444.88 79.59
3330 79.1815 6350.00 6466.92 79.69
3331 79.2020 6500.00 6492.30 80.62
3332 79.2225 6556.00 6519.44 80.97
3333 79.2430 6567.00 6549.61 81.04
3334 79.2635 6561.00 6581.41 81.00
3335 79.2840 6551.00 6613.82 80.94
3336 79.3045 6683.00 6645.56 81.75
3337 79.3250 6625.00 6675.85 81.39
3338 79.3454 6682.00 6701.62 81.74
3339 79.3659 6852.00 6721.67 82.78
3340 79.3864 6780.00 6734.98 82.34
3341 79.4069 6791.00 6740.92 82.41
3342 79.4274 6681.00 6739.54 81.74
3343 79.4479 6568.00 6731.50 81.04
3344 79.4684 6663.00 6718.29 81.63
3345 79.4889 6624.00 6701.25 81.39
3346 79.5093 6559.00 6681.13 80.99
3347 79.5298 6476.00 6660.34 80.47
3348 79.5503 6663.00 6638.84 81.63
3349 79.5708 6476.00 6616.86 80.47
3350 79.5913 6547.00 6594.24 80.91
3351 79.6118 6805.00 6570.68 82.49
3352 79.6323 6470.00 6545.87 80.44
3353 79.6528 6394.00 6519.70 79.96
3354 79.6732 6475.00 6492.40 80.47
3355 79.6937 6480.00 6464.71 80.50
3356 79.7142 6520.00 6436.49 80.75
3357 79.7346 6367.00 6408.47 79.79
3358 79.7551 6343.00 6382.10 79.64
3359 79.7757 6387.00 6357.52 79.92
3360 79.7961 6333.00 6335.11 79.58
3361 79.8165 6212.00 6315.09 78.82
3362 79.8370 6414.00 6297.17 80.09
3363 79.8575 6181.00 6281.19 78.62
3364 79.8780 6290.00 6266.74 79.31
3365 79.8985 6246.00 6253.41 79.03
3366 79.9190 6395.00 6240.44 79.97
3367 79.9395 6372.00 6227.51 79.82
3368 79.9600 6340.00 6214.29 79.62
3369 79.9804 6269.00 6200.67 79.18
3370 80.0009 6286.00 6186.71 79.28
3371 80.0214 6298.00 6172.58 79.36
3372 80.0419 6234.00 6158.54 78.96
3373 80.0624 6160.00 6144.82 78.49
3374 80.0829 6267.00 6131.58 79.16
3375 80.1034 6269.00 6118.87 79.18
3376 80.1239 6156.00 6106.65 78.46
3377 80.1443 6063.00 6095.10 77.87
3378 80.1648 6057.00 6083.47 77.83
3379 80.1853 6162.00 6071.94 78.50
3380 80.2058 6094.00 6060.19 78.06
3381 80.2263 6134.00 6048.63 78.32
3382 80.2468 6025.00 6037.12 77.62
3383 80.2673 6049.00 6025.86 77.78
3384 80.2877 5968.00 6014.90 77.25
3385 80.3082 6143.00 6004.35 78.38
3386 80.3287 6119.00 5994.39 78.22
3387 80.3492 5994.00 5985.11 77.42
3388 80.3697 6029.00 5976.56 77.65
3389 80.3902 6018.00 5968.77 77.58
3390 80.4107 6066.00 5961.75 77.88
3391 80.4312 6065.00 5955.48 77.88
3392 80.4516 6099.00 5949.95 78.10
3393 80.4720 6017.00 5945.07 77.57
3394 80.4925 6020.00 5941.40 77.59
3395 80.5130 6086.00 5937.81 78.01
3396 80.5335 5963.00 5934.82 77.22
3397 80.5540 6057.00 5932.63 77.83
3398 80.5745 5948.00 5930.74 77.12
3399 80.5950 5992.00 5930.18 77.41
3400 80.6154 6080.00 5929.32 77.97
3401 80.6359 6135.00 5928.98 78.33
3402 80.6564 6194.00 5929.14 78.70
3403 80.6769 6039.00 5929.79 77.71
3404 80.6974 6055.00 5930.95 77.81
3405 80.7179 6085.00 5932.62 78.01
3406 80.7384 6007.00 5934.82 77.50
3407 80.7588 5956.00 5937.55 77.18
3408 80.7793 6006.00 5940.88 77.50
3409 80.7998 6006.00 5944.69 77.50
3410 80.8203 6082.00 5949.26 77.99
3411 80.8408 5966.00 5954.90 77.24
3412 80.8613 6073.00 5960.89 77.93
3413 80.8818 6123.00 5967.67 78.25
3414 80.9023 6065.00 5975.32 77.88
3415 80.9227 5903.00 5983.86 76.83
3416 80.9432 6065.00 5993.46 77.88
3417 80.9637 6168.00 6004.17 78.54
3418 80.9842 6137.00 6016.36 78.34
3419 81.0047 6192.00 6029.64 78.69
3420 81.0252 6140.00 6044.38 78.36
3421 81.0457 6337.00 6060.65 79.61
3422 81.0662 6151.00 6078.70 78.43
3423 81.0866 6132.00 6098.50 78.31
3424 81.1071 6150.00 6120.34 78.42
3425 81.1276 6249.00 6144.23 79.05
3426 81.1481 6224.00 6170.21 78.89
3427 81.1686 6269.00 6198.24 79.18
3428 81.1891 6342.00 6228.21 79.64
3429 81.2095 6369.00 6260.00 79.81
3430 81.2300 6266.00 6292.99 79.16
3431 81.2504 6332.00 6326.69 79.57
3432 81.2709 6345.00 6360.91 79.66
3433 81.2914 6398.00 6394.93 79.99
3434 81.3119 6543.00 6428.37 80.89
3435 81.3324 6513.00 6460.99 80.70
3436 81.3529 6464.00 6492.81 80.40
3437 81.3734 6418.00 6524.06 80.11
3438 81.3938 6505.00 6554.96 80.65
3439 81.4143 6369.00 6586.11 79.81
3440 81.4348 6445.00 6617.55 80.28
3441 81.4553 6551.00 6649.16 80.94
3442 81.4758 6681.00 6680.73 81.74
3443 81.4963 6631.00 6710.87 81.43
3444 81.5168 6555.00 6738.81 80.96
3445 81.5373 6640.00 6763.44 81.49
3446 81.5577 6586.00 6783.66 81.15
3447 81.5782 6575.00 6798.89 81.09
3448 81.5987 6633.00 6808.60 81.44
3449 81.6192 6750.00 6812.79 82.16
3450 81.6397 6642.00 6811.75 81.50
3451 81.6602 6672.00 6806.05 81.68
3452 81.6807 6588.00 6796.28 81.17
3453 81.7012 6529.00 6783.56 80.80
3454 81.7216 6468.00 6769.11 80.42
3455 81.7421 6418.00 6752.63 80.11
3456 81.7626 6510.00 6735.31 80.68
3457 81.7831 6502.00 6717.72 80.64
3458 81.8036 6370.00 6700.27 79.81
3459 81.8241 6517.00 6683.79 80.73
3460 81.8446 6578.00 6667.60 81.10
3461 81.8650 6491.00 6652.48 80.57
3462 81.8855 6497.00 6638.55 80.60
3463 81.9060 6453.00 6626.13 80.33
3464 81.9265 6308.00 6615.41 79.42
3465 81.9470 6519.00 6606.83 80.74
3466 81.9675 6528.00 6600.57 80.80
3467 81.9879 6479.00 6597.26 80.49
3468 82.0084 6444.00 6596.21 80.27
3469 82.0288 6577.00 6598.50 81.10
3470 82.0493 6468.00 6602.59 80.42
3471 82.0698 6437.00 6608.88 80.23
3472 82.0903 6567.00 6616.97 81.04
3473 82.1108 6522.00 6626.95 80.76
3474 82.1313 6398.00 6637.31 79.99
3475 82.1518 6579.00 6648.21 81.11
3476 82.1723 6491.00 6659.73 80.57
3477 82.1927 6530.00 6671.15 80.81
3478 82.2132 6570.00 6682.96 81.06
3479 82.2337 6837.00 6695.30 82.69
3480 82.2542 6668.00 6708.42 81.66
3481 82.2747 6706.00 6722.49 81.89
3482 82.2952 6749.00 6737.55 82.15
3483 82.3157 6674.00 6753.34 81.69
3484 82.3362 6756.00 6769.31 82.19
3485 82.3566 6590.00 6785.18 81.18
3486 82.3771 6660.00 6798.64 81.61
3487 82.3976 6880.00 6808.91 82.95
3488 82.4181 6719.00 6814.65 81.97
3489 82.4386 6755.00 6814.72 82.19
3490 82.4591 6732.00 6808.36 82.05
3491 82.4796 6812.00 6795.37 82.53
3492 82.5000 6645.00 6776.30 81.52
3493 82.5205 6708.00 6751.88 81.90
3494 82.5410 6682.00 6723.46 81.74
3495 82.5615 6837.00 6692.46 82.69
3496 82.5820 6649.00 6660.11 81.54
3497 82.6025 6684.00 6627.37 81.76
3498 82.6230 6729.00 6594.82 82.03
3499 82.6434 6638.00 6562.64 81.47
3500 82.6638 6514.00 6531.36 80.71
3501 82.6843 6422.00 6499.46 80.14
3502 82.7048 6492.00 6467.29 80.57
3503 82.7253 6544.00 6434.63 80.89
3504 82.7458 6458.00 6401.50 80.36
3505 82.7663 6387.00 6368.10 79.92
3506 82.7868 6419.00 6334.84 80.12
3507 82.8073 6307.00 6302.25 79.42
3508 82.8277 6384.00 6270.97 79.90
3509 82.8482 6264.00 6241.20 79.15
3510 82.8687 6306.00 6213.48 79.41
3511 82.8892 6186.00 6188.08 78.65
3512 82.9097 6175.00 6165.56 78.58
3513 82.9302 6277.00 6145.19 79.23
3514 82.9507 6194.00 6127.34 78.70
3515 82.9711 6066.00 6112.00 77.88
3516 82.9916 6084.00 6099.17 78.00
3517 83.0121 5919.00 6088.15 76.93
3518 83.0326 6077.00 6079.03 77.96
3519 83.0531 6222.00 6071.56 78.88
3520 83.0736 6166.00 6065.49 78.52
3521 83.0941 6008.00 6060.87 77.51
3522 83.1146 6224.00 6056.87 78.89
3523 83.1350 6117.00 6053.61 78.21
3524 83.1555 6042.00 6050.91 77.73
3525 83.1760 6015.00 6048.68 77.56
3526 83.1965 6108.00 6046.53 78.15
3527 83.2170 6173.00 6044.99 78.57
3528 83.2375 6154.00 6043.35 78.45
3529 83.2580 6098.00 6042.29 78.09
3530 83.2785 6129.00 6040.97 78.29
3531 83.2989 6219.00 6039.76 78.86
3532 83.3194 6102.00 6038.34 78.12
3533 83.3399 6074.00 6036.57 77.94
3534 83.3604 6048.00 6034.34 77.77
3535 83.3809 6053.00 6031.48 77.80
3536 83.4014 6112.00 6027.85 78.18
3537 83.4218 6050.00 6023.40 77.78
3538 83.4423 5979.00 6017.94 77.32
3539 83.4627 5987.00 6011.87 77.38
3540 83.4832 6203.00 6004.96 78.76
3541 83.5037 6028.00 5997.71 77.64
3542 83.5242 6127.00 5990.18 78.28
3543 83.5447 6089.00 5982.40 78.03
3544 83.5652 6003.00 5974.57 77.48
3545 83.5857 6022.00 5967.33 77.60
3546 83.6061 6054.00 5960.47 77.81
3547 83.6266 5936.00 5953.97 77.05
3548 83.6471 5901.00 5947.90 76.82
3549 83.6676 6043.00 5942.26 77.74
3550 83.6881 6053.00 5937.23 77.80
3551 83.7086 6146.00 5932.47 78.40
3552 83.7291 5998.00 5928.22 77.45
3553 83.7496 5980.00 5924.55 77.33
3554 83.7700 5876.00 5921.72 76.66
3555 83.7905 6053.00 5919.39 77.80
3556 83.8110 5917.00 5917.37 76.92
3557 83.8315 6113.00 5916.69 78.19
3558 83.8520 6091.00 5916.41 78.04
3559 83.8725 6113.00 5917.28 78.19
3560 83.8930 6091.00 5918.78 78.04
3561 83.9135 6101.00 5920.80 78.11
3562 83.9339 6166.00 5923.17 78.52
3563 83.9544 6185.00 5925.80 78.64
3564 83.9749 6057.00 5928.39 77.83
3565 83.9954 6249.00 5931.24 79.05
3566 84.0159 6056.00 5934.28 77.82
3567 84.0364 6070.00 5937.38 77.91
3568 84.0569 6281.00 5940.83 79.25
3569 84.0773 6113.00 5944.56 78.19
3570 84.0978 6135.00 5949.10 78.33
3571 84.1182 6069.00 5954.21 77.90
3572 84.1387 6305.00 5960.35 79.40
3573 84.1592 6072.00 5967.36 77.92
3574 84.1797 6204.00 5975.20 78.77
3575 84.2002 6290.00 5984.23 79.31
3576 84.2207 6059.00 5993.29 77.84
3577 84.2411 6174.00 6002.88 78.57
3578 84.2616 6185.00 6012.53 78.64
3579 84.2821 6147.00 6022.04 78.40
3580 84.3026 6094.00 6031.20 78.06
3581 84.3231 6197.00 6039.79 78.72
3582 84.3436 6186.00 6047.81 78.65
3583 84.3641 6236.00 6054.96 78.97
3584 84.3846 6351.00 6061.49 79.69
3585 84.4050 6155.00 6067.58 78.45
3586 84.4255 6174.00 6073.60 78.57
3587 84.4460 6244.00 6079.90 79.02
3588 84.4665 6263.00 6086.85 79.14
3589 84.4870 6250.00 6094.80 79.06
3590 84.5075 6407.00 6103.89 80.04
3591 84.5280 6297.00 6114.48 79.35
3592 84.5485 6229.00 6126.58 78.92
3593 84.5689 6256.00 6140.12 79.09
3594 84.5894 6186.00 6155.06 78.65
3595 84.6099 6168.00 6171.77 78.54
3596 84.6304 6313.00 6189.50 79.45
3597 84.6509 6400.00 6208.41 80.00
3598 84.6714 6488.00 6228.39 80.55
3599 84.6919 6433.00 6249.32 80.21
3600 84.7123 6213.00 6270.93 78.82
3601 84.7328 6358.00 6293.30 79.74
3602 84.7533 6390.00 6316.17 79.94
3603 84.7738 6320.00 6339.51 79.50
3604 84.7943 6218.00 6363.27 78.85
3605 84.8147 6411.00 6387.42 80.07
3606 84.8352 6416.00 6412.12 80.10
3607 84.8557 6384.00 6437.15 79.90
3608 84.8761 6546.00 6462.59 80.91
3609 84.8966 6527.00 6488.61 80.79
3610 84.9171 6722.00 6515.59 81.99
3611 84.9376 6526.00 6542.57 80.78
3612 84.9581 6506.00 6568.65 80.66
3613 84.9786 6512.00 6595.46 80.70
3614 84.9991 6653.00 6621.81 81.57
3615 85.0196 6716.00 6647.58 81.95
3616 85.0400 6591.00 6672.33 81.18
3617 85.0605 6657.00 6695.77 81.59
3618 85.0810 6691.00 6717.20 81.80
3619 85.1015 6833.00 6736.03 82.66
3620 85.1220 6750.00 6751.55 82.16
3621 85.1425 6719.00 6763.04 81.97
3622 85.1630 6711.00 6769.86 81.92
3623 85.1834 6801.00 6771.58 82.47
3624 85.2039 6935.00 6768.49 83.28
3625 85.2244 6831.00 6760.07 82.65
3626 85.2449 6846.00 6747.28 82.74
3627 85.2654 6780.00 6731.13 82.34
3628 85.2859 6786.00 6712.71 82.38
3629 85.3064 6754.00 6693.02 82.18
3630 85.3269 6756.00 6672.95 82.19
3631 85.3473 6617.00 6653.25 81.34
3632 85.3678 6741.00 6634.15 82.10
3633 85.3883 6675.00 6615.87 81.70
3634 85.4088 6593.00 6598.36 81.20
3635 85.4293 6635.00 6581.41 81.46
3636 85.4498 6719.00 6564.77 81.97
3637 85.4703 6591.00 6548.90 81.18
3638 85.4908 6395.00 6532.40 79.97
3639 85.5112 6504.00 6515.99 80.65
3640 85.5316 6547.00 6499.64 80.91
3641 85.5521 6568.00 6483.64 81.04
3642 85.5726 6445.00 6468.00 80.28
3643 85.5931 6339.00 6453.49 79.62
3644 85.6136 6298.00 6440.18 79.36
3645 85.6341 6362.00 6428.45 79.76
3646 85.6546 6286.00 6418.61 79.28
3647 85.6750 6375.00 6410.12 79.84
3648 85.6955 6294.00 6403.25 79.33
3649 85.7160 6350.00 6397.83 79.69
3650 85.7365 6447.00 6393.58 80.29
3651 85.7570 6371.00 6390.08 79.82
3652 85.7775 6370.00 6386.98 79.81
3653 85.7980 6355.00 6383.97 79.72
3654 85.8184 6363.00 6380.75 79.77
3655 85.8389 6218.00 6377.55 78.85
3656 85.8594 6200.00 6374.37 78.74
3657 85.8799 6328.00 6371.44 79.55
3658 85.9004 6203.00 6369.41 78.76
3659 85.9209 6421.00 6367.71 80.13
3660 85.9414 6390.00 6366.79 79.94
3661 85.9619 6433.00 6366.57 80.21
3662 85.9823 6606.00 6366.82 81.28
3663 86.0028 6602.00 6367.15 81.25
3664 86.0233 6529.00 6367.22 80.80
3665 86.0438 6660.00 6366.42 81.61
3666 86.0643 6585.00 6364.55 81.15
3667 86.0848 6567.00 6361.48 81.04
3668 86.1053 6644.00 6357.34 81.51
3669 86.1258 6564.00 6352.41 81.02
3670 86.1462 6619.00 6347.16 81.36
3671 86.1667 6588.00 6342.06 81.17
3672 86.1872 6416.00 6337.59 80.10
3673 86.2076 6649.00 6334.22 81.54
3674 86.2281 6432.00 6332.27 80.20
3675 86.2486 6455.00 6331.96 80.34
3676 86.2691 6581.00 6333.42 81.12
3677 86.2895 6520.00 6337.10 80.75
3678 86.3100 6520.00 6342.15 80.75
3679 86.3305 6644.00 6348.91 81.51
3680 86.3510 6679.00 6357.24 81.73
3681 86.3715 6665.00 6367.00 81.64
3682 86.3920 6646.00 6377.95 81.52
3683 86.4125 6637.00 6389.83 81.47
3684 86.4330 6552.00 6402.27 80.94
3685 86.4534 6596.00 6414.80 81.22
3686 86.4739 6561.00 6427.11 81.00
3687 86.4944 6681.00 6438.76 81.74
3688 86.5149 6533.00 6449.51 80.83
3689 86.5354 6653.00 6459.28 81.57
3690 86.5559 6681.00 6468.55 81.74
3691 86.5764 6717.00 6477.07 81.96
3692 86.5969 6685.00 6485.64 81.76
3693 86.6173 6563.00 6494.76 81.01
3694 86.6378 6649.00 6504.98 81.54
3695 86.6583 6628.00 6516.54 81.41
3696 86.6788 6614.00 6529.52 81.33
3697 86.6993 6683.00 6543.53 81.75
3698 86.7198 6609.00 6557.99 81.30
3699 86.7403 6749.00 6572.04 82.15
3700 86.7607 6719.00 6584.50 81.97
3701 86.7812 6930.00 6594.37 83.25
3702 86.8017 6869.00 6600.53 82.88
3703 86.8222 6948.00 6602.18 83.35
3704 86.8427 7092.00 6598.93 84.21
3705 86.8632 6870.00 6590.85 82.89
3706 86.8837 6937.00 6578.46 83.29
3707 86.9042 6789.00 6562.65 82.40
3708 86.9245 6829.00 6544.74 82.64
3709 86.9450 6617.00 6525.34 81.34
3710 86.9655 6610.00 6505.69 81.30
3711 86.9860 6627.00 6486.54 81.41
3712 87.0065 6646.00 6468.36 81.52
3713 87.0270 6554.00 6451.33 80.96
3714 87.0475 6382.00 6435.35 79.89
3715 87.0680 6652.00 6419.74 81.56
3716 87.0884 6702.00 6405.08 81.87
3717 87.1089 6504.00 6390.44 80.65
3718 87.1294 6651.00 6375.61 81.55
3719 87.1499 6724.00 6360.40 82.00
3720 87.1704 6540.00 6344.73 80.87
3721 87.1909 6580.00 6329.05 81.12
3722 87.2114 6472.00 6312.57 80.45
3723 87.2319 6413.00 6295.83 80.08
3724 87.2523 6430.00 6279.08 80.19
3725 87.2728 6356.00 6262.19 79.72
3726 87.2933 6252.00 6245.80 79.07
3727 87.3138 6279.00 6230.06 79.24
3728 87.3343 6348.00 6214.59 79.67
3729 87.3548 6215.00 6201.07 78.84
3730 87.3753 6205.00 6189.10 78.77
3731 87.3957 6337.00 6178.96 79.61
3732 87.4162 6221.00 6170.70 78.87
3733 87.4367 6534.00 6164.43 80.83
3734 87.4572 6331.00 6160.22 79.57
3735 87.4777 6157.00 6157.99 78.47
3736 87.4982 6369.00 6157.70 79.81
3737 87.5187 6200.00 6159.30 78.74
3738 87.5392 6334.00 6162.70 79.59
3739 87.5596 6279.00 6168.06 79.24
3740 87.5801 6392.00 6175.70 79.95
3741 87.6005 6359.00 6184.95 79.74
3742 87.6210 6470.00 6196.89 80.44
3743 87.6415 6507.00 6210.98 80.67
3744 87.6620 6325.00 6227.55 79.53
3745 87.6825 6516.00 6246.58 80.72
3746 87.7030 6430.00 6267.81 80.19
3747 87.7234 6470.00 6291.36 80.44
3748 87.7439 6328.00 6317.01 79.55
3749 87.7644 6427.00 6344.28 80.17
3750 87.7849 6635.00 6372.80 81.46
3751 87.8054 6735.00 6402.15 82.07
3752 87.8259 6606.00 6431.97 81.28
3753 87.8464 6598.00 6462.44 81.23
3754 87.8668 6651.00 6492.34 81.55
3755 87.8873 6708.00 6522.19 81.90
3756 87.9078 6572.00 6552.21 81.07
3757 87.9283 6619.00 6582.60 81.36
3758 87.9488 6623.00 6613.14 81.38
3759 87.9693 6738.00 6644.26 82.09
3760 87.9898 6727.00 6675.74 82.02
3761 88.0103 6829.00 6708.44 82.64
3762 88.0307 6911.00 6741.33 83.13
3763 88.0512 6763.00 6774.40 82.24
3764 88.0717 6894.00 6807.17 83.03
3765 88.0922 6847.00 6838.83 82.75
3766 88.1127 6733.00 6868.55 82.05
3767 88.1332 6877.00 6895.58 82.93
3768 88.1537 6892.00 6919.13 83.02
3769 88.1742 6916.00 6938.77 83.16
3770 88.1946 6684.00 6954.02 81.76
3771 88.2151 6690.00 6964.85 81.79
3772 88.2356 6658.00 6971.21 81.60
3773 88.2561 6743.00 6973.40 82.12
3774 88.2766 6761.00 6971.78 82.23
3775 88.2971 6767.00 6966.96 82.26
3776 88.3175 6729.00 6958.66 82.03
3777 88.3380 6834.00 6949.12 82.67
3778 88.3584 6926.00 6938.20 83.22
3779 88.3789 6802.00 6925.87 82.47
3780 88.3994 6864.00 6912.37 82.85
3781 88.4199 6777.00 6897.63 82.32
3782 88.4404 6749.00 6881.39 82.15
3783 88.4609 6830.00 6863.24 82.64
3784 88.4814 6888.00 6842.73 82.99
3785 88.5018 6631.00 6819.65 81.43
3786 88.5223 6524.00 6793.50 80.77
3787 88.5428 6839.00 6764.37 82.70
3788 88.5633 6721.00 6732.54 81.98
3789 88.5838 6562.00 6698.08 81.01
3790 88.6043 6539.00 6662.57 80.86
3791 88.6248 6370.00 6626.36 79.81
3792 88.6453 6593.00 6590.24 81.20
3793 88.6657 6439.00 6555.11 80.24
3794 88.6862 6418.00 6521.19 80.11
3795 88.7067 6365.00 6489.04 79.78
3796 88.7272 6484.00 6458.91 80.52
3797 88.7477 6399.00 6430.88 79.99
3798 88.7682 6454.00 6406.04 80.34
3799 88.7887 6438.00 6382.18 80.24
3800 88.8092 6253.00 6360.34 79.08
3801 88.8296 6354.00 6340.65 79.71
3802 88.8501 6462.00 6322.99 80.39
3803 88.8706 6391.00 6307.60 79.94
3804 88.8911 6376.00 6294.64 79.85
3805 88.9116 6284.00 6284.30 79.27
3806 88.9321 6365.00 6276.93 79.78
3807 88.9526 6258.00 6272.14 79.11
3808 88.9730 6270.00 6270.13 79.18
3809 88.9934 6260.00 6270.71 79.12
3810 89.0139 6166.00 6273.65 78.52
3811 89.0344 6217.00 6278.43 78.85
3812 89.0549 6227.00 6284.76 78.91
3813 89.0754 6225.00 6291.87 78.90
3814 89.0959 6274.00 6299.15 79.21
3815 89.1164 6312.00 6305.98 79.45
3816 89.1368 6229.00 6311.77 78.92
3817 89.1573 6272.00 6316.21 79.20
3818 89.1778 6321.00 6319.03 79.50
3819 89.1983 6262.00 6320.11 79.13
3820 89.2188 6242.00 6319.71 79.01
3821 89.2393 6260.00 6317.94 79.12
3822 89.2598 6219.00 6315.05 78.86
3823 89.2803 6198.00 6311.25 78.73
3824 89.3007 6279.00 6306.66 79.24
3825 89.3212 6173.00 6301.37 78.57
3826 89.3417 6203.00 6295.32 78.76
3827 89.3622 6252.00 6288.23 79.07
3828 89.3827 6188.00 6280.23 78.66
3829 89.4032 6188.00 6271.01 78.66
3830 89.4237 6269.00 6260.40 79.18
3831 89.4442 6179.00 6248.29 78.61
3832 89.4646 6166.00 6234.67 78.52
3833 89.4851 6229.00 6219.47 78.92
3834 89.5056 6189.00 6202.80 78.67
3835 89.5261 6183.00 6184.80 78.63
3836 89.5466 6130.00 6165.67 78.29
3837 89.5671 6113.00 6145.73 78.19
3838 89.5876 5942.00 6125.15 77.08
3839 89.6080 6112.00 6104.40 78.18
3840 89.6284 6032.00 6083.54 77.67
3841 89.6489 6052.00 6062.91 77.79
3842 89.6694 5992.00 6042.88 77.41
3843 89.6899 5912.00 6023.58 76.89
3844 89.7104 5914.00 6005.19 76.90
3845 89.7309 5962.00 5987.81 77.21
3846 89.7514 5953.00 5971.51 77.16
3847 89.7718 5750.00 5956.39 75.83
3848 89.7923 5974.00 5942.31 77.29
3849 89.8128 5818.00 5929.35 76.28
3850 89.8333 5623.00 5917.53 74.99
3851 89.8538 5865.00 5906.80 76.58
3852 89.8743 5829.00 5897.20 76.35
3853 89.8948 5769.00 5888.72 75.95
3854 89.9153 5873.00 5881.36 76.64
3855 89.9357 6081.00 5875.12 77.98
3856 89.9562 5871.00 5869.86 76.62
3857 89.9767 5915.00 5865.41 76.91
3858 89.9972 5857.00 5861.85 76.53
3859 90.0177 5867.00 5858.93 76.60
3860 90.0382 5829.00 5856.49 76.35
3861 90.0587 5966.00 5854.40 77.24
3862 90.0791 5972.00 5852.58 77.28
3863 90.0996 5906.00 5850.98 76.85
3864 90.1201 5964.00 5849.64 77.23
3865 90.1406 5835.00 5848.65 76.39
3866 90.1611 5925.00 5848.12 76.97
3867 90.1816 5802.00 5848.20 76.17
3868 90.2021 5821.00 5849.03 76.30
3869 90.2226 5780.00 5850.71 76.03
3870 90.2430 5819.00 5853.27 76.28
3871 90.2635 5953.00 5856.70 77.16
3872 90.2840 6046.00 5861.04 77.76
3873 90.3045 5949.00 5866.17 77.13
3874 90.3250 5857.00 5871.96 76.53
3875 90.3454 5892.00 5878.32 76.76
3876 90.3659 5856.00 5885.14 76.52
3877 90.3864 5792.00 5892.12 76.11
3878 90.4068 5885.00 5899.62 76.71
3879 90.4273 6047.00 5907.46 77.76
3880 90.4478 5853.00 5915.53 76.50
3881 90.4683 5882.00 5923.76 76.69
3882 90.4888 5902.00 5931.98 76.82
3883 90.5093 6095.00 5940.00 78.07
3884 90.5298 6069.00 5947.53 77.90
3885 90.5503 6028.00 5954.25 77.64
3886 90.5707 5981.00 5959.84 77.34
3887 90.5912 6036.00 5964.07 77.69
3888 90.6117 6009.00 5966.76 77.52
3889 90.6322 5885.00 5967.87 76.71
3890 90.6527 6014.00 5967.40 77.55
3891 90.6732 5987.00 5965.79 77.38
3892 90.6937 6075.00 5963.27 77.94
3893 90.7141 5961.00 5960.23 77.21
3894 90.7346 5961.00 5957.19 77.21
3895 90.7551 5951.00 5954.18 77.14
3896 90.7756 5915.00 5951.80 76.91
3897 90.7961 5863.00 5949.85 76.57
3898 90.8166 5898.00 5948.59 76.80
3899 90.8371 5843.00 5947.74 76.44
3900 90.8576 5882.00 5947.73 76.69
3901 90.8780 5973.00 5948.22 77.29
3902 90.8985 5952.00 5949.11 77.15
3903 90.9190 5988.00 5950.33 77.38
3904 90.9395 5974.00 5952.15 77.29
3905 90.9600 6003.00 5954.00 77.48
3906 90.9805 6038.00 5955.99 77.70
3907 91.0009 5832.00 5958.76 76.37
3908 91.0214 5907.00 5962.18 76.86
3909 91.0418 5887.00 5966.81 76.73
3910 91.0623 5791.00 5972.34 76.10
3911 91.0828 5836.00 5978.85 76.39
3912 91.1033 6064.00 5986.64 77.87
3913 91.1238 5950.00 5995.79 77.14
3914 91.1443 5906.00 6006.77 76.85
3915 91.1648 6139.00 6019.25 78.35
3916 91.1852 5935.00 6033.04 77.04
3917 91.2057 6107.00 6048.02 78.15
3918 91.2262 5939.00 6063.84 77.06
3919 91.2467 5765.00 6079.99 75.93
3920 91.2672 6080.00 6095.58 77.97
3921 91.2877 5993.00 6110.79 77.41
3922 91.3082 5895.00 6124.00 76.78
3923 91.3287 5865.00 6136.17 76.58
3924 91.3491 6008.00 6146.16 77.51
3925 91.3696 6236.00 6154.07 78.97
3926 91.3901 6159.00 6159.16 78.48
3927 91.4106 6126.00 6161.66 78.27
3928 91.4311 6064.00 6162.05 77.87
3929 91.4516 6030.00 6160.60 77.65
3930 91.4721 6175.00 6157.80 78.58
3931 91.4926 5998.00 6154.18 77.45
3932 91.5130 5982.00 6150.28 77.34
3933 91.5335 6006.00 6146.53 77.50
3934 91.5540 6116.00 6143.22 78.20
3935 91.5745 5917.00 6140.90 76.92
3936 91.5950 5922.00 6139.06 76.95
3937 91.6155 6036.00 6138.57 77.69
3938 91.6360 5870.00 6139.40 76.62
3939 91.6564 6035.00 6141.03 77.69
3940 91.6768 6002.00 6143.75 77.47
3941 91.6973 6025.00 6147.62 77.62
3942 91.7178 6050.00 6152.50 77.78
3943 91.7383 6084.00 6158.98 78.00
3944 91.7588 6056.00 6166.98 77.82
3945 91.7793 6067.00 6176.61 77.89
3946 91.7998 5953.00 6187.92 77.16
3947 91.8202 6198.00 6200.79 78.73
3948 91.8407 6188.00 6215.14 78.66
3949 91.8612 6087.00 6230.53 78.02
3950 91.8817 6123.00 6246.47 78.25
3951 91.9022 6060.00 6262.32 77.85
3952 91.9227 6113.00 6277.42 78.19
3953 91.9432 6188.00 6291.02 78.66
3954 91.9637 6219.00 6302.76 78.86
3955 91.9841 6216.00 6312.17 78.84
3956 92.0046 6314.00 6319.09 79.46
3957 92.0251 6130.00 6323.81 78.29
3958 92.0456 6220.00 6326.51 78.87
3959 92.0661 5995.00 6327.60 77.43
3960 92.0866 6075.00 6327.52 77.94
3961 92.1071 6066.00 6326.66 77.88
3962 92.1276 6068.00 6325.29 77.90
3963 92.1480 6281.00 6323.56 79.25
3964 92.1685 6162.00 6321.53 78.50
3965 92.1890 6218.00 6319.03 78.85
3966 92.2095 6092.00 6316.00 78.05
3967 92.2300 6056.00 6312.31 77.82
3968 92.2505 6143.00 6307.38 78.38
3969 92.2710 6096.00 6302.15 78.08
3970 92.2914 6131.00 6296.16 78.30
3971 92.3119 6064.00 6289.42 77.87
3972 92.3323 5925.00 6282.04 76.97
3973 92.3528 6133.00 6274.06 78.31
3974 92.3733 6246.00 6265.48 79.03
3975 92.3938 6095.00 6256.23 78.07
3976 92.4143 6108.00 6246.38 78.15
3977 92.4348 6038.00 6235.34 77.70
3978 92.4552 6074.00 6223.19 77.94
3979 92.4757 6205.00 6209.68 78.77
3980 92.4962 6045.00 6194.84 77.75
3981 92.5167 6158.00 6178.72 78.47
3982 92.5372 6041.00 6161.26 77.72
3983 92.5577 6057.00 6143.04 77.83
3984 92.5782 5925.00 6124.12 76.97
3985 92.5987 6021.00 6104.79 77.60
3986 92.6191 5953.00 6085.39 77.16
3987 92.6396 5909.00 6065.98 76.87
3988 92.6601 6028.00 6046.86 77.64
3989 92.6806 5946.00 6028.13 77.11
3990 92.7011 5925.00 6010.20 76.97
3991 92.7216 6017.00 5992.67 77.57
3992 92.7421 5840.00 5975.80 76.42
3993 92.7625 5918.00 5959.24 76.93
3994 92.7830 5793.00 5943.75 76.11
3995 92.8035 5933.00 5929.01 77.03
3996 92.8240 5873.00 5915.06 76.64
3997 92.8445 5901.00 5902.28 76.82
3998 92.8650 5891.00 5890.20 76.75
3999 92.8855 5806.00 5879.20 76.20
4000 92.9060 5823.00 5869.39 76.31
4001 92.9264 5796.00 5860.92 76.13
4002 92.9469 5839.00 5853.81 76.41
4003 92.9674 5827.00 5848.20 76.33
4004 92.9878 5891.00 5844.13 76.75
4005 93.0083 5919.00 5841.65 76.93
4006 93.0288 5963.00 5840.69 77.22
4007 93.0493 5793.00 5840.89 76.11
4008 93.0698 5827.00 5842.55 76.33
4009 93.0902 5828.00 5845.13 76.34
4010 93.1107 5920.00 5847.51 76.94
4011 93.1312 5980.00 5850.87 77.33
4012 93.1517 5943.00 5854.14 77.09
4013 93.1722 5826.00 5856.62 76.33
4014 93.1927 5891.00 5858.20 76.75
4015 93.2132 5870.00 5858.42 76.62
4016 93.2337 5844.00 5857.25 76.45
4017 93.2541 5765.00 5854.67 75.93
4018 93.2746 5830.00 5850.76 76.35
4019 93.2951 5825.00 5845.70 76.32
4020 93.3156 5726.00 5839.72 75.67
4021 93.3361 5960.00 5833.07 77.20
4022 93.3566 5711.00 5825.97 75.57
4023 93.3771 5779.00 5818.63 76.02
4024 93.3975 5776.00 5810.82 76.00
4025 93.4180 5721.00 5803.37 75.64
4026 93.4385 5827.00 5795.94 76.33
4027 93.4590 5795.00 5788.53 76.12
4028 93.4795 5846.00 5781.14 76.46
4029 93.5000 5812.00 5773.79 76.24
4030 93.5205 5913.00 5766.37 76.90
4031 93.5410 5830.00 5758.96 76.35
4032 93.5614 5758.00 5751.42 75.88
4033 93.5819 5670.00 5744.28 75.30
4034 93.6024 5780.00 5737.48 76.03
4035 93.6228 5810.00 5731.17 76.22
4036 93.6433 5718.00 5725.51 75.62
4037 93.6638 5659.00 5720.68 75.23
4038 93.6843 5789.00 5716.81 76.09
4039 93.7048 5632.00 5714.02 75.05
4040 93.7252 5629.00 5712.45 75.03
4041 93.7457 5769.00 5712.12 75.95
4042 93.7662 5715.00 5713.10 75.60
4043 93.7867 5643.00 5715.36 75.12
4044 93.8072 5510.00 5718.87 74.23
4045 93.8277 5873.00 5723.57 76.64
4046 93.8482 5766.00 5729.36 75.93
4047 93.8686 5637.00 5735.99 75.08
4048 93.8891 5765.00 5743.69 75.93
4049 93.9096 5801.00 5752.25 76.16
4050 93.9301 5851.00 5761.75 76.49
4051 93.9506 5864.00 5771.99 76.58
4052 93.9711 5867.00 5783.10 76.60
4053 93.9916 5844.00 5795.12 76.45
4054 94.0121 5787.00 5808.09 76.07
4055 94.0325 5920.00 5821.91 76.94
4056 94.0530 5834.00 5836.65 76.38
4057 94.0735 5880.00 5852.12 76.68
4058 94.0940 5849.00 5868.07 76.48
4059 94.1145 5863.00 5884.25 76.57
4060 94.1350 5976.00 5900.43 77.30
4061 94.1555 5885.00 5916.09 76.71
4062 94.1760 5984.00 5931.03 77.36
4063 94.1964 6010.00 5944.61 77.52
4064 94.2169 6043.00 5957.42 77.74
4065 94.2374 6188.00 5968.93 78.66
4066 94.2579 6054.00 5979.35 77.81
4067 94.2784 6031.00 5988.19 77.66
4068 94.2989 5949.00 5995.42 77.13
4069 94.3193 5803.00 6001.68 76.18
4070 94.3398 5983.00 6006.74 77.35
4071 94.3602 5960.00 6010.68 77.20
4072 94.3807 5944.00 6013.83 77.10
4073 94.4012 5919.00 6015.96 76.93
4074 94.4217 5983.00 6017.69 77.35
4075 94.4422 5905.00 6018.67 76.84
4076 94.4627 5977.00 6019.36 77.31
4077 94.4832 5871.00 6019.80 76.62
4078 94.5036 5960.00 6020.10 77.20
4079 94.5241 6098.00 6021.05 78.09
4080 94.5446 5937.00 6021.95 77.05
4081 94.5651 5956.00 6022.78 77.18
4082 94.5856 5831.00 6023.74 76.36
4083 94.6061 6020.00 6024.18 77.59
4084 94.6266 6102.00 6024.26 78.12
4085 94.6471 6041.00 6022.81 77.72
4086 94.6675 6019.00 6020.80 77.58
4087 94.6880 5886.00 6017.40 76.72
4088 94.7085 5943.00 6012.49 77.09
4089 94.7290 5836.00 6006.07 76.39
4090 94.7495 5832.00 5998.03 76.37
4091 94.7700 5811.00 5989.06 76.23
4092 94.7905 5819.00 5979.25 76.28
4093 94.8110 5808.00 5968.79 76.21
4094 94.8314 5823.00 5958.51 76.31
4095 94.8519 5852.00 5948.45 76.50
4096 94.8724 5754.00 5938.90 75.86
4097 94.8929 5812.00 5930.18 76.24
4098 94.9134 5683.00 5922.31 75.39
4099 94.9339 5826.00 5915.58 76.33
4100 94.9544 5980.00 5908.49 77.33
4101 94.9747 5892.00 5902.90 76.76
4102 94.9952 5762.00 5897.60 75.91
4103 95.0157 5827.00 5892.22 76.33
4104 95.0362 5783.00 5886.54 76.05
4105 95.0567 5871.00 5880.61 76.62
4106 95.0772 5845.00 5874.16 76.45
4107 95.0977 5831.00 5867.42 76.36
4108 95.1182 5671.00 5859.86 75.31
4109 95.1386 5835.00 5851.83 76.39
4110 95.1591 5716.00 5843.45 75.60
4111 95.1796 5662.00 5834.87 75.25
4112 95.2001 5758.00 5826.26 75.88
4113 95.2206 5757.00 5817.78 75.87
4114 95.2411 5752.00 5809.59 75.84
4115 95.2616 5821.00 5801.61 76.30
4116 95.2821 5848.00 5794.48 76.47
4117 95.3025 5803.00 5788.55 76.18
4118 95.3230 5883.00 5783.27 76.70
4119 95.3435 5632.00 5778.90 75.05
4120 95.3640 5694.00 5775.53 75.46
4121 95.3845 5729.00 5773.35 75.69
4122 95.4050 5710.00 5772.45 75.56
4123 95.4255 5754.00 5772.87 75.86
4124 95.4460 5820.00 5774.63 76.29
4125 95.4664 5795.00 5777.72 76.12
4126 95.4869 5820.00 5782.12 76.29
4127 95.5074 5726.00 5787.73 75.67
4128 95.5279 5671.00 5794.41 75.31
4129 95.5484 5810.00 5802.01 76.22
4130 95.5688 5817.00 5810.16 76.27
4131 95.5893 5804.00 5818.63 76.18
4132 95.6097 5729.00 5827.02 75.69
4133 95.6302 5854.00 5834.61 76.51
4134 95.6507 5857.00 5841.88 76.53
4135 95.6712 5737.00 5848.09 75.74
4136 95.6917 5854.00 5852.96 76.51
4137 95.7122 5597.00 5856.15 74.81
4138 95.7327 5899.00 5857.91 76.80
4139 95.7532 5643.00 5858.07 75.12
4140 95.7736 5774.00 5856.70 75.99
4141 95.7941 5721.00 5853.87 75.64
4142 95.8146 5722.00 5849.64 75.64
4143 95.8351 5631.00 5844.09 75.04
4144 95.8556 5601.00 5837.25 74.84
4145 95.8761 5732.00 5828.91 75.71
4146 95.8966 5710.00 5819.47 75.56
4147 95.9171 5567.00 5808.70 74.61
4148 95.9375 5628.00 5796.67 75.02
4149 95.9580 5564.00 5783.04 74.59
4150 95.9785 5608.00 5768.33 74.89
4151 95.9990 5683.00 5752.40 75.39
4152 96.0195 5608.00 5735.33 74.89
4153 96.0400 5690.00 5717.34 75.43
4154 96.0605 5629.00 5698.20 75.03
4155 96.0809 5566.00 5678.70 74.61
4156 96.1014 5633.00 5658.58 75.05
4157 96.1219 5651.00 5638.11 75.17
4158 96.1424 5607.00 5617.43 74.88
4159 96.1629 5484.00 5596.66 74.05
4160 96.1834 5546.00 5575.80 74.47
4161 96.2038 5493.00 5555.15 74.11
4162 96.2243 5595.00 5534.70 74.80
4163 96.2447 5415.00 5514.60 73.59
4164 96.2652 5378.00 5494.76 73.33
4165 96.2857 5558.00 5475.35 74.55
4166 96.3062 5517.00 5456.46 74.28
4167 96.3267 5346.00 5438.16 73.12
4168 96.3472 5461.00 5420.51 73.90
4169 96.3677 5609.00 5403.79 74.89
4170 96.3882 5592.00 5387.61 74.78
4171 96.4086 5372.00 5372.30 73.29
4172 96.4291 5387.00 5357.73 73.40
4173 96.4496 5411.00 5344.00 73.56
4174 96.4701 5329.00 5331.10 73.00
4175 96.4906 5462.00 5319.03 73.91
4176 96.5111 5339.00 5307.98 73.07
4177 96.5316 5361.00 5297.53 73.22
4178 96.5521 5375.00 5287.85 73.31
4179 96.5725 5308.00 5278.96 72.86
4180 96.5930 5326.00 5270.73 72.98
4181 96.6135 5379.00 5263.19 73.34
4182 96.6340 5321.00 5256.29 72.95
4183 96.6545 5312.00 5250.00 72.88
4184 96.6750 5273.00 5244.11 72.62
4185 96.6955 5293.00 5238.92 72.75
4186 96.7159 5349.00 5234.23 73.14
4187 96.7364 5267.00 5229.95 72.57
4188 96.7569 5189.00 5226.06 72.03
4189 96.7774 5275.00 5222.50 72.63
4190 96.7979 5378.00 5219.20 73.33
4191 96.8184 5326.00 5216.11 72.98
4192 96.8389 5368.00 5213.23 73.27
4193 96.8594 5452.00 5210.39 73.84
4194 96.8797 5165.00 5207.60 71.87
4195 96.9002 5252.00 5204.82 72.47
4196 96.9207 5367.00 5202.05 73.26
4197 96.9412 5268.00 5199.25 72.58
4198 96.9617 5357.00 5196.45 73.19
4199 96.9822 5258.00 5193.66 72.51
4200 97.0027 5254.00 5190.76 72.48
4201 97.0232 5306.00 5188.12 72.84
4202 97.0436 5371.00 5185.59 73.29
4203 97.0641 5301.00 5183.18 72.81
4204 97.0846 5330.00 5180.94 73.01
4205 97.1051 5285.00 5178.86 72.70
4206 97.1256 5268.00 5176.94 72.58
4207 97.1461 5122.00 5175.21 71.57
4208 97.1666 5209.00 5173.62 72.17
4209 97.1870 5274.00 5172.48 72.62
4210 97.2075 5325.00 5171.12 72.97
4211 97.2280 5277.00 5169.86 72.64
4212 97.2485 5291.00 5168.84 72.74
4213 97.2690 5141.00 5167.86 71.70
4214 97.2895 5310.00 5167.45 72.87
4215 97.3100 5217.00 5166.90 72.23
4216 97.3305 5339.00 5166.60 73.07
4217 97.3509 5260.00 5166.55 72.53
4218 97.3714 5269.00 5166.77 72.59
4219 97.3919 5288.00 5167.29 72.72
4220 97.4124 5229.00 5168.14 72.31
4221 97.4329 5242.00 5169.35 72.40
4222 97.4534 5299.00 5171.09 72.79
4223 97.4739 5249.00 5173.45 72.45
4224 97.4944 5364.00 5175.90 73.24
4225 97.5147 5356.00 5179.11 73.18
4226 97.5352 5242.00 5182.48 72.40
4227 97.5557 5267.00 5186.35 72.57
4228 97.5762 5325.00 5190.81 72.97
4229 97.5967 5333.00 5195.72 73.03
4230 97.6172 5327.00 5201.36 72.99
4231 97.6377 5282.00 5207.82 72.68
4232 97.6581 5221.00 5214.71 72.26
4233 97.6786 5166.00 5222.32 71.87
4234 97.6991 5215.00 5230.62 72.21
4235 97.7196 5401.00 5239.51 73.49
4236 97.7401 5343.00 5249.26 73.10
4237 97.7606 5358.00 5259.73 73.20
4238 97.7811 5255.00 5270.91 72.49
4239 97.8016 5357.00 5282.96 73.19
4240 97.8220 5393.00 5295.42 73.44
4241 97.8425 5447.00 5308.54 73.80
4242 97.8630 5422.00 5322.22 73.63
4243 97.8835 5360.00 5336.39 73.21
4244 97.9040 5404.00 5351.21 73.51
4245 97.9245 5320.00 5366.24 72.94
4246 97.9450 5487.00 5381.65 74.07
4247 97.9655 5383.00 5397.51 73.37
4248 97.9859 5416.00 5413.59 73.59
4249 98.0064 5482.00 5430.08 74.04
4250 98.0269 5419.00 5447.01 73.61
4251 98.0474 5395.00 5464.47 73.45
4252 98.0679 5347.00 5482.09 73.12
4253 98.0884 5521.00 5499.93 74.30
4254 98.1089 5432.00 5517.84 73.70
4255 98.1293 5524.00 5535.12 74.32
4256 98.1497 5510.00 5552.83 74.23
4257 98.1702 5515.00 5569.63 74.26
4258 98.1907 5471.00 5585.60 73.97
4259 98.2112 5501.00 5600.17 74.17
4260 98.2317 5464.00 5613.19 73.92
4261 98.2522 5438.00 5624.45 73.74
4262 98.2727 5503.00 5633.83 74.18
4263 98.2931 5480.00 5641.24 74.03
4264 98.3136 5579.00 5646.83 74.69
4265 98.3341 5515.00 5650.61 74.26
4266 98.3546 5582.00 5652.98 74.71
4267 98.3751 5587.00 5654.07 74.75
4268 98.3956 5471.00 5654.13 73.97
4269 98.4161 5537.00 5653.35 74.41
4270 98.4366 5557.00 5651.88 74.55
4271 98.4570 5626.00 5649.72 75.01
4272 98.4775 5519.00 5647.09 74.29
4273 98.4980 5412.00 5643.90 73.57
4274 98.5185 5413.00 5640.13 73.57
4275 98.5390 5541.00 5635.77 74.44
4276 98.5595 5429.00 5630.80 73.68
4277 98.5800 5439.00 5625.25 73.75
4278 98.6005 5581.00 5619.16 74.71
4279 98.6209 5403.00 5612.66 73.51
4280 98.6414 5631.00 5605.80 75.04
4281 98.6619 5491.00 5598.71 74.10
4282 98.6824 5532.00 5591.51 74.38
4283 98.7029 5422.00 5584.31 73.63
4284 98.7234 5415.00 5577.14 73.59
4285 98.7439 5323.00 5570.01 72.96
4286 98.7642 5407.00 5562.90 73.53
4287 98.7847 5538.00 5554.98 74.42
4288 98.8052 5409.00 5547.57 73.55
4289 98.8257 5493.00 5539.87 74.11
4290 98.8462 5472.00 5531.81 73.97
4291 98.8667 5403.00 5523.35 73.51
4292 98.8872 5282.00 5514.52 72.68
4293 98.9077 5395.00 5505.43 73.45
4294 98.9281 5491.00 5496.27 74.10
4295 98.9486 5376.00 5487.13 73.32
4296 98.9691 5337.00 5478.28 73.05
4297 98.9896 5384.00 5469.90 73.38
4298 99.0101 5425.00 5462.08 73.65
4299 99.0306 5528.00 5455.14 74.35
4300 99.0511 5338.00 5449.05 73.06
4301 99.0716 5462.00 5443.81 73.91
4302 99.0920 5453.00 5439.37 73.84
4303 99.1125 5404.00 5435.21 73.51
4304 99.1330 5444.00 5431.93 73.78
4305 99.1535 5442.00 5428.94 73.77
4306 99.1740 5375.00 5426.01 73.31
4307 99.1945 5528.00 5422.90 74.35
4308 99.2150 5480.00 5419.41 74.03
4309 99.2355 5468.00 5415.37 73.95
4310 99.2559 5453.00 5410.68 73.84
4311 99.2764 5652.00 5405.26 75.18
4312 99.2969 5577.00 5399.14 74.68
4313 99.3174 5502.00 5392.01 74.18
4314 99.3379 5515.00 5384.91 74.26
4315 99.3584 5490.00 5377.32 74.09
4316 99.3788 5434.00 5369.54 73.72
4317 99.3992 5392.00 5361.77 73.43
4318 99.4197 5430.00 5354.04 73.69
4319 99.4402 5440.00 5346.49 73.76
4320 99.4607 5352.00 5338.96 73.16
4321 99.4812 5210.00 5331.85 72.18
4322 99.5017 5421.00 5324.92 73.63
4323 99.5222 5529.00 5318.23 74.36
4324 99.5427 5424.00 5311.51 73.65
4325 99.5631 5347.00 5304.85 73.12
4326 99.5836 5301.00 5298.15 72.81
4327 99.6041 5390.00 5291.42 73.42
4328 99.6246 5374.00 5285.09 73.31
4329 99.6451 5310.00 5278.58 72.87
4330 99.6656 5299.00 5272.08 72.79
4331 99.6861 5309.00 5265.83 72.86
4332 99.7066 5254.00 5259.95 72.48
4333 99.7270 5361.00 5254.57 73.22
4334 99.7475 5381.00 5249.74 73.36
4335 99.7680 5271.00 5245.57 72.60
4336 99.7885 5319.00 5242.05 72.93
4337 99.8090 5363.00 5239.42 73.23
4338 99.8295 5257.00 5237.62 72.51
4339 99.8500 5258.00 5236.68 72.51
4340 99.8704 5105.00 5236.60 71.45
4341 99.8909 5256.00 5237.65 72.50
4342 99.9114 5212.00 5239.29 72.19
4343 99.9319 5374.00 5241.75 73.31
4344 99.9524 5260.00 5245.00 72.53
4345 99.9729 5305.00 5248.98 72.84
4346 99.9934 5231.00 5253.59 72.33
4347 100.0138 5330.00 5258.76 73.01
4348 100.0342 5108.00 5264.19 71.47
4349 100.0547 5354.00 5269.81 73.17
4350 100.0752 5342.00 5275.38 73.09
4351 100.0957 5224.00 5280.68 72.28
4352 100.1162 5303.00 5285.51 72.82
4353 100.1367 5302.00 5289.27 72.81
4354 100.1572 5133.00 5292.63 71.64
4355 100.1777 5179.00 5295.09 71.97
4356 100.1981 5195.00 5296.63 72.08
4357 100.2186 5252.00 5297.33 72.47
4358 100.2391 5142.00 5297.35 71.71
4359 100.2596 5299.00 5296.69 72.79
4360 100.2801 5394.00 5295.63 73.44
4361 100.3006 5282.00 5294.27 72.68
4362 100.3211 5350.00 5293.00 73.14
4363 100.3416 5317.00 5291.88 72.92
4364 100.3620 5294.00 5291.03 72.76
4365 100.3825 5302.00 5290.54 72.81
4366 100.4030 5287.00 5290.41 72.71
4367 100.4235 5280.00 5290.63 72.66
4368 100.4440 5326.00 5291.11 72.98
4369 100.4645 5363.00 5291.77 73.23
4370 100.4850 5247.00 5292.23 72.44
4371 100.5054 5172.00 5292.76 71.92
4372 100.5259 5193.00 5293.01 72.06
4373 100.5464 5156.00 5292.80 71.81
4374 100.5669 5360.00 5292.04 73.21
4375 100.5874 5304.00 5290.51 72.83
4376 100.6079 5378.00 5288.16 73.33
4377 100.6283 5284.00 5284.87 72.69
4378 100.6488 5399.00 5280.72 73.48
4379 100.6692 5201.00 5275.71 72.12
4380 100.6897 5257.00 5269.89 72.51
4381 100.7102 5195.00 5263.38 72.08
4382 100.7307 5205.00 5256.35 72.15
4383 100.7512 5289.00 5248.99 72.73
4384 100.7717 5281.00 5241.48 72.67
4385 100.7922 5361.00 5234.01 73.22
4386 100.8127 5300.00 5226.74 72.80
4387 100.8331 5160.00 5219.82 71.83
4388 100.8536 5148.00 5213.24 71.75
4389 100.8741 5322.00 5207.07 72.95
4390 100.8946 5286.00 5201.30 72.70
4391 100.9151 5225.00 5196.11 72.28
4392 100.9356 5298.00 5190.75 72.79
4393 100.9561 5252.00 5186.03 72.47
4394 100.9765 5323.00 5180.97 72.96
4395 100.9970 5184.00 5175.77 72.00
4396 101.0175 5193.00 5170.33 72.06
4397 101.0380 5127.00 5164.62 71.60
4398 101.0585 5202.00 5158.60 72.12
4399 101.0790 5227.00 5152.28 72.30
4400 101.0995 5255.00 5145.70 72.49
4401 101.1200 5170.00 5138.96 71.90
4402 101.1404 5138.00 5132.39 71.68
4403 101.1609 5075.00 5125.62 71.24
4404 101.1814 5214.00 5119.00 72.21
4405 101.2019 5043.00 5112.81 71.01
4406 101.2224 5291.00 5106.47 72.74
4407 101.2429 5158.00 5100.91 71.82
4408 101.2634 5052.00 5095.76 71.08
4409 101.2838 5041.00 5091.20 71.00
4410 101.3042 5000.00 5087.31 70.71
4411 101.3247 5134.00 5083.86 71.65
4412 101.3452 5118.00 5080.96 71.54
4413 101.3657 5236.00 5078.62 72.36
4414 101.3862 5161.00 5076.82 71.84
4415 101.4067 5228.00 5075.35 72.30
4416 101.4272 5232.00 5074.64 72.33
4417 101.4477 5190.00 5074.32 72.04
4418 101.4681 5115.00 5074.81 71.52
4419 101.4886 5062.00 5075.80 71.15
4420 101.5091 5187.00 5077.40 72.02
4421 101.5296 5213.00 5079.75 72.20
4422 101.5501 5159.00 5082.65 71.83
4423 101.5706 5213.00 5086.08 72.20
4424 101.5911 5168.00 5090.39 71.89
4425 101.6115 5110.00 5095.39 71.48
4426 101.6320 5240.00 5101.14 72.39
4427 101.6525 5146.00 5107.59 71.74
4428 101.6730 5181.00 5114.93 71.98
4429 101.6935 5080.00 5122.77 71.27
4430 101.7140 5198.00 5131.23 72.10
4431 101.7345 5292.00 5140.30 72.75
4432 101.7550 5278.00 5149.70 72.65
4433 101.7754 5170.00 5159.82 71.90
4434 101.7959 5284.00 5170.40 72.69
4435 101.8164 5214.00 5181.53 72.21
4436 101.8369 5316.00 5192.78 72.91
4437 101.8574 5181.00 5204.82 71.98
4438 101.8779 5260.00 5217.28 72.53
4439 101.8983 5339.00 5230.16 73.07
4440 101.9188 5202.00 5243.41 72.12
4441 101.9392 5245.00 5256.89 72.42
4442 101.9597 5207.00 5270.65 72.16
4443 101.9802 5176.00 5284.57 71.94
4444 102.0007 5209.00 5298.66 72.17
4445 102.0212 5223.00 5312.43 72.27
4446 102.0417 5288.00 5325.89 72.72
4447 102.0622 5143.00 5338.89 71.71
4448 102.0826 5334.00 5351.21 73.03
4449 102.1031 5235.00 5362.87 72.35
4450 102.1236 5298.00 5373.60 72.79
4451 102.1441 5427.00 5383.36 73.67
4452 102.1646 5289.00 5392.07 72.73
4453 102.1851 5414.00 5399.53 73.58
4454 102.2056 5460.00 5406.04 73.89
4455 102.2261 5457.00 5411.25 73.87
4456 102.2465 5368.00 5415.55 73.27
4457 102.2670 5297.00 5418.96 72.78
4458 102.2875 5288.00 5421.30 72.72
4459 102.3080 5257.00 5422.78 72.51
4460 102.3285 5250.00 5423.58 72.46
4461 102.3490 5210.00 5423.82 72.18
4462 102.3695 5463.00 5423.68 73.91
4463 102.3900 5401.00 5423.17 73.49
4464 102.4104 5326.00 5422.78 72.98
4465 102.4309 5603.00 5422.51 74.85
4466 102.4514 5360.00 5422.49 73.21
4467 102.4719 5439.00 5422.84 73.75
4468 102.4923 5459.00 5423.97 73.89
4469 102.5128 5383.00 5425.41 73.37
4470 102.5333 5331.00 5427.25 73.01
4471 102.5537 5338.00 5429.57 73.06
4472 102.5742 5382.00 5432.29 73.36
4473 102.5947 5388.00 5435.45 73.40
4474 102.6152 5510.00 5438.88 74.23
4475 102.6357 5398.00 5442.45 73.47
4476 102.6562 5325.00 5446.03 72.97
4477 102.6767 5323.00 5449.52 72.96
4478 102.6972 5425.00 5452.79 73.65
4479 102.7176 5533.00 5455.76 74.38
4480 102.7381 5250.00 5458.32 72.46
4481 102.7586 5396.00 5460.63 73.46
4482 102.7791 5469.00 5462.65 73.95
4483 102.7996 5371.00 5464.44 73.29
4484 102.8201 5257.00 5466.10 72.51
4485 102.8406 5525.00 5467.78 74.33
4486 102.8611 5381.00 5469.58 73.36
4487 102.8815 5377.00 5471.62 73.33
4488 102.9020 5365.00 5473.99 73.25
4489 102.9225 5360.00 5476.29 73.21
4490 102.9430 5458.00 5479.54 73.88
4491 102.9635 5586.00 5483.04 74.74
4492 102.9840 5418.00 5486.75 73.61
4493 103.0045 5336.00 5490.47 73.05
4494 103.0250 5579.00 5493.95 74.69
4495 103.0454 5383.00 5496.88 73.37
4496 103.0659 5578.00 5498.94 74.69
4497 103.0864 5475.00 5499.80 73.99
4498 103.1068 5367.00 5499.17 73.26
4499 103.1273 5470.00 5496.48 73.96
4500 103.1478 5225.00 5492.33 72.28
4501 103.1683 5418.00 5486.10 73.61
4502 103.1887 5529.00 5478.40 74.36
4503 103.2092 5426.00 5468.49 73.66
4504 103.2297 5424.00 5457.02 73.65
4505 103.2502 5598.00 5444.58 74.82
4506 103.2707 5468.00 5430.49 73.95
4507 103.2912 5473.00 5415.99 73.98
4508 103.3117 5514.00 5401.01 74.26
4509 103.3322 5333.00 5385.84 73.03
4510 103.3526 5397.00 5370.54 73.46
4511 103.3731 5374.00 5355.13 73.31
4512 103.3936 5396.00 5339.71 73.46
4513 103.4141 5306.00 5324.32 72.84
4514 103.4346 5288.00 5308.80 72.72
4515 103.4551 5313.00 5293.14 72.89
4516 103.4756 5422.00 5277.14 73.63
4517 103.4961 5308.00 5261.07 72.86
4518 103.5165 5256.00 5244.82 72.50
4519 103.5370 5404.00 5228.27 73.51
4520 103.5575 5330.00 5211.56 73.01
4521 103.5780 5140.00 5194.77 71.69
4522 103.5985 5258.00 5178.01 72.51
4523 103.6190 5244.00 5161.39 72.42
4524 103.6395 5252.00 5145.02 72.47
4525 103.6599 5311.00 5129.16 72.88
4526 103.6804 5067.00 5113.69 71.18
4527 103.7008 5173.00 5098.81 71.92
4528 103.7213 5205.00 5084.57 72.15
4529 103.7418 5167.00 5071.02 71.88
4530 103.7623 5172.00 5058.19 71.92
4531 103.7828 5277.00 5046.50 72.64
4532 103.8033 4996.00 5035.20 70.68
4533 103.8237 5055.00 5024.73 71.10
4534 103.8442 5073.00 5015.02 71.22
4535 103.8647 5063.00 5006.12 71.15
4536 103.8852 5109.00 4998.05 71.48
4537 103.9057 5088.00 4990.84 71.33
4538 103.9262 5130.00 4984.48 71.62
4539 103.9467 5265.00 4978.99 72.56
4540 103.9672 5064.00 4974.38 71.16
4541 103.9876 5000.00 4970.85 70.71
4542 104.0081 5124.00 4968.13 71.58
4543 104.0286 5030.00 4966.18 70.92
4544 104.0491 5143.00 4965.11 71.71
4545 104.0696 5201.00 4964.91 72.12
4546 104.0901 5172.00 4965.57 71.92
4547 104.1106 5075.00 4967.06 71.24
4548 104.1311 5086.00 4969.35 71.32
4549 104.1515 5108.00 4972.39 71.47
4550 104.1720 5020.00 4976.16 70.85
4551 104.1925 5106.00 4980.58 71.46
4552 104.2130 5155.00 4985.59 71.80
4553 104.2335 5097.00 4991.08 71.39
4554 104.2540 5284.00 4996.97 72.69
4555 104.2745 5295.00 5003.09 72.77
4556 104.2949 5245.00 5009.41 72.42
4557 104.3153 5175.00 5015.81 71.94
4558 104.3358 5183.00 5022.16 71.99
4559 104.3563 5096.00 5028.34 71.39
4560 104.3768 4995.00 5034.29 70.68
4561 104.3973 5176.00 5039.86 71.94
4562 104.4178 5235.00 5045.02 72.35
4563 104.4383 5199.00 5049.71 72.10
4564 104.4587 5232.00 5053.86 72.33
4565 104.4792 5174.00 5057.48 71.93
4566 104.4997 5172.00 5060.55 71.92
4567 104.5202 5302.00 5063.08 72.81
4568 104.5407 5255.00 5065.07 72.49
4569 104.5612 5182.00 5066.58 71.99
4570 104.5817 5103.00 5067.68 71.44
4571 104.6022 5193.00 5068.44 72.06
4572 104.6226 5131.00 5068.93 71.63
4573 104.6431 5195.00 5069.28 72.08
4574 104.6636 5190.00 5069.56 72.04
4575 104.6841 5075.00 5069.82 71.24
4576 104.7046 5190.00 5070.13 72.04
4577 104.7251 5115.00 5070.52 71.52
4578 104.7456 5098.00 5071.01 71.40
4579 104.7660 5108.00 5071.60 71.47
4580 104.7865 5144.00 5072.29 71.72
4581 104.8070 5200.00 5073.04 72.11
4582 104.8275 5188.00 5073.86 72.03
4583 104.8480 5170.00 5074.65 71.90
4584 104.8685 5236.00 5075.45 72.36
4585 104.8890 5251.00 5076.23 72.46
4586 104.9094 5027.00 5077.02 70.90
4587 104.9298 5174.00 5077.85 71.93
4588 104.9503 5107.00 5078.80 71.46
4589 104.9708 5173.00 5079.99 71.92
4590 104.9913 5169.00 5081.51 71.90
4591 105.0118 5143.00 5083.50 71.71
4592 105.0323 4999.00 5086.10 70.70
4593 105.0528 5154.00 5089.44 71.79
4594 105.0733 5211.00 5093.64 72.19
4595 105.0937 5365.00 5098.77 73.25
4596 105.1142 5261.00 5104.96 72.53
4597 105.1347 5122.00 5112.24 71.57
4598 105.1552 5057.00 5120.64 71.11
4599 105.1757 5237.00 5130.15 72.37
4600 105.1962 5054.00 5140.78 71.09
4601 105.2167 5112.00 5152.42 71.50
4602 105.2372 5181.00 5165.03 71.98
4603 105.2576 5246.00 5178.49 72.43
4604 105.2781 5097.00 5192.74 71.39
4605 105.2986 5205.00 5207.68 72.15
4606 105.3191 5213.00 5223.14 72.20
4607 105.3396 5251.00 5239.04 72.46
4608 105.3601 5210.00 5255.41 72.18
4609 105.3806 5081.00 5271.80 71.28
4610 105.4010 5276.00 5288.40 72.64
4611 105.4215 5145.00 5304.94 71.73
4612 105.4420 5404.00 5321.30 73.51
4613 105.4625 5399.00 5337.67 73.48
4614 105.4830 5300.00 5353.88 72.80
4615 105.5034 5329.00 5370.00 73.00
4616 105.5239 5360.00 5385.64 73.21
4617 105.5444 5278.00 5400.84 72.65
4618 105.5648 5387.00 5415.41 73.40
4619 105.5853 5386.00 5429.35 73.39
4620 105.6058 5408.00 5442.43 73.54
4621 105.6263 5445.00 5454.50 73.79
4622 105.6468 5435.00 5465.31 73.72
4623 105.6673 5431.00 5475.22 73.70
4624 105.6878 5526.00 5483.52 74.34
4625 105.7083 5423.00 5490.56 73.64
4626 105.7287 5358.00 5496.13 73.20
4627 105.7492 5418.00 5500.44 73.61
4628 105.7697 5391.00 5503.61 73.42
4629 105.7902 5500.00 5505.52 74.16
4630 105.8107 5468.00 5506.51 73.95
4631 105.8312 5416.00 5507.17 73.59
4632 105.8517 5473.00 5507.33 73.98
4633 105.8721 5420.00 5507.18 73.62
4634 105.8926 5442.00 5506.83 73.77
4635 105.9131 5498.00 5506.40 74.15
4636 105.9336 5528.00 5505.93 74.35
4637 105.9541 5429.00 5505.45 73.68
4638 105.9746 5409.00 5504.95 73.55
4639 105.9951 5367.00 5504.36 73.26
4640 106.0156 5432.00 5503.58 73.70
4641 106.0360 5457.00 5502.53 73.87
4642 106.0565 5387.00 5501.23 73.40
4643 106.0770 5469.00 5499.61 73.95
4644 106.0975 5422.00 5497.49 73.63
4645 106.1180 5415.00 5494.96 73.59
4646 106.1384 5270.00 5491.94 72.59
4647 106.1589 5387.00 5488.30 73.40
4648 106.1794 5239.00 5484.13 72.38
4649 106.1998 5364.00 5479.80 73.24
4650 106.2203 5340.00 5474.74 73.08
4651 106.2408 5400.00 5469.18 73.48
4652 106.2613 5352.00 5463.09 73.16
4653 106.2818 5475.00 5456.47 73.99
4654 106.3023 5433.00 5449.30 73.71
4655 106.3228 5338.00 5441.53 73.06
4656 106.3433 5292.00 5433.12 72.75
4657 106.3637 5326.00 5424.05 72.98
4658 106.3842 5461.00 5414.55 73.90
4659 106.4047 5195.00 5403.79 72.08
4660 106.4252 5259.00 5392.16 72.52
4661 106.4457 5250.00 5379.61 72.46
4662 106.4662 5238.00 5365.82 72.37
4663 106.4867 5243.00 5351.40 72.41
4664 106.5071 5327.00 5336.18 72.99
4665 106.5276 5317.00 5320.08 72.92
4666 106.5481 5174.00 5303.30 71.93
4667 106.5686 5231.00 5285.96 72.33
4668 106.5891 5268.00 5268.23 72.58
4669 106.6096 5235.00 5250.26 72.35
4670 106.6301 5240.00 5232.28 72.39
4671 106.6506 5038.00 5214.23 70.98
4672 106.6710 5105.00 5196.42 71.45
4673 106.6915 5150.00 5178.75 71.76
4674 106.7120 5162.00 5161.37 71.85
4675 106.7324 4981.00 5144.34 70.58
4676 106.7529 5055.00 5127.68 71.10
4677 106.7734 5096.00 5111.40 71.39
4678 106.7939 5207.00 5095.49 72.16
4679 106.8144 5180.00 5079.95 71.97
4680 106.8348 5121.00 5064.72 71.56
4681 106.8553 5122.00 5049.92 71.57
4682 106.8758 5064.00 5035.50 71.16
4683 106.8963 5063.00 5021.48 71.15
4684 106.9168 4948.00 5007.88 70.34
4685 106.9373 5153.00 4994.48 71.78
4686 106.9578 5036.00 4981.83 70.96
4687 106.9782 4932.00 4969.76 70.23
4688 106.9987 4912.00 4958.26 70.09
4689 107.0192 4940.00 4947.22 70.29
4690 107.0397 4866.00 4936.71 69.76
4691 107.0602 5123.00 4926.73 71.58
4692 107.0807 5043.00 4917.23 71.01
4693 107.1012 5071.00 4908.18 71.21
4694 107.1217 4831.00 4899.50 69.51
4695 107.1421 4914.00 4891.21 70.10
4696 107.1626 4918.00 4883.19 70.13
4697 107.1831 5022.00 4875.44 70.87
4698 107.2036 4999.00 4867.98 70.70
4699 107.2241 5047.00 4860.70 71.04
4700 107.2446 4980.00 4853.83 70.57
4701 107.2651 4942.00 4847.31 70.30
4702 107.2856 4705.00 4841.20 68.59
4703 107.3059 4747.00 4835.45 68.90
4704 107.3264 4965.00 4830.42 70.46
4705 107.3469 4946.00 4825.85 70.33
4706 107.3674 4850.00 4821.89 69.64
4707 107.3879 4855.00 4818.57 69.68
4708 107.4084 4883.00 4815.97 69.88
4709 107.4289 4874.00 4813.97 69.81
4710 107.4494 4878.00 4812.64 69.84
4711 107.4698 4872.00 4811.98 69.80
4712 107.4903 4799.00 4811.95 69.27
4713 107.5108 4884.00 4812.54 69.89
4714 107.5313 4794.00 4813.83 69.24
4715 107.5518 4866.00 4815.61 69.76
4716 107.5723 4796.00 4817.97 69.25
4717 107.5928 4851.00 4820.86 69.65
4718 107.6132 4922.00 4824.33 70.16
4719 107.6337 5198.00 4828.37 72.10
4720 107.6542 4994.00 4832.97 70.67
4721 107.6747 4901.00 4838.10 70.01
4722 107.6952 4949.00 4843.77 70.35
4723 107.7157 4882.00 4849.92 69.87
4724 107.7362 5013.00 4856.56 70.80
4725 107.7567 4915.00 4863.62 70.11
4726 107.7771 4982.00 4871.04 70.58
4727 107.7976 4952.00 4878.84 70.37
4728 107.8181 5132.00 4886.94 71.64
4729 107.8386 4989.00 4895.30 70.63
4730 107.8591 5055.00 4903.88 71.10
4731 107.8796 5088.00 4912.64 71.33
4732 107.9000 5044.00 4921.74 71.02
4733 107.9205 5122.00 4930.54 71.57
4734 107.9409 5023.00 4939.56 70.87
4735 107.9614 5236.00 4948.62 72.36
4736 107.9819 5239.00 4957.61 72.38
4737 108.0024 5104.00 4966.44 71.44
4738 108.0229 5029.00 4975.03 70.92
4739 108.0434 5053.00 4983.28 71.08
4740 108.0639 5218.00 4991.09 72.24
4741 108.0843 5145.00 4998.32 71.73
4742 108.1048 4964.00 5005.03 70.46
4743 108.1253 5188.00 5011.01 72.03
4744 108.1458 5195.00 5016.24 72.08
4745 108.1663 5046.00 5020.73 71.04
4746 108.1868 5014.00 5024.48 70.81
4747 108.2073 5005.00 5027.56 70.75
4748 108.2278 5158.00 5029.93 71.82
4749 108.2482 5341.00 5031.70 73.08
4750 108.2687 5184.00 5033.24 72.00
4751 108.2892 5116.00 5034.05 71.53
4752 108.3097 5076.00 5034.31 71.25
4753 108.3302 5050.00 5034.34 71.06
4754 108.3507 5126.00 5034.00 71.60
4755 108.3712 5019.00 5033.23 70.84
4756 108.3917 5070.00 5031.93 71.20
4757 108.4121 4933.00 5030.12 70.24
4758 108.4326 4996.00 5027.62 70.68
4759 108.4531 5042.00 5024.31 71.01
4760 108.4736 4960.00 5020.10 70.43
4761 108.4940 4833.00 5014.61 69.52
4762 108.5145 4989.00 5008.34 70.63
4763 108.5350 5061.00 5000.99 71.14
4764 108.5554 4970.00 4992.83 70.50
4765 108.5759 4871.00 4983.42 69.79
4766 108.5964 4877.00 4973.08 69.84
4767 108.6169 4998.00 4961.94 70.70
4768 108.6374 4897.00 4950.23 69.98
4769 108.6579 4905.00 4937.90 70.04
4770 108.6784 4764.00 4925.23 69.02
4771 108.6989 4986.00 4912.34 70.61
4772 108.7193 4825.00 4899.46 69.46
4773 108.7398 4867.00 4886.57 69.76
4774 108.7603 4787.00 4873.85 69.19
4775 108.7808 4743.00 4861.43 68.87
4776 108.8013 4830.00 4849.22 69.50
4777 108.8218 4843.00 4837.50 69.59
4778 108.8423 4823.00 4825.95 69.45
4779 108.8628 4707.00 4814.74 68.61
4780 108.8832 4722.00 4803.77 68.72
4781 108.9037 4746.00 4793.22 68.89
4782 108.9242 4712.00 4783.09 68.64
4783 108.9447 4747.00 4773.10 68.90
4784 108.9652 4787.00 4763.80 69.19
4785 108.9857 4753.00 4754.60 68.94
4786 109.0062 4736.00 4745.77 68.82
4787 109.0267 4780.00 4737.34 69.14
4788 109.0471 4792.00 4729.59 69.22
4789 109.0675 4691.00 4722.03 68.49
4790 109.0880 4712.00 4714.95 68.64
4791 109.1085 4770.00 4708.37 69.07
4792 109.1290 4800.00 4702.30 69.28
4793 109.1495 4752.00 4696.75 68.93
4794 109.1700 4606.00 4691.72 67.87
4795 109.1904 4558.00 4687.26 67.51
4796 109.2109 4840.00 4683.30 69.57
4797 109.2314 4896.00 4679.86 69.97
4798 109.2519 4612.00 4676.95 67.91
4799 109.2724 4667.00 4674.55 68.32
4800 109.2929 4679.00 4672.69 68.40
4801 109.3134 4633.00 4671.36 68.07
4802 109.3339 4707.00 4670.54 68.61
4803 109.3543 4776.00 4670.44 69.11
4804 109.3748 4592.00 4670.98 67.76
4805 109.3953 4651.00 4672.07 68.20
4806 109.4158 4725.00 4673.87 68.74
4807 109.4363 4772.00 4676.60 69.08
4808 109.4568 4719.00 4679.80 68.69
4809 109.4773 4705.00 4683.74 68.59
4810 109.4978 4679.00 4688.42 68.40
4811 109.5182 4738.00 4693.77 68.83
4812 109.5387 4738.00 4699.83 68.83
4813 109.5592 4702.00 4706.50 68.57
4814 109.5797 4816.00 4713.74 69.40
4815 109.6002 4770.00 4721.43 69.07
4816 109.6207 4680.00 4729.49 68.41
4817 109.6411 4709.00 4737.79 68.62
4818 109.6615 4671.00 4746.44 68.34
4819 109.6820 4615.00 4754.89 67.93
4820 109.7025 4668.00 4763.24 68.32
4821 109.7230 4679.00 4771.40 68.40
4822 109.7435 4632.00 4779.25 68.06
4823 109.7640 4719.00 4786.73 68.69
4824 109.7845 4754.00 4793.67 68.95
4825 109.8050 4700.00 4800.22 68.56
4826 109.8254 4879.00 4806.21 69.85
4827 109.8459 4699.00 4811.68 68.55
4828 109.8664 4617.00 4816.62 67.95
4829 109.8869 4664.00 4820.88 68.29
4830 109.9074 4631.00 4824.50 68.05
4831 109.9279 4639.00 4827.44 68.11
4832 109.9484 4763.00 4829.75 69.01
4833 109.9689 4763.00 4831.40 69.01
4834 109.9893 4600.00 4832.38 67.82
4835 110.0098 4705.00 4832.71 68.59
4836 110.0303 4673.00 4832.41 68.36
4837 110.0508 4743.00 4831.48 68.87
4838 110.0713 4716.00 4829.95 68.67
4839 110.0918 4751.00 4827.65 68.93
4840 110.1123 4735.00 4825.01 68.81
4841 110.1328 4719.00 4821.79 68.69
4842 110.1532 4748.00 4818.16 68.91
4843 110.1737 4714.00 4814.05 68.66
4844 110.1942 4675.00 4809.55 68.37
4845 110.2146 4608.00 4804.68 67.88
4846 110.2351 4697.00 4799.70 68.53
4847 110.2556 4727.00 4794.19 68.75
4848 110.2761 4811.00 4788.40 69.36
4849 110.2965 4598.00 4782.27 67.81
4850 110.3170 4551.00 4775.98 67.46
4851 110.3375 4807.00 4769.50 69.33
4852 110.3580 4504.00 4762.82 67.11
4853 110.3785 4526.00 4755.83 67.28
4854 110.3990 4749.00 4748.80 68.91
4855 110.4195 4657.00 4741.62 68.24
4856 110.4400 4750.00 4734.33 68.92
4857 110.4604 4753.00 4726.99 68.94
4858 110.4809 4426.00 4719.59 66.53
4859 110.5014 4655.00 4712.13 68.23
4860 110.5219 4561.00 4704.78 67.54
4861 110.5424 4604.00 4697.49 67.85
4862 110.5629 4599.00 4690.39 67.82
4863 110.5834 4579.00 4683.51 67.67
4864 110.6039 4668.00 4676.88 68.32
4865 110.6243 4593.00 4670.60 67.77
4866 110.6448 4514.00 4664.65 67.19
4867 110.6653 4607.00 4659.12 67.87
4868 110.6858 4621.00 4653.94 67.98
4869 110.7063 4507.00 4649.37 67.13
4870 110.7268 4651.00 4645.31 68.20
4871 110.7473 4609.00 4641.79 67.89
4872 110.7677 4677.00 4638.76 68.39
4873 110.7882 4548.00 4636.29 67.44
4874 110.8086 4602.00 4634.24 67.84
4875 110.8291 4571.00 4632.71 67.61
4876 110.8496 4682.00 4631.60 68.43
4877 110.8701 4585.00 4630.59 67.71
4878 110.8906 4440.00 4630.33 66.63
4879 110.9111 4565.00 4630.05 67.56
4880 110.9315 4442.00 4629.90 66.65
4881 110.9520 4568.00 4629.82 67.59
4882 110.9725 4407.00 4629.76 66.39
4883 110.9930 4568.00 4629.80 67.59
4884 111.0135 4595.00 4629.54 67.79
4885 111.0340 4495.00 4629.31 67.04
4886 111.0545 4482.00 4629.02 66.95
4887 111.0750 4543.00 4628.67 67.40
4888 111.0954 4492.00 4628.31 67.02
4889 111.1159 4442.00 4627.97 66.65
4890 111.1364 4525.00 4627.73 67.27
4891 111.1569 4446.00 4627.61 66.68
4892 111.1774 4416.00 4627.70 66.45
4893 111.1979 4529.00 4628.02 67.30
4894 111.2184 4625.00 4628.58 68.01
4895 111.2389 4572.00 4629.48 67.62
4896 111.2593 4557.00 4630.73 67.51
4897 111.2798 4524.00 4631.95 67.26
4898 111.3003 4539.00 4633.80 67.37
4899 111.3208 4515.00 4635.63 67.19
4900 111.3413 4556.00 4638.00 67.50
4901 111.3618 4528.00 4640.46 67.29
4902 111.3822 4577.00 4643.06 67.65
4903 111.4026 4491.00 4645.64 67.01
4904 111.4231 4621.00 4648.09 67.98
4905 111.4436 4625.00 4650.38 68.01
4906 111.4641 4587.00 4652.35 67.73
4907 111.4846 4517.00 4653.89 67.21
4908 111.5051 4509.00 4654.91 67.15
4909 111.5256 4554.00 4655.30 67.48
4910 111.5461 4611.00 4654.98 67.90
4911 111.5665 4682.00 4653.93 68.43
4912 111.5870 4532.00 4652.11 67.32
4913 111.6075 4646.00 4649.55 68.16
4914 111.6280 4615.00 4646.21 67.93
4915 111.6485 4577.00 4642.34 67.65
4916 111.6690 4514.00 4637.97 67.19
4917 111.6895 4541.00 4633.12 67.39
4918 111.7100 4527.00 4628.13 67.28
4919 111.7304 4605.00 4622.93 67.86
4920 111.7509 4368.00 4617.90 66.09
4921 111.7714 4582.00 4612.99 67.69
4922 111.7919 4737.00 4608.40 68.83
4923 111.8124 4607.00 4604.40 67.87
4924 111.8329 4608.00 4600.74 67.88
4925 111.8534 4479.00 4597.44 66.93
4926 111.8738 4378.00 4594.65 66.17
4927 111.8943 4469.00 4592.37 66.85
4928 111.9148 4527.00 4590.60 67.28
4929 111.9352 4566.00 4589.39 67.57
4930 111.9557 4529.00 4588.59 67.30
4931 111.9762 4583.00 4588.38 67.70
4932 111.9967 4645.00 4588.49 68.15
4933 112.0172 4630.00 4589.06 68.04
4934 112.0376 4595.00 4590.03 67.79
4935 112.0581 4533.00 4591.52 67.33
4936 112.0786 4520.00 4593.50 67.23
4937 112.0991 4544.00 4596.01 67.41
4938 112.1196 4566.00 4599.08 67.57
4939 112.1401 4558.00 4602.73 67.51
4940 112.1606 4529.00 4606.98 67.30
4941 112.1811 4688.00 4611.82 68.47
4942 112.2015 4611.00 4617.33 67.90
4943 112.2220 4649.00 4623.31 68.18
4944 112.2425 4465.00 4629.75 66.82
4945 112.2630 4528.00 4636.60 67.29
4946 112.2835 4573.00 4643.72 67.62
4947 112.3040 4629.00 4650.98 68.04
4948 112.3245 4785.00 4658.25 69.17
4949 112.3450 4643.00 4665.34 68.14
4950 112.3654 4676.00 4672.08 68.38
4951 112.3859 4544.00 4678.36 67.41
4952 112.4064 4639.00 4683.97 68.11
4953 112.4269 4628.00 4689.01 68.03
4954 112.4474 4669.00 4692.96 68.33
4955 112.4679 4606.00 4695.93 67.87
4956 112.4884 4640.00 4697.89 68.12
4957 112.5088 4771.00 4698.82 69.07
4958 112.5293 4673.00 4698.79 68.36
4959 112.5497 4565.00 4697.99 67.56
4960 112.5702 4620.00 4696.21 67.97
4961 112.5907 4721.00 4693.73 68.71
4962 112.6112 4619.00 4690.68 67.96
4963 112.6317 4608.00 4687.19 67.88
4964 112.6522 4656.00 4683.57 68.23
4965 112.6726 4538.00 4679.63 67.36
4966 112.6931 4693.00 4675.45 68.51
4967 112.7136 4607.00 4671.46 67.87
4968 112.7341 4673.00 4667.57 68.36
4969 112.7546 4704.00 4663.83 68.59
4970 112.7751 4618.00 4660.25 67.96
4971 112.7956 4566.00 4656.84 67.57
4972 112.8161 4594.00 4653.58 67.78
4973 112.8365 4654.00 4650.44 68.22
4974 112.8570 4468.00 4647.36 66.84
4975 112.8775 4566.00 4644.29 67.57
4976 112.8980 4459.00 4641.02 66.78
4977 112.9185 4715.00 4637.81 68.67
4978 112.9390 4651.00 4634.45 68.20
4979 112.9595 4530.00 4630.88 67.31
4980 112.9799 4625.00 4627.08 68.01
4981 113.0004 4562.00 4622.95 67.54
4982 113.0209 4590.00 4618.51 67.75
4983 113.0414 4630.00 4613.76 68.04
4984 113.0619 4586.00 4608.58 67.72
4985 113.0824 4557.00 4603.02 67.51
4986 113.1029 4526.00 4597.00 67.28
4987 113.1233 4515.00 4590.69 67.19
4988 113.1437 4474.00 4584.12 66.89
4989 113.1642 4551.00 4577.17 67.46
4990 113.1847 4573.00 4569.94 67.62
4991 113.2052 4537.00 4562.51 67.36
4992 113.2257 4567.00 4554.90 67.58
4993 113.2462 4516.00 4547.17 67.20
4994 113.2667 4410.00 4539.35 66.41
4995 113.2872 4585.00 4531.46 67.71
4996 113.3076 4323.00 4523.45 65.75
4997 113.3281 4495.00 4515.39 67.04
4998 113.3486 4448.00 4507.38 66.69
4999 113.3691 4328.00 4499.33 65.79
5000 113.3896 4435.00 4491.23 66.60
5001 113.4101 4479.00 4483.06 66.93
5002 113.4306 4506.00 4474.81 67.13
5003 113.4510 4415.00 4466.52 66.45
5004 113.4715 4492.00 4458.10 67.02
5005 113.4920 4392.00 4449.59 66.27
5006 113.5125 4499.00 4441.01 67.07
5007 113.5330 4454.00 4432.36 66.74
5008 113.5535 4574.00 4423.68 67.63
5009 113.5740 4540.00 4415.00 67.38
5010 113.5945 4369.00 4406.26 66.10
5011 113.6149 4354.00 4397.58 65.98
5012 113.6354 4424.00 4388.90 66.51
5013 113.6559 4401.00 4380.26 66.34
5014 113.6764 4400.00 4371.68 66.33
5015 113.6968 4432.00 4363.18 66.57
5016 113.7173 4374.00 4354.73 66.14
5017 113.7378 4380.00 4346.31 66.18
5018 113.7583 4446.00 4338.02 66.68
5019 113.7787 4477.00 4329.83 66.91
5020 113.7992 4312.00 4321.65 65.67
5021 113.8197 4467.00 4313.53 66.84
5022 113.8402 4496.00 4305.46 67.05
5023 113.8607 4443.00 4297.46 66.66
5024 113.8812 4384.00 4289.53 66.21
5025 113.9017 4386.00 4281.43 66.23
5026 113.9222 4300.00 4273.71 65.57
5027 113.9426 4358.00 4266.20 66.02
5028 113.9631 4439.00 4258.83 66.63
5029 113.9836 4471.00 4251.76 66.87
5030 114.0041 4431.00 4244.86 66.57
5031 114.0246 4382.00 4238.23 66.20
5032 114.0451 4301.00 4231.89 65.58
5033 114.0656 4395.00 4225.87 66.29
5034 114.0860 4421.00 4220.21 66.49
5035 114.1065 4538.00 4214.87 67.36
5036 114.1270 4570.00 4209.85 67.60
5037 114.1475 4333.00 4204.89 65.83
5038 114.1680 4340.00 4200.58 65.88
5039 114.1885 4288.00 4196.58 65.48
5040 114.2090 4278.00 4192.91 65.41
5041 114.2295 4353.00 4189.23 65.98
5042 114.2498 4296.00 4186.21 65.54
5043 114.2703 4334.00 4183.48 65.83
5044 114.2908 4197.00 4181.06 64.78
5045 114.3113 4305.00 4178.95 65.61
5046 114.3318 4240.00 4177.00 65.12
5047 114.3523 4381.00 4175.49 66.19
5048 114.3728 4437.00 4174.15 66.61
5049 114.3933 4277.00 4173.28 65.40
5050 114.4137 4358.00 4172.72 66.02
5051 114.4342 4258.00 4172.50 65.25
5052 114.4547 4307.00 4172.61 65.63
5053 114.4752 4404.00 4173.07 66.36
5054 114.4957 4388.00 4173.89 66.24
5055 114.5162 4319.00 4175.07 65.72
5056 114.5367 4253.00 4176.62 65.21
5057 114.5571 4294.00 4178.55 65.53
5058 114.5776 4307.00 4180.82 65.63
5059 114.5981 4174.00 4183.41 64.61
5060 114.6186 4218.00 4186.52 64.95
5061 114.6391 4332.00 4190.03 65.82
5062 114.6596 4374.00 4193.79 66.14
5063 114.6801 4346.00 4198.11 65.92
5064 114.7006 4392.00 4202.83 66.27
5065 114.7210 4343.00 4207.92 65.90
5066 114.7415 4360.00 4213.44 66.03
5067 114.7620 4398.00 4219.32 66.32
5068 114.7825 4315.00 4225.78 65.69
5069 114.8030 4363.00 4232.38 66.05
5070 114.8234 4452.00 4239.41 66.72
5071 114.8439 4339.00 4246.52 65.87
5072 114.8644 4299.00 4254.04 65.57
5073 114.8848 4429.00 4261.75 66.55
5074 114.9053 4288.00 4269.73 65.48
5075 114.9258 4374.00 4277.90 66.14
5076 114.9463 4307.00 4286.14 65.63
5077 114.9668 4333.00 4294.52 65.83
5078 114.9873 4278.00 4302.94 65.41
5079 115.0078 4352.00 4311.35 65.97
5080 115.0283 4418.00 4319.71 66.47
5081 115.0487 4474.00 4327.97 66.89
5082 115.0692 4423.00 4336.01 66.51
5083 115.0897 4506.00 4343.99 67.13
5084 115.1102 4401.00 4351.77 66.34
5085 115.1307 4420.00 4359.13 66.48
5086 115.1512 4490.00 4366.47 67.01
5087 115.1717 4508.00 4373.48 67.14
5088 115.1921 4434.00 4380.26 66.59
5089 115.2126 4437.00 4386.78 66.61
5090 115.2331 4455.00 4392.99 66.75
5091 115.2536 4374.00 4398.87 66.14
5092 115.2741 4358.00 4404.32 66.02
5093 115.2946 4471.00 4409.43 66.87
5094 115.3151 4519.00 4414.08 67.22
5095 115.3356 4386.00 4418.23 66.23
5096 115.3560 4542.00 4421.83 67.39
5097 115.3764 4534.00 4424.77 67.33
5098 115.3969 4423.00 4427.15 66.51
5099 115.4174 4400.00 4428.86 66.33
5100 115.4379 4461.00 4429.88 66.79
5101 115.4584 4461.00 4430.28 66.79
5102 115.4789 4392.00 4429.93 66.27
5103 115.4994 4471.00 4428.94 66.87
5104 115.5198 4378.00 4427.30 66.17
5105 115.5403 4492.00 4425.19 67.02
5106 115.5608 4465.00 4422.50 66.82
5107 115.5813 4490.00 4419.59 67.01
5108 115.6018 4341.00 4416.41 65.89
5109 115.6223 4354.00 4413.07 65.98
5110 115.6428 4524.00 4409.64 67.26
5111 115.6632 4496.00 4406.22 67.05
5112 115.6837 4448.00 4402.93 66.69
5113 115.7042 4406.00 4399.69 66.38
5114 115.7247 4418.00 4396.63 66.47
5115 115.7452 4400.00 4393.77 66.33
5116 115.7657 4277.00 4391.15 65.40
5117 115.7862 4427.00 4388.77 66.54
5118 115.8067 4427.00 4386.66 66.54
5119 115.8271 4366.00 4384.81 66.08
5120 115.8476 4374.00 4383.21 66.14
5121 115.8681 4427.00 4381.90 66.54
5122 115.8886 4492.00 4380.81 67.02
5123 115.9091 4360.00 4379.82 66.03
5124 115.9296 4338.00 4379.24 65.86
5125 115.9501 4332.00 4378.93 65.82
5126 115.9705 4415.00 4378.87 66.45
5127 115.9909 4303.00 4379.08 65.60
5128 116.0114 4280.00 4379.55 65.42
5129 116.0319 4388.00 4380.25 66.24
5130 116.0524 4226.00 4381.17 65.01
5131 116.0729 4250.00 4382.27 65.19
5132 116.0934 4362.00 4383.50 66.05
5133 116.1139 4408.00 4384.80 66.39
5134 116.1344 4477.00 4386.09 66.91
5135 116.1548 4512.00 4387.28 67.17
5136 116.1753 4505.00 4388.30 67.12
5137 116.1958 4488.00 4389.10 66.99
5138 116.2163 4411.00 4389.46 66.42
5139 116.2368 4448.00 4389.35 66.69
5140 116.2573 4413.00 4388.72 66.43
5141 116.2778 4355.00 4387.52 65.99
5142 116.2982 4487.00 4385.72 66.99
5143 116.3187 4435.00 4383.31 66.60
5144 116.3392 4413.00 4380.49 66.43
5145 116.3597 4359.00 4376.90 66.02
5146 116.3802 4300.00 4372.94 65.57
5147 116.4007 4491.00 4368.79 67.01
5148 116.4212 4366.00 4364.17 66.08
5149 116.4417 4400.00 4359.35 66.33
5150 116.4621 4327.00 4354.46 65.78
5151 116.4826 4298.00 4349.52 65.56
5152 116.5031 4239.00 4344.65 65.11
5153 116.5236 4297.00 4339.88 65.55
5154 116.5440 4357.00 4335.34 66.01
5155 116.5645 4249.00 4330.90 65.18
5156 116.5850 4368.00 4326.65 66.09
5157 116.6055 4365.00 4322.57 66.07
5158 116.6259 4419.00 4318.67 66.48
5159 116.6464 4281.00 4314.87 65.43
5160 116.6669 4314.00 4311.17 65.68
5161 116.6874 4323.00 4307.36 65.75
5162 116.7079 4383.00 4303.72 66.20
5163 116.7284 4511.00 4300.08 67.16
5164 116.7489 4338.00 4296.39 65.86
5165 116.7693 4219.00 4292.66 64.95
5166 116.7898 4297.00 4288.90 65.55
5167 116.8103 4405.00 4285.02 66.37
5168 116.8308 4345.00 4281.09 65.92
5169 116.8513 4285.00 4277.11 65.46
5170 116.8718 4217.00 4273.12 64.94
5171 116.8923 4193.00 4269.13 64.75
5172 116.9128 4345.00 4265.16 65.92
5173 116.9332 4328.00 4261.10 65.79
5174 116.9537 4415.00 4257.23 66.45
5175 116.9742 4347.00 4253.46 65.93
5176 116.9947 4172.00 4249.77 64.59
5177 117.0152 4296.00 4246.20 65.54
5178 117.0357 4198.00 4242.76 64.79
5179 117.0562 4211.00 4239.46 64.89
5180 117.0767 4352.00 4236.27 65.97
5181 117.0970 4268.00 4233.26 65.33
5182 117.1175 4137.00 4230.48 64.32
5183 117.1380 4140.00 4227.82 64.34
5184 117.1585 4275.00 4225.47 65.38
5185 117.1790 4178.00 4223.37 64.64
5186 117.1995 4178.00 4221.53 64.64
5187 117.2200 4183.00 4219.95 64.68
5188 117.2405 4238.00 4218.65 65.10
5189 117.2609 4308.00 4217.63 65.64
5190 117.2814 4263.00 4216.88 65.29
5191 117.3019 4117.00 4216.38 64.16
5192 117.3224 4257.00 4216.28 65.25
5193 117.3429 4344.00 4216.24 65.91
5194 117.3634 4214.00 4216.37 64.92
5195 117.3839 4182.00 4216.54 64.67
5196 117.4043 4129.00 4216.92 64.26
5197 117.4248 4119.00 4217.09 64.18
5198 117.4453 4111.00 4217.77 64.12
5199 117.4658 4183.00 4218.25 64.68
5200 117.4863 4216.00 4218.69 64.93
5201 117.5068 4217.00 4219.20 64.94
5202 117.5273 4239.00 4219.42 65.11
5203 117.5478 4288.00 4219.66 65.48
5204 117.5682 4201.00 4219.80 64.82
5205 117.5887 4176.00 4219.91 64.62
5206 117.6092 4262.00 4219.88 65.28
5207 117.6297 4187.00 4219.95 64.71
5208 117.6501 4228.00 4220.07 65.02
5209 117.6706 4200.00 4220.27 64.81
5210 117.6911 4172.00 4220.59 64.59
5211 117.7116 4247.00 4221.07 65.17
5212 117.7320 4161.00 4221.75 64.51
5213 117.7525 4233.00 4222.68 65.06
5214 117.7730 4107.00 4223.88 64.09
5215 117.7935 4155.00 4225.38 64.46
5216 117.8140 4117.00 4227.19 64.16
5217 117.8345 4362.00 4229.33 66.05
5218 117.8550 4264.00 4231.81 65.30
5219 117.8754 4189.00 4234.59 64.72
5220 117.8959 4180.00 4237.55 64.65
5221 117.9164 4117.00 4241.13 64.16
5222 117.9369 4114.00 4244.78 64.14
5223 117.9574 4315.00 4248.65 65.69
5224 117.9779 4273.00 4252.70 65.37
5225 117.9984 4176.00 4256.90 64.62
5226 118.0189 4215.00 4261.17 64.92
5227 118.0393 4281.00 4265.46 65.43
5228 118.0598 4307.00 4269.69 65.63
5229 118.0803 4282.00 4274.04 65.44
5230 118.1008 4306.00 4278.12 65.62
5231 118.1213 4262.00 4282.04 65.28
5232 118.1418 4196.00 4285.78 64.78
5233 118.1623 4270.00 4289.24 65.35
5234 118.1828 4282.00 4292.43 65.44
5235 118.2031 4201.00 4295.34 64.82
5236 118.2236 4310.00 4297.98 65.65
5237 118.2441 4267.00 4300.35 65.32
5238 118.2646 4201.00 4302.46 64.82
5239 118.2851 4244.00 4304.35 65.15
5240 118.3056 4237.00 4306.03 65.09
5241 118.3261 4317.00 4307.53 65.70
5242 118.3465 4360.00 4308.78 66.03
5243 118.3670 4341.00 4309.98 65.89
5244 118.3875 4243.00 4311.07 65.14
5245 118.4080 4334.00 4312.05 65.83
5246 118.4285 4221.00 4312.91 64.97
5247 118.4490 4176.00 4313.66 64.62
5248 118.4695 4323.00 4314.28 65.75
5249 118.4900 4125.00 4314.73 64.23
5250 118.5104 4175.00 4315.00 64.61
5251 118.5309 4211.00 4315.05 64.89
5252 118.5514 4187.00 4314.85 64.71
5253 118.5719 4216.00 4314.37 64.93
5254 118.5924 4031.00 4313.62 63.49
5255 118.6129 4127.00 4312.50 64.24
5256 118.6334 4307.00 4311.06 65.63
5257 118.6539 4211.00 4309.28 64.89
5258 118.6743 4212.00 4307.31 64.90
5259 118.6948 4158.00 4305.04 64.48
5260 118.7153 4177.00 4302.51 64.63
5261 118.7357 4285.00 4299.66 65.46
5262 118.7562 4199.00 4296.68 64.80
5263 118.7767 4193.00 4293.59 64.75
5264 118.7972 4156.00 4290.46 64.47
5265 118.8177 4053.00 4287.29 63.66
5266 118.8381 4085.00 4284.22 63.91
5267 118.8586 4095.00 4281.37 63.99
5268 118.8791 4148.00 4278.49 64.40
5269 118.8996 4200.00 4275.49 64.81
5270 118.9201 4199.00 4272.84 64.80
5271 118.9406 4321.00 4270.30 65.73
5272 118.9611 4223.00 4267.84 64.98
5273 118.9815 4147.00 4265.56 64.40
5274 119.0020 4135.00 4263.19 64.30
5275 119.0225 4145.00 4260.80 64.38
5276 119.0430 4139.00 4258.36 64.34
5277 119.0635 4221.00 4255.96 64.97
5278 119.0840 4077.00 4253.32 63.85
5279 119.1045 4213.00 4250.55 64.91
5280 119.1250 4254.00 4247.45 65.22
5281 119.1454 4104.00 4244.40 64.06
5282 119.1659 3993.00 4241.19 63.19
5283 119.1864 4119.00 4237.84 64.18
5284 119.2069 4133.00 4234.36 64.29
5285 119.2274 4158.00 4230.74 64.48
5286 119.2479 4109.00 4227.05 64.10
5287 119.2684 4281.00 4223.27 65.43
5288 119.2888 4126.00 4219.40 64.23
5289 119.3092 4105.00 4215.46 64.07
5290 119.3297 4214.00 4211.40 64.92
5291 119.3502 4130.00 4207.20 64.27
5292 119.3707 4276.00 4202.60 65.39
5293 119.3912 4244.00 4198.03 65.15
5294 119.4117 4178.00 4193.27 64.64
5295 119.4322 4161.00 4188.16 64.51
5296 119.4526 4290.00 4182.87 65.50
5297 119.4731 4313.00 4177.00 65.67
5298 119.4936 4256.00 4170.69 65.24
5299 119.5141 4173.00 4163.90 64.60
5300 119.5346 4238.00 4156.59 65.10
5301 119.5551 4066.00 4148.98 63.77
5302 119.5756 4167.00 4140.63 64.55
5303 119.5961 4268.00 4131.62 65.33
5304 119.6165 4262.00 4122.33 65.28
5305 119.6370 4195.00 4112.56 64.77
5306 119.6575 4150.00 4102.40 64.42
5307 119.6780 4120.00 4091.94 64.19
5308 119.6985 4111.00 4081.17 64.12
5309 119.7190 4213.00 4070.20 64.91
5310 119.7395 4252.00 4059.07 65.21
5311 119.7600 4098.00 4047.84 64.02
5312 119.7804 4017.00 4036.60 63.38
5313 119.8009 4097.00 4025.26 64.01
5314 119.8214 4137.00 4013.88 64.32
5315 119.8419 4170.00 4002.41 64.58
5316 119.8624 4123.00 3990.96 64.21
5317 119.8828 4010.00 3979.38 63.32
5318 119.9033 4120.00 3967.78 64.19
5319 119.9238 4179.00 3956.00 64.65
5320 119.9442 4107.00 3944.23 64.09
5321 119.9647 4125.00 3932.04 64.23
5322 119.9852 4182.00 3919.79 64.67
5323 120.0057 4202.00 3907.33 64.82
loop_
_pd_proc_info_excluded_regions
'from 5 to 10.941'
loop_
_refln_index_h
_refln_index_k
_refln_index_l
_refln_F_squared_calc
_refln_F_squared_meas
_refln_F_squared_sigma
_refln_observed_status
_refln_d_spacing
2 0 0 15137.42 14428.17 291.05 o 5.643597
1 1 0 13535.43 13161.35 264.71 o 5.220526
-1 1 1 10866.00 10964.75 221.13 o 4.422290
1 1 1 1781.81 1094.31 29.31 o 3.546245
-3 1 1 626.00 796.97 19.09 o 3.419057
-2 0 2 43661.70 42237.84 852.16 o 3.348942
3 1 0 14099.40 13502.43 274.16 o 3.170436
0 0 2 270.12 312.03 7.72 o 2.954833
0 2 0 6403.31 7439.45 163.16 o 2.944093
-1 1 2 14860.69 14339.74 291.46 o 2.853163
4 0 0 26143.01 25363.63 514.00 o 2.821798
-4 0 2 3272.39 3071.66 63.08 o 2.810651
-3 1 2 1221.00 881.49 19.39 o 2.785655
0 2 1 5709.68 4520.93 98.71 o 2.635190
2 2 0 75.75 50.09 1.21 o 2.610263
-2 2 1 3194.84 2028.27 46.81 o 2.608047
3 1 1 5102.99 5119.39 119.75 o 2.420411
1 1 2 6725.42 4803.38 113.89 o 2.359581
-5 1 1 309.86 222.66 5.74 o 2.339237
-5 1 2 9938.19 9013.90 190.00 o 2.249104
2 0 2 2192.68 2439.64 50.10 o 2.221132
2 2 1 21992.44 24384.29 493.78 o 2.215202
-2 2 2 12777.69 14139.10 286.11 o 2.211145
-4 2 1 13140.67 14679.45 305.03 o 2.167650
5 1 0 24811.48 28640.25 580.54 o 2.107839
-6 0 2 17085.66 19066.59 386.09 o 2.099788
-3 1 3 14714.04 15939.15 323.42 o 2.087598
0 2 2 4108.80 4358.13 88.68 o 2.085575
4 2 0 633.28 474.05 18.36 o 2.037175
-4 2 2 1429.31 1043.33 41.52 o 2.032969
-1 1 3 2917.84 2267.09 93.53 o 1.992770
1 3 0 397.85 413.63 9.75 o 1.933711
-5 1 3 8650.87 9011.67 208.58 o 1.924873
-1 3 1 20617.25 22440.09 463.63 o 1.883525
6 0 0 10903.96 11798.73 244.18 o 1.881199
3 1 2 12879.60 11463.52 261.63 o 1.828267
1 3 1 8859.78 8357.40 184.68 o 1.795302
-3 3 1 14941.01 14708.17 305.53 o 1.778117
2 2 2 2280.64 2261.39 46.99 o 1.773123
-2 2 3 9711.58 9694.52 201.27 o 1.769655
5 1 1 3534.74 3780.94 77.97 o 1.755015
4 2 1 10277.00 11437.98 234.89 o 1.750456
-4 2 3 5959.78 6692.51 137.64 o 1.745127
-7 1 2 14952.27 16774.15 344.08 o 1.742620
3 3 0 3767.44 4224.11 86.57 o 1.740175
1 1 3 4539.48 4591.30 100.48 o 1.722681
-6 2 1 6544.40 6279.98 140.47 o 1.711402
-6 2 2 3942.12 3784.26 84.80 o 1.709528
-7 1 1 53.82 51.69 1.33 o 1.708103
-1 3 2 1250.99 1255.95 29.51 o 1.681720
4 0 2 6885.80 6913.06 163.24 o 1.681545
-4 0 4 19123.57 19352.10 451.61 o 1.674471
-3 3 2 34.77 34.11 0.82 o 1.667570
0 2 3 16702.60 16164.86 348.01 o 1.637207
-7 1 3 5457.69 5280.51 113.65 o 1.637089
-2 0 4 6560.18 6305.10 136.25 o 1.630827
-3 1 4 14204.25 13416.89 308.98 o 1.606816
-8 0 2 3734.63 3489.67 80.80 o 1.601663
6 2 0 1294.58 1231.84 26.85 o 1.585218
-5 1 4 937.64 884.93 19.63 o 1.582385
-6 0 4 6241.19 5866.00 127.90 o 1.580939
-6 2 3 12012.75 11290.62 245.43 o 1.580764
3 3 1 5359.70 5014.05 109.47 o 1.578305
1 3 2 368.02 332.22 8.13 o 1.561068
7 1 0 3612.95 3268.24 82.72 o 1.555197
-5 3 1 6904.54 6245.78 157.82 o 1.555133
-5 3 2 147.76 114.47 11.27 o 1.527777
-1 1 4 7453.38 6931.52 241.97 o 1.510892
5 3 0 27.28 26.59 0.66 o 1.481171
0 0 4 7591.75 7416.55 178.37 o 1.477417
-3 3 3 10574.22 10366.32 245.96 o 1.474097
0 4 0 3849.63 3808.40 89.46 o 1.472047
4 2 2 6527.88 6441.92 150.77 o 1.460159
-4 2 4 2181.72 2166.92 51.60 o 1.455521
-7 1 4 7563.58 7567.29 180.00 o 1.452151
5 1 2 2619.00 2732.43 65.85 o 1.441084
-1 3 3 3446.11 3678.85 87.95 o 1.439543
3 1 3 1745.13 1865.21 42.96 o 1.436042
2 2 3 6476.57 6774.19 151.31 o 1.429124
0 4 1 3621.27 3778.67 84.51 o 1.428400
-2 2 4 1331.08 1372.89 30.68 o 1.426582
2 4 0 3056.51 3109.43 69.26 o 1.424390
-2 4 1 4764.13 4818.91 107.32 o 1.424030
-5 3 3 8842.75 8753.76 194.94 o 1.413312
8 0 0 11084.86 10945.22 245.61 o 1.410899
-8 2 2 383.45 383.29 8.72 o 1.406937
-8 0 4 9460.27 9536.44 214.37 o 1.405326
6 2 1 7879.58 8093.74 192.52 o 1.397912
-6 2 4 1467.02 1558.87 39.23 o 1.392828
-9 1 2 4061.84 4727.80 128.91 o 1.381829
3 3 2 951.12 1066.23 24.72 o 1.373717
-8 2 1 5848.20 6432.77 146.71 o 1.369965
-8 2 3 9467.78 10581.40 238.54 o 1.367406
-9 1 3 2351.72 2667.95 59.62 o 1.361900
7 1 1 7093.41 8029.73 178.79 o 1.359025
2 4 1 7446.17 7995.52 176.82 o 1.348524
-2 4 2 4255.82 4560.10 100.60 o 1.347607
1 1 4 6829.62 7251.18 160.12 o 1.346448
5 3 1 4642.41 4818.08 106.53 o 1.341817
-4 4 1 8625.24 8828.07 196.27 o 1.337575
-7 3 2 148.55 151.91 3.39 o 1.336253
-9 1 1 1591.22 1666.07 38.60 o 1.329748
6 0 2 5855.89 6057.84 142.92 o 1.327551
1 3 3 5588.80 5764.07 136.42 o 1.327200
-7 3 1 6350.96 6525.58 162.67 o 1.320499
0 2 4 3.68 3.79 0.18 o 1.320477
0 4 2 1503.26 1516.72 39.37 o 1.317595
-5 1 5 1495.96 1443.54 46.80 o 1.306200
4 4 0 1458.17 1388.71 46.04 o 1.305131
-4 4 2 4288.23 4120.69 138.18 o 1.304023
-3 1 5 6.46 4.55 0.26 o 1.288374
2 0 4 14935.80 10366.00 334.47 o 1.287706
-7 3 3 3500.86 2418.45 77.09 o 1.286853
-9 1 4 5523.80 3643.64 106.10 o 1.278425
-10 0 2 11892.22 7549.09 233.92 o 1.274512
8 2 0 739.01 467.13 14.96 o 1.272340
-3 3 4 6.59 4.18 0.14 o 1.271993
-8 2 4 3555.55 2246.68 77.45 o 1.268248
-5 3 4 214.26 125.09 8.05 o 1.259769
-7 1 5 1025.63 581.42 51.76 o 1.257316
7 3 0 1321.89 1252.58 131.68 o 1.245920
2 4 2 2915.81 2732.92 77.07 o 1.227033
9 1 0 3039.27 2845.60 80.02 o 1.226618
-2 4 3 1582.91 1485.60 41.24 o 1.225882
-1 3 4 1068.85 994.68 26.49 o 1.222788
4 2 3 3771.33 3507.25 93.78 o 1.222640
4 4 1 3394.40 3128.75 83.09 o 1.219446
-4 2 5 4344.12 3988.56 106.03 o 1.219008
-4 4 3 1624.14 1479.77 39.74 o 1.217640
-10 0 4 582.12 525.81 14.64 o 1.216817
-1 1 5 986.67 898.46 24.54 o 1.211281
6 2 2 1228.08 1133.23 31.20 o 1.210205
-6 4 1 7435.44 7081.15 205.30 o 1.206011
-6 2 5 1717.15 1638.33 48.09 o 1.205588
-6 4 2 1084.03 1033.98 30.31 o 1.205355
5 1 3 2929.81 2896.65 90.33 o 1.198956
-7 3 4 0.62 0.71 0.04 o 1.191018
5 3 2 16.32 14.36 0.44 o 1.184889
3 3 3 5154.83 4481.81 126.39 o 1.182082
2 2 4 2027.87 1763.57 47.26 o 1.179790
0 4 3 5211.17 4548.51 120.79 o 1.179178
-2 2 5 5527.46 4844.06 125.79 o 1.177951
7 1 2 1740.89 1555.21 38.88 o 1.173084
3 1 4 4241.37 3814.76 95.02 o 1.172078
1 5 0 1383.05 1244.76 31.52 o 1.171280
-10 2 2 906.87 823.64 21.03 o 1.169618
-10 2 3 9178.21 8453.88 217.21 o 1.168621
-9 1 5 1085.53 1117.54 32.59 o 1.161041
-1 5 1 194.47 205.13 6.41 o 1.159846
6 4 0 854.61 920.03 29.20 o 1.159303
-6 4 3 1589.91 1785.71 62.78 o 1.157557
-9 3 2 1217.52 1492.19 50.81 o 1.151288
8 2 1 2786.98 3023.72 87.75 o 1.147160
-8 2 5 3133.63 3292.71 84.23 o 1.142666
-11 1 3 2901.48 2997.79 75.26 o 1.141112
-9 3 3 2977.59 3044.70 76.01 o 1.139686
1 5 1 1835.93 1849.91 45.60 o 1.138318
7 3 1 8563.46 8620.11 212.62 o 1.137999
-3 5 1 2509.29 2590.87 62.66 o 1.133899
-11 1 2 3648.53 3854.56 93.53 o 1.131615
1 3 4 121.09 129.36 3.12 o 1.130584
10 0 0 8179.79 8907.78 216.69 o 1.128719
-10 2 1 745.55 828.33 20.58 o 1.127223
-10 2 4 518.39 597.58 14.53 o 1.124552
3 5 0 5816.83 6747.16 163.09 o 1.123871
-9 3 1 9724.11 11608.61 280.84 o 1.120643
-6 0 6 7415.56 8598.60 205.89 o 1.116314
4 0 4 9629.08 9612.42 224.05 o 1.110566
-11 1 4 3779.20 3719.48 86.78 o 1.109543
-1 5 2 4178.50 4087.01 95.08 o 1.107651
4 4 2 750.50 734.07 17.19 o 1.107601
-4 0 6 4285.02 4190.04 97.50 o 1.107164
-5 3 5 8355.90 8135.52 188.57 o 1.106440
-4 4 4 3170.88 3077.28 71.22 o 1.105572
9 1 1 2440.60 2334.09 53.88 o 1.103647
-3 5 2 4278.02 4091.32 94.66 o 1.103579
1 1 5 569.77 537.80 12.56 o 1.101974
-5 1 6 7132.56 6693.20 162.45 o 1.097563
0 2 5 2713.39 2546.20 63.16 o 1.096845
-3 3 5 3063.67 2905.27 74.01 o 1.095542
2 4 3 2921.91 2795.08 73.44 o 1.093870
-2 4 4 289.06 276.03 7.57 o 1.092729
-9 3 4 77.16 73.65 2.04 o 1.089406
8 0 2 5024.93 4793.37 134.61 o 1.088528
-7 1 6 1255.56 1202.67 35.24 o 1.085804
-11 1 1 757.88 712.40 20.61 o 1.083936
-8 4 2 1270.38 1194.70 34.29 o 1.083825
-8 0 6 8152.01 7667.07 217.84 o 1.083415
6 4 1 1763.83 1596.28 43.26 o 1.079683
-6 4 4 2667.09 2352.52 61.23 o 1.077335
3 5 1 145.73 127.68 3.34 o 1.076501
-7 3 5 7738.65 6737.83 173.00 o 1.076255
1 5 2 11122.41 9487.16 235.70 o 1.070983
-3 1 6 4441.79 3823.98 95.24 o 1.069145
-5 5 1 153.71 132.68 3.37 o 1.069061
-8 4 1 5258.46 4581.86 115.02 o 1.066650
-8 4 3 2759.25 2420.57 61.20 o 1.065441
-5 5 2 5798.40 5478.64 146.62 o 1.060049
-2 0 6 3803.18 3670.25 99.28 o 1.058869
9 3 0 104.13 102.49 2.75 o 1.056812
10 2 0 2434.02 2344.97 61.40 o 1.053919
-12 0 2 9880.86 9296.96 241.49 o 1.051631
-10 2 5 3418.68 3196.83 82.80 o 1.050287
-12 0 4 4722.08 4407.64 114.13 o 1.049894
6 2 3 2079.50 1937.27 49.85 o 1.047651
-1 3 5 6150.37 5743.60 146.36 o 1.046956
-11 1 5 581.70 540.45 13.82 o 1.046057
5 5 0 2672.39 2405.41 61.40 o 1.044105
-6 2 6 281.97 252.95 6.51 o 1.043799
0 4 4 2844.29 2531.32 64.68 o 1.042788
-3 5 3 137.65 121.97 3.22 o 1.041618
4 2 4 145.59 129.41 3.60 o 1.039096
5 3 3 8395.31 7477.87 203.09 o 1.038966
-9 1 6 5256.07 4738.11 132.24 o 1.037470
-4 2 6 1250.22 1126.62 32.42 o 1.036307
-1 5 3 878.37 908.02 35.69 o 1.029210
7 3 2 73.19 64.36 2.05 o 1.021995
3 3 4 217.58 190.44 5.94 o 1.021330
8 2 2 2295.25 1993.98 61.57 o 1.020978
-5 5 3 1505.40 1306.57 39.03 o 1.019495
8 4 0 3755.41 3283.33 96.21 o 1.018588
-10 0 6 8778.58 7689.01 224.69 o 1.018389
5 1 4 1889.02 1685.84 48.30 o 1.016894
-8 2 6 727.27 650.36 18.54 o 1.016755
-8 4 4 1001.82 894.44 25.47 o 1.016484
7 1 3 401.80 360.73 10.29 o 1.015771
-9 3 5 4552.76 4107.75 114.91 o 1.014003
11 1 0 4356.10 3976.42 113.40 o 1.010874
-1 1 6 1965.92 1865.40 54.32 o 1.008946
3 5 2 4786.82 4943.23 148.38 o 1.004329
-12 2 3 1521.57 1561.05 47.71 o 1.003795
-11 3 3 4510.33 4579.60 143.75 o 1.000646
2 2 5 1961.01 1972.42 60.93 o 0.997745
-2 2 6 212.28 213.61 6.45 o 0.996385
-11 3 2 83.79 81.87 2.32 o 0.994223
4 4 3 1894.24 1821.21 50.63 o 0.992546
5 5 1 644.29 610.21 16.57 o 0.991659
-4 4 5 3861.76 3652.35 96.94 o 0.990599
-12 2 2 1115.98 1051.77 27.77 o 0.990347
-7 5 2 3815.02 3588.24 93.03 o 0.989407
-12 2 4 2164.38 2048.31 52.56 o 0.988896
3 1 5 1612.17 1537.42 38.60 o 0.986190
6 4 2 4407.19 4204.11 105.30 o 0.985858
1 5 3 247.17 235.87 5.97 o 0.985714
0 0 6 5083.31 4851.94 121.87 o 0.984944
-6 4 5 3862.78 3747.72 94.69 o 0.983357
9 1 2 5646.14 5490.45 138.60 o 0.983126
-7 5 1 1026.01 997.77 25.22 o 0.982960
0 6 0 3013.77 3013.67 77.34 o 0.981365
-11 3 4 141.17 145.56 3.76 o 0.979154
9 3 1 2914.85 3205.14 86.36 o 0.975095
1 3 5 4669.44 5036.88 134.11 o 0.973940
-13 1 3 1816.60 1850.63 46.39 o 0.971478
-5 3 6 45.10 45.40 1.13 o 0.970891
2 4 4 482.78 470.25 11.48 o 0.969207
-7 5 3 43.12 41.71 1.06 o 0.968843
-2 4 5 5441.67 5209.41 124.05 o 0.968186
0 6 1 228.81 218.70 5.20 o 0.968107
2 6 0 4654.31 4407.47 104.28 o 0.966856
-2 6 1 103.53 97.97 2.32 o 0.966743
10 2 1 6079.04 5733.00 135.18 o 0.966353
-11 1 6 2593.78 2450.12 57.81 o 0.965503
-13 1 4 2113.28 1991.22 47.03 o 0.964253
-10 4 2 2142.19 2018.05 47.50 o 0.963543
-10 4 3 2126.49 1997.88 47.24 o 0.962986
-7 3 6 291.13 273.80 6.44 o 0.962723
-3 5 4 2302.87 2166.36 51.36 o 0.962454
-10 2 6 690.14 649.23 15.37 o 0.962436
6 0 4 4560.09 4295.03 101.83 o 0.961665
-11 3 1 5042.19 4761.13 112.80 o 0.961420
-5 5 4 2936.00 2913.70 71.89 o 0.957126
-13 1 2 2891.05 3007.37 76.83 o 0.953069
-12 2 1 3573.65 3727.85 96.12 o 0.951737
-3 3 6 67.45 70.54 1.82 o 0.951054
7 5 0 3651.52 3811.55 98.65 o 0.951009
8 4 1 1117.39 1164.04 30.36 o 0.950871
-12 2 5 5159.66 5363.97 138.51 o 0.949166
-8 4 5 2266.16 2317.33 59.97 o 0.948307
-7 1 7 1911.10 1743.24 45.24 o 0.944452
2 6 1 57.30 50.34 1.35 o 0.942075
-2 6 2 4164.53 3653.91 98.11 o 0.941762
-1 5 4 4755.37 4111.62 111.23 o 0.940602
12 0 0 1235.11 1067.91 29.26 o 0.940599
-5 1 7 693.28 592.52 16.17 o 0.940141
-10 4 1 2487.85 2119.10 57.63 o 0.939424
-4 6 1 405.47 341.18 9.19 o 0.938319
-10 4 4 1306.00 1098.34 29.66 o 0.937876
-12 0 6 2289.23 1907.31 51.41 o 0.936884
-11 3 5 2839.79 2373.21 63.34 o 0.934693
0 2 6 1976.30 1666.72 44.27 o 0.934059
-13 1 5 1015.53 868.79 23.00 o 0.933022
1 1 6 2712.80 2381.07 62.11 o 0.931433
0 6 2 4514.33 3960.74 103.16 o 0.931342
-9 3 6 82.01 72.99 1.86 o 0.928552
11 1 1 1459.79 1321.42 33.67 o 0.927140
4 6 0 1439.21 1309.47 33.68 o 0.926909
-4 6 2 6318.30 5759.71 146.57 o 0.926512
-7 5 4 3009.02 2767.53 70.72 o 0.925909
-9 1 7 1228.38 1175.89 30.72 o 0.923090
5 5 2 3963.05 3795.41 99.09 o 0.923021
3 5 3 602.87 582.99 15.47 o 0.921692
0 4 5 3135.50 3035.84 80.73 o 0.921621
10 0 2 1829.95 1835.06 51.28 o 0.919291
6 2 4 441.51 481.88 13.89 o 0.914134
5 3 4 276.62 303.38 8.64 o 0.913712
-13 1 1 450.06 492.65 14.07 o 0.913060
7 3 3 2889.40 3165.96 89.83 o 0.912897
-14 0 4 3559.70 3842.38 107.97 o 0.912173
-3 1 7 2347.26 2484.05 68.96 o 0.911166
-6 2 7 4810.09 5090.27 141.30 o 0.911005
11 3 0 94.69 98.94 2.70 o 0.909337
-1 3 6 30.30 31.23 0.85 o 0.907933
-9 5 2 4054.59 4119.53 112.48 o 0.906869
8 2 3 3860.44 3922.27 107.08 o 0.906834
-8 2 7 2070.64 2005.83 55.99 o 0.903135
-9 5 3 701.27 651.15 17.90 o 0.901166
2 0 6 3728.52 3378.25 93.17 o 0.900753
7 5 1 505.88 455.72 12.53 o 0.900331
4 2 5 2211.67 1965.87 51.68 o 0.897797
2 6 2 2781.37 2482.48 64.86 o 0.897651
-2 6 3 105.67 95.14 2.45 o 0.897200
1 5 4 1782.43 1626.47 41.51 o 0.896646
12 2 0 277.65 257.31 6.50 o 0.895983
10 4 0 681.49 636.86 15.93 o 0.895715
-4 2 7 3820.99 3581.45 88.89 o 0.895637
4 6 1 110.23 103.89 2.59 o 0.894667
-4 6 3 110.01 103.54 2.58 o 0.893954
-10 4 5 3656.52 3441.38 86.20 o 0.893482
-12 2 6 20.90 19.69 0.57 o 0.892770
-14 0 2 2586.68 2443.41 61.93 o 0.892426
6 4 3 2621.43 2473.59 62.91 o 0.891857
-9 5 1 586.23 552.74 14.09 o 0.891662
3 3 5 5291.02 4997.21 127.88 o 0.891244
-6 4 6 2123.85 2048.19 53.97 o 0.889477
loop_
_restr_angle_atom_site_label_1
_restr_angle_site_symmetry_1
_restr_angle_atom_site_label_2
_restr_angle_site_symmetry_2
_restr_angle_atom_site_label_3
_restr_angle_site_symmetry_3
_restr_angle_target
_restr_angle_target_weight_param
? ? ? ? ? ? ? ?
loop_
_restr_distance_atom_site_label_1
_restr_distance_site_symmetry_1
_restr_distance_atom_site_label_2
_restr_distance_site_symmetry_2
_restr_distance_target
_restr_distance_target_weight_param
? ? ? ? ? ?
loop_
_restr_equal_angle_atom_site_label_1
_restr_equal_angle_site_symmetry_1
_restr_equal_angle_atom_site_label_2
_restr_equal_angle_site_symmetry_2
_restr_equal_angle_atom_site_label_3
_restr_equal_angle_site_symmetry_3
_restr_equal_angle_class_class_id
_restr_equal_angle_class_target_weight_param
? ? ? ? ? ? ? ?
loop_
_restr_equal_distance_atom_site_label_1
_restr_equal_distance_site_symmetry_1
_restr_equal_distance_atom_site_label_2
_restr_equal_distance_site_symmetry_2
_restr_equal_distance_class_class_id
_restr_equal_distance_class_target_weight_param
? ? ? ? ? ?
loop_
_restr_equal_torsion_atom_site_label_1
_restr_equal_torsion_site_symmetry_1
_restr_equal_torsion_atom_site_label_2
_restr_equal_torsion_site_symmetry_2
_restr_equal_torsion_atom_site_label_3
_restr_equal_torsion_site_symmetry_3
_restr_equal_torsion_atom_site_label_4
_restr_equal_torsion_site_symmetry_4
_restr_equal_torsion_class_class_id
_restr_equal_torsion_class_target_weight_param
? ? ? ? ? ? ? ? ? ?
loop_
_restr_torsion_atom_site_label_1
_restr_torsion_site_symmetry_1
_restr_torsion_atom_site_label_2
_restr_torsion_site_symmetry_2
_restr_torsion_atom_site_label_3
_restr_torsion_site_symmetry_3
_restr_torsion_atom_site_label_4
_restr_torsion_site_symmetry_4
_restr_torsion_angle_target
_restr_torsion_weight_param
? ? ? ? ? ? ? ? ? ?
loop_
_jana_atom_site_adp_c_label
_jana_atom_site_adp_c_type_symbol
_jana_atom_site_adp_c_111
_jana_atom_site_adp_c_112
_jana_atom_site_adp_c_113
_jana_atom_site_adp_c_122
_jana_atom_site_adp_c_123
_jana_atom_site_adp_c_133
_jana_atom_site_adp_c_222
_jana_atom_site_adp_c_223
_jana_atom_site_adp_c_233
_jana_atom_site_adp_c_333
? ? ? ? ? ? ? ? ? ? ? ?
loop_
_jana_atom_site_adp_d_label
_jana_atom_site_adp_d_type_symbol
_jana_atom_site_adp_d_1111
_jana_atom_site_adp_d_1112
_jana_atom_site_adp_d_1113
_jana_atom_site_adp_d_1122
_jana_atom_site_adp_d_1123
_jana_atom_site_adp_d_1133
_jana_atom_site_adp_d_1222
_jana_atom_site_adp_d_1223
_jana_atom_site_adp_d_1233
_jana_atom_site_adp_d_1333
_jana_atom_site_adp_d_2222
_jana_atom_site_adp_d_2223
_jana_atom_site_adp_d_2233
_jana_atom_site_adp_d_2333
_jana_atom_site_adp_d_3333
? ? ? ? ? ? ? ? ? ? ? ? ? ? ? ? ?
loop_
_jana_atom_site_adp_e_label
_jana_atom_site_adp_e_type_symbol
_jana_atom_site_adp_e_11111
_jana_atom_site_adp_e_11112
_jana_atom_site_adp_e_11113
_jana_atom_site_adp_e_11122
_jana_atom_site_adp_e_11123
_jana_atom_site_adp_e_11133
_jana_atom_site_adp_e_11222
_jana_atom_site_adp_e_11223
_jana_atom_site_adp_e_11233
_jana_atom_site_adp_e_11333
_jana_atom_site_adp_e_12222
_jana_atom_site_adp_e_12223
_jana_atom_site_adp_e_12233
_jana_atom_site_adp_e_12333
_jana_atom_site_adp_e_13333
_jana_atom_site_adp_e_22222
_jana_atom_site_adp_e_22223
_jana_atom_site_adp_e_22233
_jana_atom_site_adp_e_22333
_jana_atom_site_adp_e_23333
_jana_atom_site_adp_e_33333
? ? ? ? ? ? ? ? ? ? ? ? ? ? ? ? ? ? ? ? ? ? ?
loop_
_jana_atom_site_adp_f_label
_jana_atom_site_adp_f_type_symbol
_jana_atom_site_adp_f_111111
_jana_atom_site_adp_f_111112
_jana_atom_site_adp_f_111113
_jana_atom_site_adp_f_111122
_jana_atom_site_adp_f_111123
_jana_atom_site_adp_f_111133
_jana_atom_site_adp_f_111222
_jana_atom_site_adp_f_111223
_jana_atom_site_adp_f_111233
_jana_atom_site_adp_f_111333
_jana_atom_site_adp_f_112222
_jana_atom_site_adp_f_112223
_jana_atom_site_adp_f_112233
_jana_atom_site_adp_f_112333
_jana_atom_site_adp_f_113333
_jana_atom_site_adp_f_122222
_jana_atom_site_adp_f_122223
_jana_atom_site_adp_f_122233
_jana_atom_site_adp_f_122333
_jana_atom_site_adp_f_123333
_jana_atom_site_adp_f_133333
_jana_atom_site_adp_f_222222
_jana_atom_site_adp_f_222223
_jana_atom_site_adp_f_222233
_jana_atom_site_adp_f_222333
_jana_atom_site_adp_f_223333
_jana_atom_site_adp_f_233333
_jana_atom_site_adp_f_333333
? ? ? ? ? ? ? ? ? ? ? ? ? ? ? ? ? ? ? ? ? ? ? ? ? ? ? ? ? ?
