#------------------------------------------------------------------------------
#$Date: 2019-11-24 23:12:52 +0200 (Sun, 24 Nov 2019) $
#$Revision: 239701 $
#$URL: file:///home/coder/svn-repositories/cod/cif/4/51/70/4517025.cif $
#------------------------------------------------------------------------------
#
# This file is available in the Crystallography Open Database (COD),
# http://www.crystallography.net/
#
# All data on this site have been placed in the public domain by the
# contributors.
#
data_4517025
loop_
_publ_author_name
'Kumalaputri, Angela J.'
'Randolph, Caelan'
'Otten, Edwin'
'Heeres, Hero J.'
'Deuss, Peter J.'
_publ_section_title
;
 Lewis Acid Catalyzed Conversion of 5-Hydroxymethylfurfural to
 1,2,4-Benzenetriol, an Overlooked Biobased Compound.
;
_journal_issue                   3
_journal_name_full               'ACS sustainable chemistry &amp; engineering'
_journal_page_first              3419
_journal_page_last               3425
_journal_paper_doi               10.1021/acssuschemeng.7b03648
_journal_volume                  6
_journal_year                    2018
_chemical_formula_sum            'C12 H14 O8'
_chemical_formula_weight         286.23
_space_group_crystal_system      monoclinic
_space_group_IT_number           13
_space_group_name_Hall           '-P 2yac'
_space_group_name_H-M_alt        'P 1 2/n 1'
_atom_sites_solution_hydrogens   mixed
_audit_creation_method           SHELXL-2014/7
_cell_angle_alpha                90
_cell_angle_beta                 94.163(4)
_cell_angle_gamma                90
_cell_formula_units_Z            2
_cell_length_a                   3.8541(4)
_cell_length_b                   6.0625(5)
_cell_length_c                   24.554(2)
_cell_measurement_reflns_used    5785
_cell_measurement_temperature    100(2)
_cell_measurement_theta_max      27.12
_cell_measurement_theta_min      3.33
_cell_volume                     572.20(9)
_computing_structure_refinement  'SHELXL-2014/7 (Sheldrick, 2014)'
_diffrn_ambient_temperature      100(2)
_diffrn_measured_fraction_theta_full 0.997
_diffrn_measured_fraction_theta_max 0.997
_diffrn_measurement_device_type  'Bruker APEX-II CCD'
_diffrn_measurement_method       '\f and \w scans'
_diffrn_radiation_type           MoK\a
_diffrn_radiation_wavelength     0.71073
_diffrn_reflns_av_R_equivalents  0.0282
_diffrn_reflns_av_unetI/netI     0.0183
_diffrn_reflns_Laue_measured_fraction_full 0.997
_diffrn_reflns_Laue_measured_fraction_max 0.997
_diffrn_reflns_limit_h_max       4
_diffrn_reflns_limit_h_min       -4
_diffrn_reflns_limit_k_max       7
_diffrn_reflns_limit_k_min       -7
_diffrn_reflns_limit_l_max       30
_diffrn_reflns_limit_l_min       -30
_diffrn_reflns_number            9007
_diffrn_reflns_point_group_measured_fraction_full 0.997
_diffrn_reflns_point_group_measured_fraction_max 0.997
_diffrn_reflns_theta_full        25.242
_diffrn_reflns_theta_max         26.372
_diffrn_reflns_theta_min         3.328
_exptl_absorpt_coefficient_mu    0.142
_exptl_absorpt_correction_T_max  0.7455
_exptl_absorpt_correction_T_min  0.6364
_exptl_absorpt_correction_type   multi-scan
_exptl_absorpt_process_details   SADABS
_exptl_crystal_colour            'dark brown'
_exptl_crystal_density_diffrn    1.661
_exptl_crystal_description       needle
_exptl_crystal_F_000             300
_exptl_crystal_size_max          0.71
_exptl_crystal_size_mid          0.14
_exptl_crystal_size_min          0.03
_refine_diff_density_max         0.529
_refine_diff_density_min         -0.666
_refine_diff_density_rms         0.094
_refine_ls_extinction_method     none
_refine_ls_goodness_of_fit_ref   1.039
_refine_ls_hydrogen_treatment    mixed
_refine_ls_matrix_type           full
_refine_ls_number_parameters     110
_refine_ls_number_reflns         1168
_refine_ls_number_restraints     7
_refine_ls_restrained_S_all      1.037
_refine_ls_R_factor_all          0.0712
_refine_ls_R_factor_gt           0.0668
_refine_ls_shift/su_max          0.006
_refine_ls_shift/su_mean         0.000
_refine_ls_structure_factor_coef Fsqd
_refine_ls_weighting_details
'w=1/[\s^2^(Fo^2^)+(0.0640P)^2^+2.9567P] where P=(Fo^2^+2Fc^2^)/3'
_refine_ls_weighting_scheme      calc
_refine_ls_wR_factor_gt          0.1704
_refine_ls_wR_factor_ref         0.1729
_reflns_Friedel_coverage         0.000
_reflns_number_gt                1076
_reflns_number_total             1168
_reflns_threshold_expression     'I > 2\s(I)'
_cod_data_source_file            sc7b03648_si_001.cif
_cod_data_source_block           mo_molan465_0m_a
_cod_original_cell_volume        572.21(9)
_cod_original_sg_symbol_H-M      'P 2/n'
_cod_database_code               4517025
_shelx_shelxl_version_number     2014/7
_shelx_space_group_comment
;
The symmetry employed for this shelxl refinement is uniquely defined
by the following loop, which should always be used as a source of
symmetry information in preference to the above space-group names.
They are only intended as comments.
;
_shelx_res_file
;

    mo_molan465_0m_a.res created by SHELXL-2014/7


TITL mo_molan465_0m_a.res in P2/n
REM Old TITL mo_molan465_0m in P2/n

REM SHELXT solution in P2/n
REM R1 0.106,  Rweak 0.007,  Alpha 0.025,  Orientation as input
REM Formula found by SHELXT:  C6 O4

CELL  0.71073   3.8541   6.0625  24.5543   90.000   94.163   90.000
ZERR    2.000   0.0004   0.0005   0.0024    0.000    0.004    0.000
LATT  1
SYMM 1/2-X, Y, 1/2-Z
SFAC C H O
UNIT 24 28 16
TEMP -173.160
L.S. 10
shel 10 0.80
BOND $H
acta
LIST 4
FMAP 2
PLAN 5
DFIX 0.86 0.01 O1w H1w O1w H2w
DFIX 1.47 0.01 H1W H2W
DFIX 0.84 0.01 O1 H1' O1 H1" O3 H3' O3 H3"
omit -1   1   1
WGHT    0.064000    2.956700
FVAR       1.06890
O1    3    1.032202    0.927799    0.296591    11.00000    0.01367    0.01166 =
         0.01232   -0.00128    0.00371   -0.00536
H1'   2    1.156909    0.891620    0.271312    10.50000   -1.50000
H1"   2    1.111198    0.999016    0.323971    10.50000   -1.50000
O2    3    0.584107    0.532979    0.446285    11.00000    0.01975    0.01619 =
         0.00768   -0.00060    0.00293   -0.00576
AFIX 147
H2    2    0.674995    0.639289    0.464021    11.00000   -1.50000
AFIX   0
O3    3    0.368410    0.203976    0.378810    11.00000    0.01792    0.01239 =
         0.01219    0.00029    0.00440   -0.00533
H3'   2    0.295921    0.221728    0.409943    10.50000   -1.50000
H3"   2    0.322955    0.121566    0.351820    10.50000   -1.50000

C1    1    0.727135    0.583776    0.279754    11.00000    0.00609    0.01132 =
         0.00945    0.00067    0.00017    0.00105
C2    1    0.851938    0.749989    0.315423    11.00000    0.00586    0.00784 =
         0.01331    0.00094    0.00037    0.00084
C3    1    0.805390    0.737516    0.371157    11.00000    0.00862    0.00931 =
         0.01189   -0.00089   -0.00051    0.00009
AFIX  43
H3    2    0.887363    0.853243    0.394802    11.00000   -1.20000
AFIX   0
C4    1    0.639952    0.556821    0.392107    11.00000    0.00975    0.01104 =
         0.00899    0.00025    0.00181    0.00228
C5    1    0.524449    0.385205    0.357391    11.00000    0.00732    0.00826 =
         0.01280    0.00113    0.00051   -0.00065
C6    1    0.571517    0.400273    0.302527    11.00000    0.00718    0.00756 =
         0.01144   -0.00211   -0.00089   -0.00139
AFIX  43
H6    2    0.495697    0.281905    0.279260    11.00000   -1.20000
AFIX   0
O1W   3    0.930402    0.800743    0.520554    11.00000    0.02240    0.01979 =
         0.01614   -0.00098    0.00416   -0.00299
H1W   2    0.744736    0.882833    0.514925    11.00000   -1.50000
H2W   2    0.966196    0.709565    0.494391    11.00000   -1.50000
HKLF 4

REM  mo_molan465_0m_a.res in P2/n
REM R1 =  0.0668 for    1076 Fo > 4sig(Fo)  and  0.0712 for all    1168 data
REM    110 parameters refined using      7 restraints

END

WGHT      0.0495      2.5924

REM Highest difference peak  0.529,  deepest hole -0.666,  1-sigma level  0.094
Q1    1   1.1426  0.7181  0.5283  11.00000  0.05    0.53
Q2    1   0.7500  0.5840  0.2500  10.50000  0.05    0.36
Q3    1  -0.0143  0.2276  0.3990  11.00000  0.05    0.33
Q4    1   0.9896  0.9717  0.5023  11.00000  0.05    0.32
Q5    1   0.6998  1.0476  0.5244  11.00000  0.05    0.31
;
_shelx_res_checksum              90867
_shelx_hkl_file
;
   1   0   0   -0.80    1.30
   1   0   0   -2.20    1.30
   1   0   0   -3.00    1.20
  -1   0   0   -2.50    1.20
  -1   0   0   -2.00    1.20
  -1   0   0   -0.40    1.30
   2   0   0  766.82   26.10
  -2   0   0  754.82   26.10
  -2   0   0  737.43   26.70
   2   0   0  761.52   25.90
  -2   0   0  747.63   25.90
   2   0   0  763.62   26.10
   3   0   0   -1.90    2.90
  -3   0   0    2.80    3.10
  -3   0   0   -3.90    3.00
   3   0   0    3.50    2.80
   3   0   0    0.30    3.20
   4   0   0   52.09    8.10
   4   0   0   52.39    7.10
  -4   0   0   60.89    7.40
   4   0   0   59.19    7.00
   0  -1   0 2653.83   85.59
   0  -1   0 2461.85   85.39
   0   1   0 2688.33   85.59
   0   1   0 2602.04   85.49
   0   1   0 2615.24   85.59
   1  -1   0 5228.48  170.68
  -1  -1   0 5263.47  170.38
   1  -1   0 5120.59  170.68
  -1  -1   0 5262.17  170.38
  -1  -1   0 5207.38  170.68
   1  -1   0 5134.69  170.18
   1   1   0 5190.08  170.38
  -1   1   0 5205.08  170.68
   1   1   0 5188.38  170.28
   1   1   0 5177.68  170.68
  -1   1   0 5097.79  170.58
   2  -1   0   65.89    4.00
  -2  -1   0   74.49    4.70
   2  -1   0   74.49    4.70
   2  -1   0   71.99    4.70
  -2  -1   0   71.79    4.40
  -2   1   0   71.29    5.30
   2   1   0   73.29    4.30
   2   1   0   74.09    4.80
   2   1   0   83.89    4.20
  -2   1   0   76.39    4.60
  -3  -1   0   23.70    3.80
   3  -1   0   20.90    4.20
   3  -1   0   20.10    3.70
  -3  -1   0   25.80    4.00
  -3  -1   0   23.40    3.60
   3  -1   0   24.40    3.40
  -3   1   0   18.10    4.20
   3   1   0   26.70    4.10
   3   1   0   26.60    3.60
   3   1   0   28.30    4.40
  -3   1   0   32.00    4.70
   4  -1   0   18.80    5.80
   4  -1   0    5.40    5.10
   4  -1   0   10.40    4.90
  -4  -1   0   18.50    5.40
   4   1   0   13.00    4.70
   4   1   0   10.50    5.20
   4   1   0    7.90    5.60
  -4   1   0   14.30    5.10
   0  -2   0  133.89    4.80
   0  -2   0  133.59    5.30
   0  -2   0  130.39    4.80
   0   2   0  139.89    4.70
   0   2   0  132.59    4.90
   0   2   0  132.29    5.10
   1  -2   0   35.70    2.90
   1  -2   0   34.20    3.20
  -1  -2   0   43.90    3.50
  -1   2   0   43.40    2.80
  -1   2   0   37.40    3.10
   1   2   0   44.00    2.30
   1   2   0   47.20    3.40
  -2  -2   0  366.46   12.50
   2  -2   0  336.77   12.00
   2  -2   0  335.67   13.30
  -2  -2   0  340.27   12.70
   2  -2   0  340.77   13.20
  -2  -2   0  359.16   13.40
   2   2   0  353.46   13.30
  -2   2   0  337.07   13.00
  -2   2   0  330.67   14.10
   2   2   0  359.06   12.60
   2   2   0  345.57   12.30
   3  -2   0  222.28    8.80
  -3  -2   0  221.08   10.30
   3  -2   0  206.08   10.40
  -3  -2   0  214.28    9.50
   3  -2   0  211.38   10.00
  -3  -2   0  216.98    9.80
  -3   2   0  202.08   10.40
   3   2   0  210.78    9.30
  -3   2   0  214.58    9.80
   3   2   0  211.28    9.10
   3   2   0  206.08   10.60
   4  -2   0   85.49    8.90
   4  -2   0   80.29    7.50
  -4  -2   0   61.39    9.00
  -4  -2   0   63.79    8.90
  -4   2   0   74.49    8.60
   4   2   0   74.39    8.00
   4   2   0   91.89    7.50
   0  -3   0 1135.19   37.70
   0  -3   0 1108.69   37.20
   0  -3   0 1146.99   37.30
   0   3   0 1049.09   36.90
   0   3   0 1116.69   37.10
   0   3   0 1143.79   37.40
   0   3   0 1151.08   37.60
  -1  -3   0  315.87   10.50
  -1  -3   0  322.97   12.10
   1  -3   0  305.37   11.70
   1  -3   0  282.07   10.90
   1  -3   0  311.57   11.40
  -1   3   0  305.07   11.10
  -1   3   0  310.77   11.60
   1   3   0  317.47   10.70
   1   3   0  322.27   10.50
   2  -3   0   15.30    2.20
   2  -3   0   14.00    3.10
  -2  -3   0   19.80    2.50
  -2  -3   0   15.80    3.30
   2  -3   0    6.50    3.20
  -2  -3   0   14.70    2.70
  -2   3   0   10.50    2.50
   2   3   0   13.50    3.40
   2   3   0   18.10    1.90
   2   3   0   13.50    2.30
  -3  -3   0  335.47   13.40
   3  -3   0  336.47   13.90
  -3  -3   0  313.17   14.40
   3  -3   0  323.57   14.50
   3  -3   0  309.37   12.60
  -3  -3   0  316.17   12.50
  -3   3   0  336.97   14.30
  -3   3   0  331.77   13.60
   3   3   0  326.57   12.70
   3   3   0  299.47   12.10
  -4  -3   0  166.88   13.10
  -4  -3   0  174.38   12.00
   4  -3   0  186.58   12.10
   4   3   0  169.58   10.10
  -4   3   0  185.78   11.60
   0  -4   0  183.28    6.60
   0  -4   0  177.48    7.80
   0  -4   0  180.78    7.60
   0   4   0  184.28    7.10
   0   4   0  185.28    6.40
   1  -4   0  900.21   30.30
   1  -4   0  895.71   29.40
  -1  -4   0  874.61   30.60
  -1  -4   0  834.42   29.30
   1  -4   0  867.81   29.90
  -1   4   0  853.91   29.60
   1   4   0  869.31   29.10
   1   4   0  869.01   29.10
   1   4   0  879.71   30.40
  -1   4   0  900.61   30.20
  -2  -4   0  165.38    6.10
   2  -4   0  161.38    8.20
  -2  -4   0  148.69    8.80
   2  -4   0  146.99    8.60
   2  -4   0  149.69    5.70
  -2  -4   0  137.89    7.10
  -2   4   0  167.38    8.50
   2   4   0  162.08    5.70
   2   4   0  153.48    6.50
   2   4   0  143.99    9.00
  -2   4   0  153.88    7.40
  -3  -4   0  168.28    8.50
   3  -4   0  217.18   12.20
  -3  -4   0  191.08   10.00
  -3  -4   0  209.38   12.20
   3  -4   0  198.28    8.70
   3   4   0  204.08    9.70
  -3   4   0  225.88   10.40
  -3   4   0  217.58   11.60
   3   4   0  195.28    7.80
   4  -4   0  189.68   13.60
  -4  -4   0  168.38   14.80
   4   4   0  141.29    9.70
  -4   4   0  201.48   12.20
   0  -5   0  816.42   27.90
   0  -5   0  775.32   26.50
   0  -5   0  813.32   27.30
   0   5   0  749.82   26.30
   0   5   0  790.82   27.00
  -1  -5   0  487.55   16.80
  -1  -5   0  480.35   16.90
   1  -5   0  519.65   17.50
  -1  -5   0  503.25   18.90
   1  -5   0  525.05   18.60
   1  -5   0  476.35   17.60
   1   5   0  440.56   17.10
   1   5   0  474.15   18.40
  -1   5   0  481.75   17.10
  -1   5   0  506.25   18.10
  -2  -5   0   13.30    5.40
  -2  -5   0    9.80    1.90
   2  -5   0    8.70    4.20
  -2  -5   0    8.40    3.70
   2   5   0   14.20    5.80
  -2   5   0   10.20    4.80
  -2   5   0   13.00    3.20
   3  -5   0    2.80    2.70
  -3  -5   0   27.10    8.10
   3  -5   0   14.90    6.00
  -3   5   0   11.40    6.70
  -3   5   0   10.50    4.90
   3   5   0   10.50    3.90
   0  -6   0  871.01   30.90
   0  -6   0  897.21   31.70
   0  -6   0  880.91   29.70
   0   6   0  889.71   30.10
   0   6   0  865.41   29.50
  -1  -6   0   48.00    4.10
   1  -6   0   41.70    4.60
   1  -6   0   36.90    4.90
  -1  -6   0   49.60    7.10
  -1  -6   0   42.50    5.40
  -1   6   0   41.60    6.30
   1   6   0   43.10    4.30
  -1   6   0   46.80    3.50
  -2  -6   0   11.50    7.70
   2  -6   0    9.60    5.10
  -2  -6   0   10.50    3.40
   2   6   0   12.40    5.40
  -2   6   0   13.40    6.00
  -2   6   0    7.10    3.60
  -3  -6   0   21.70    9.70
   3  -6   0   22.90    7.40
  -3   6   0   20.20    5.50
   0  -7   0   47.30    8.40
   0   7   0   35.40    3.30
  -1  -7   0   13.90    9.60
  -1   7   0   32.40    3.50
  -2  -7   0  181.78   17.10
  -2   7   0  168.98    9.00
   4   0  -1   14.70    4.60
   4   0  -1   17.60    5.50
  -4   0   1   23.20    5.40
   4   0  -1   22.80    6.00
  -3   0   1    5.20    3.20
   3   0  -1    4.10    2.80
   3   0  -1    4.30    3.20
  -3   0   1    2.10    3.10
   3   0  -1    2.40    3.10
   2   0  -1   -1.60    1.90
   2   0  -1    1.70    1.90
  -2   0   1    0.90    2.00
  -2   0   1   -0.20    2.40
   2   0  -1   -2.70    1.90
  -2   0   1   -1.90    1.70
  -1   0   1  746.53   26.80
   1   0  -1  790.72   26.50
  -1   0   1  784.32   26.50
   1   0  -1  812.82   26.60
  -1   0   1  809.42   26.60
   1   0  -1  811.52   26.60
  -1   0  -1 4465.95  146.09
   1   0   1 4485.85  145.99
  -1   0  -1 4350.76  146.09
  -1   0  -1 4481.55  145.99
   1   0   1 4495.65  146.09
   1   0   1 4372.76  146.09
   2   0   1   -2.60    1.90
   2   0   1   -1.80    1.90
   2   0   1   -1.80    1.90
  -2   0  -1    1.00    1.70
  -2   0  -1   -1.60    1.90
   3   0   1   63.49    5.30
  -3   0  -1   71.59    5.70
  -3   0  -1   63.79    5.00
  -3   0  -1   61.09    5.70
   3   0   1   58.79    5.50
   3   0   1   69.49    5.70
   4   0   1    4.00    4.50
   4   0   1    9.80    5.60
   4   0   1   12.40    5.30
  -4  -1   1    1.40    5.30
   4  -1  -1   -4.00    5.50
   4  -1  -1   14.80    5.00
   4  -1  -1   12.30    5.00
  -4   1   1    4.00    5.10
   4   1  -1   -6.10    5.40
   4   1  -1    9.80    5.20
   4   1  -1    1.90    4.40
  -3  -1   1  132.19    7.30
  -3  -1   1  128.19    7.30
  -3  -1   1  130.49    7.20
   3  -1  -1  130.39    7.30
   3  -1  -1  136.39    7.60
   3  -1  -1  124.89    7.70
   3   1  -1  124.59    7.80
   3   1  -1  133.09    6.80
  -3   1   1  129.99    7.80
   3   1  -1  125.19    7.00
  -3   1   1  130.09    7.20
   2  -1  -1  560.74   19.40
   2  -1  -1  546.25   18.80
   2  -1  -1  550.64   19.40
  -2  -1   1  542.85   19.10
  -2  -1   1  536.75   19.40
   2   1  -1  534.25   19.40
  -2   1   1  539.45   20.10
   2   1  -1  550.94   19.00
  -2   1   1  541.95   19.30
   2   1  -1  543.85   19.10
   1  -1  -1  290.37   10.20
   1  -1  -1  288.27   10.20
  -1  -1   1  252.27    9.80
  -1  -1   1  281.27    9.80
  -1   1   1  287.77   10.20
  -1   1   1  262.87   10.10
   1   1  -1  283.37   10.30
   0  -1   1  254.77    9.00
   0  -1  -1  279.07    9.00
   0  -1  -1  270.07    9.00
   0  -1  -1  258.97    9.10
   0   1  -1  262.67    8.90
   0   1  -1  257.17    8.90
   0   1   1  269.97    8.90
   0   1  -1  261.47    9.20
   0   1   1  271.97    9.00
   0   1   1  298.37    9.00
   1  -1   1 9424.76  313.87
  -1  -1  -1 9931.01  313.87
   1  -1   1 9610.24  313.17
  -1  -1  -1 9624.54  313.77
  -1  -1  -1 9202.28  313.47
   1  -1   1 9529.55  314.07
   1   1   1 9052.69  313.47
  -1   1  -1 9598.74  314.27
   1   1   1 9486.15  313.47
   1   1   1 9587.84  313.77
  -1   1  -1 9999.00  314.37
  -2  -1  -1  207.78    8.50
  -2  -1  -1  222.68    8.70
  -2  -1  -1  206.78    8.40
   2  -1   1  197.88    8.00
   2  -1   1  211.88    8.80
   2  -1   1  209.28    8.80
   2   1   1  224.18    8.60
   2   1   1  215.88    8.30
  -2   1  -1  212.08    8.70
  -2   1  -1  201.78    8.90
   2   1   1  209.78    8.70
   3  -1   1  298.17   12.60
  -3  -1  -1  298.17   12.30
  -3  -1  -1  308.47   12.60
   3  -1   1  315.57   11.80
   3  -1   1  307.37   12.80
  -3  -1  -1  303.17   12.50
   3   1   1  303.07   12.20
  -3   1  -1  297.67   12.80
  -3   1  -1  301.97   12.50
   3   1   1  297.87   12.30
   3   1   1  298.37   12.60
   4  -1   1   16.10    6.00
  -4  -1  -1   23.60    5.80
   4  -1   1   20.20    5.30
   4  -1   1   21.40    5.20
   4   1   1    8.60    5.60
   4   1   1   15.40    5.70
   4   1   1   22.60    5.00
  -4   1  -1   27.50    5.30
   4  -2  -1   49.60    6.80
  -4  -2   1   35.50    6.50
   4  -2  -1   42.60    5.70
   4   2  -1   39.70    5.90
   4   2  -1   44.20    6.50
  -4   2   1   38.40    6.80
   3  -2  -1  110.59    6.00
   3  -2  -1  105.29    6.90
  -3  -2   1  111.09    7.20
   3  -2  -1   94.79    7.60
  -3  -2   1  115.69    6.90
  -3  -2   1  110.29    6.50
  -3   2   1  107.99    6.70
  -3   2   1   97.49    7.60
   3   2  -1  109.79    6.10
   3   2  -1  112.99    7.80
   3   2  -1   99.89    6.10
   2  -2  -1  874.61   30.00
  -2  -2   1  830.32   29.50
  -2  -2   1  866.71   30.10
   2  -2  -1  864.51   28.90
   2  -2  -1  867.81   30.00
  -2  -2   1  867.71   29.30
   2   2  -1  872.21   29.40
   2   2  -1  890.71   30.20
   2   2  -1  843.82   29.10
  -2   2   1  865.31   29.80
   1  -2  -1  849.02   28.60
   1  -2  -1  826.42   28.50
  -1  -2   1  849.12   27.90
  -1  -2   1  823.42   28.80
   1   2  -1  834.72   28.00
  -1   2   1  830.62   28.40
   1   2  -1  853.71   28.70
   1   2  -1  850.51   27.80
  -1   2   1  854.11   28.60
   0  -2   1  117.19    4.50
   0  -2  -1  123.49    4.50
   0  -2  -1  119.39    4.90
   0  -2  -1  125.19    4.40
   0  -2   1  118.19    4.90
   0   2  -1  120.09    4.60
   0   2  -1  127.79    4.30
   0   2   1  138.29    4.30
   0   2  -1  123.19    4.20
   0   2   1  122.39    4.60
   0   2   1  109.69    4.20
   0   2  -1  124.69    4.90
  -1  -2  -1 1492.95   50.49
  -1  -2  -1 1526.25   49.70
  -1  -2  -1 1515.35   49.80
   1  -2   1 1481.15   50.19
   1  -2   1 1503.35   50.29
   1  -2   1 1495.95   49.60
  -1   2  -1 1511.75   50.19
  -1   2  -1 1499.85   50.29
   1   2   1 1501.45   49.80
   1   2   1 1491.55   49.60
   1   2   1 1540.45   50.39
   2  -2   1 1507.45   50.09
  -2  -2  -1 1491.95   49.60
  -2  -2  -1 1495.35   50.19
   2  -2   1 1379.16   49.20
   2  -2   1 1529.75   50.09
  -2   2  -1 1492.65   49.99
   2   2   1 1497.15   49.30
   2   2   1 1501.35   50.09
  -2   2  -1 1374.36   50.49
   2   2   1 1515.25   49.60
   3  -2   1   12.40    2.80
   3  -2   1    9.20    3.70
  -3  -2  -1   20.20    4.00
  -3  -2  -1   16.50    3.60
   3  -2   1   14.20    4.60
   3  -2   1   19.90    4.00
  -3  -2  -1   18.50    3.80
   3   2   1   14.50    4.40
   3   2   1   12.10    3.00
  -3   2  -1   15.60    3.50
  -3   2  -1   17.20    4.30
   3   2   1   19.40    3.40
  -4  -2  -1   43.60    6.50
  -4  -2  -1   40.70    6.80
   4  -2   1   41.20    6.60
   4   2   1   36.30    5.80
  -4   2  -1   47.20    6.50
   4   2   1   46.60    7.00
   4  -3  -1   16.40    6.30
  -4  -3   1   13.90    7.30
  -4  -3   1    6.60    6.70
   4  -3  -1   17.10    6.40
   4   3  -1   16.90    4.70
  -4   3   1   14.40    6.20
  -3  -3   1   59.69    7.20
  -3  -3   1   58.09    6.00
  -3  -3   1   69.09    5.30
   3  -3  -1   50.39    5.60
   3  -3  -1   75.99    6.50
   3  -3  -1   57.39    7.30
   3   3  -1   47.70    6.00
   3   3  -1   63.39    5.00
  -3   3   1   56.99    7.20
  -3   3   1   63.69    6.00
   3   3  -1   62.29    4.50
  -2  -3   1  272.37    9.90
  -2  -3   1  259.47   11.00
   2  -3  -1  242.48    9.30
  -2  -3   1  256.17    9.30
   2  -3  -1  256.87   10.50
   2  -3  -1  261.57   10.90
   2   3  -1  249.18   10.90
   2   3  -1  249.28    9.00
  -2   3   1  243.88   11.50
   2   3  -1  258.87    9.50
  -2   3   1  255.97   10.20
  -1  -3   1  158.38    5.70
   1  -3  -1  148.39    6.60
  -1  -3   1  161.68    7.30
   1  -3  -1  152.68    6.90
   1  -3  -1  153.38    5.90
  -1  -3   1  168.88    5.50
  -1   3   1  159.58    6.90
   1   3  -1  162.18    5.50
  -1   3   1  150.28    6.20
   1   3  -1  162.98    5.70
   0  -3  -1  259.97    9.80
   0  -3  -1  270.07    9.10
   0  -3   1  253.87    9.80
   0  -3  -1  249.18    9.20
   0  -3   1  251.37    9.10
   0  -3   1  231.58    9.20
   0   3  -1  245.58    9.30
   0   3   1  292.97    9.00
   0   3  -1  284.87    8.80
   0   3  -1  278.67    8.90
   0   3  -1  265.27    9.60
   0   3   1  256.87    9.40
   1  -3   1    3.40    2.30
  -1  -3  -1   11.30    1.70
   1  -3   1    7.90    2.00
  -1  -3  -1    9.50    1.20
  -1  -3  -1   10.00    2.50
   1   3   1    7.80    1.20
   1   3   1   10.30    1.30
  -1   3  -1    5.10    2.10
  -1   3  -1    4.70    1.60
   2  -3   1  231.48   10.10
  -2  -3  -1  225.98   10.10
   2  -3   1  231.98    9.80
   2  -3   1  225.18    8.40
  -2  -3  -1  233.78    8.50
   2   3   1  222.78    8.80
   2   3   1  219.98    8.20
   2   3   1  228.58   10.20
  -2   3  -1  229.68    9.40
  -3  -3  -1  227.48    8.90
  -3  -3  -1  211.58   10.80
  -3  -3  -1  177.98    9.60
   3  -3   1  176.58   10.70
   3  -3   1  187.38   10.10
   3  -3   1  191.78    8.90
  -3   3  -1  195.98   10.50
   3   3   1  203.38    9.10
   3   3   1  187.58    8.20
  -3   3  -1  190.78    9.80
   4  -3   1   41.70    7.50
  -4  -3  -1   51.19    7.90
  -4  -3  -1   52.69    8.10
  -4   3  -1   51.99    7.30
   4   3   1   45.40    6.20
  -4  -4   1   27.00    9.50
   4  -4  -1   74.89    8.90
  -4   4   1   59.89    9.10
   4   4  -1   45.90    6.80
  -3  -4   1   10.00    6.00
  -3  -4   1   10.90    5.90
   3  -4  -1   15.90    3.90
  -3  -4   1   19.20    3.30
   3  -4  -1    8.70    6.30
  -3   4   1    8.40    4.20
  -3   4   1    3.80    5.40
   3   4  -1   10.60    2.10
   3   4  -1   13.30    3.10
   2  -4  -1   85.29    4.00
  -2  -4   1  102.19    4.20
  -2  -4   1  101.69    7.30
   2  -4  -1   72.79    6.90
   2  -4  -1   93.89    6.50
   2   4  -1  100.59    3.80
  -2   4   1   95.89    7.00
   2   4  -1  103.99    4.50
   2   4  -1  109.89    7.60
  -2   4   1   87.89    5.50
   1  -4  -1   90.79    5.70
   1  -4  -1   87.69    4.70
   1  -4  -1   89.59    4.50
  -1  -4   1   81.09    5.90
  -1  -4   1   87.19    3.80
  -1  -4   1   92.19    3.60
  -1   4   1   85.39    4.20
  -1   4   1  102.29    5.60
   1   4  -1   93.69    5.90
   0  -4  -1  279.37    9.80
   0  -4   1  282.57   10.80
   0  -4  -1  273.87   10.20
   0  -4  -1  283.57   10.80
   0  -4   1  270.77    9.70
   0  -4   1  265.97   11.50
   0   4  -1  275.67    9.50
   0   4   1  282.97    9.60
   0   4   1  278.27   10.20
   0   4  -1  288.17   10.10
  -1  -4  -1   38.90    4.70
  -1  -4  -1   33.40    2.10
   1   4   1   35.30    2.20
  -1   4  -1   25.70    3.80
   1   4   1   34.50    4.30
   2  -4   1  664.93   23.40
  -2  -4  -1  639.04   24.00
  -2  -4  -1  632.04   21.80
   2  -4   1  633.94   21.50
   2  -4   1  665.23   23.70
  -2  -4  -1  627.04   22.50
   2   4   1  657.33   23.80
   2   4   1  639.54   22.20
  -2   4  -1  657.83   23.00
   2   4   1  619.14   21.60
  -3  -4  -1   10.50    6.00
  -3  -4  -1   10.80    3.10
   3  -4   1   17.80    5.20
  -3  -4  -1   15.60    4.70
   3  -4   1   14.40    3.60
  -3   4  -1   20.70    5.60
   3   4   1   19.80    4.30
   3   4   1   20.80    3.20
  -3   4  -1   16.10    4.40
   4  -4   1   41.90    8.30
  -4  -4  -1   41.60    9.30
  -4   4  -1   46.90    7.60
   4   4   1   40.20    6.30
   3  -5  -1   19.00    5.90
  -3  -5   1   20.60    7.50
   3  -5  -1   15.00    2.90
   3   5  -1   16.80    2.90
  -3   5   1   29.10    5.20
   3   5  -1   23.80    2.80
  -3   5   1   21.70    7.00
  -2  -5   1   58.19    3.30
   2  -5  -1   55.19    6.30
  -2  -5   1   59.29    5.30
  -2  -5   1   71.09    7.90
  -2   5   1   61.89    7.40
   2   5  -1   59.29    8.10
  -2   5   1   63.79    5.20
  -1  -5   1   15.70    2.50
   1  -5  -1   24.40    3.60
  -1  -5   1   17.50    4.40
   1  -5  -1   28.80    4.30
  -1  -5   1   17.40    2.70
   1  -5  -1   18.00    4.50
  -1   5   1   25.10    2.60
  -1   5   1   20.40    4.00
   1   5  -1   14.00    4.00
   0  -5   1  920.01   32.00
   0  -5  -1  943.81   32.10
   0  -5   1  935.51   31.40
   0  -5   1  906.81   30.70
   0  -5  -1  942.81   31.50
   0  -5  -1  908.21   30.80
   0   5   1  956.40   31.40
   0   5   1  891.91   30.70
   0   5  -1  915.01   31.00
   0   5  -1  878.11   30.60
   1  -5   1   70.09    5.00
   1  -5   1   75.39    4.90
  -1  -5  -1   89.49    4.30
   1  -5   1   75.39    6.60
  -1   5  -1   74.99    4.20
   1   5   1   76.69    4.70
  -1   5  -1   83.09    5.80
  -2  -5  -1   36.00    3.10
  -2  -5  -1   31.20    6.30
   2  -5   1   41.30    6.20
  -2   5  -1   43.40    4.50
   2   5   1   36.50    3.80
  -2   5  -1   36.90    6.30
   2   5   1   36.10    8.20
   2   5   1   34.20    4.80
  -3  -5  -1    7.60    7.70
   3  -5   1   12.70    6.70
  -3   5  -1    0.40    4.70
  -3   5  -1   -4.20    6.50
   3   5   1    0.50    3.60
  -3  -6   1   18.40   10.10
   3  -6  -1   43.10    7.50
  -3   6   1   25.80    5.70
   2  -6  -1  110.49    8.50
  -2  -6   1  102.09   11.10
  -2  -6   1   91.39    5.90
  -2   6   1  115.19    9.50
  -2   6   1  118.69    6.80
   2   6  -1  103.49    7.90
  -1  -6   1  291.87   13.40
  -1  -6   1  260.37   10.10
   1  -6  -1  300.57   11.90
   1  -6  -1  268.27   10.70
  -1  -6   1  273.47   10.60
  -1   6   1  272.97   10.20
   1   6  -1  238.78    9.90
   1   6  -1  253.17   10.50
  -1   6   1  268.77   12.00
   0  -6   1  353.36   14.60
   0  -6   1  364.16   15.50
   0  -6  -1  346.97   14.70
   0  -6  -1  361.26   12.90
   0  -6  -1  387.66   15.80
   0  -6   1  353.16   13.00
   0   6   1  365.86   13.80
   0   6   1  364.16   12.70
   0   6  -1  354.26   12.50
   0   6  -1  373.66   13.30
  -1  -6  -1  224.18   12.20
   1  -6   1  211.78    9.20
  -1  -6  -1  205.78    8.70
   1  -6   1  231.58    9.90
  -1  -6  -1  198.88    9.50
  -1   6  -1  237.38    8.50
  -1   6  -1  242.88   10.40
   1   6   1  194.58    8.60
  -2  -6  -1   28.70    8.30
  -2  -6  -1   32.60    4.80
   2  -6   1   45.30    6.00
  -2   6  -1   40.30    5.50
  -2   6  -1   37.30    7.80
   2   6   1   40.20    5.70
  -3  -6  -1   27.70   11.60
   3  -6   1    8.30    7.30
  -3   6  -1    7.10    5.30
  -2  -7   1  448.66   23.60
  -2   7   1  479.65   17.80
  -1  -7   1   70.19   10.50
  -1   7   1   69.29    4.50
   0  -7   1   -0.80    7.00
   0  -7  -1    2.00    8.00
   0  -7   1   -5.30    7.40
  -1  -7  -1  222.38   16.50
  -1  -7  -1  187.68   11.30
  -1   7  -1  225.98    8.50
  -2  -7  -1   28.30   11.00
  -2   7  -1   28.00    4.40
   4   0  -2  976.50   36.00
   4   0  -2  986.40   35.60
   4   0  -2  988.10   35.60
  -4   0   2 1027.30   35.80
  -3   0   2    2.60    3.30
   3   0  -2    4.50    3.20
  -3   0   2    1.40    3.00
   3   0  -2   -2.10    2.50
   3   0  -2    2.30    3.10
   2   0  -2    2.60    2.00
   2   0  -2    6.90    2.10
   2   0  -2    4.40    2.00
  -2   0   2    4.60    2.10
   1   0  -2    4.90    1.30
   1   0  -2    3.50    1.40
  -1   0   2    4.30    1.50
   1   0  -2    5.00    1.30
   1   0   2   28.00    2.50
  -1   0  -2   29.70    2.50
   2   0   2   78.29    4.60
  -2   0  -2   79.49    4.70
  -2   0  -2   72.99    4.20
   2   0   2   77.19    4.30
   2   0   2   81.59    4.70
  -3   0  -2    5.50    3.20
   3   0   2    0.10    3.20
  -3   0  -2    3.90    2.60
   3   0   2    2.20    3.00
   3   0   2    1.10    3.10
  -3   0  -2    9.60    3.40
   4   0   2   84.19    8.00
   4   0   2   71.39    8.10
   4   0   2   82.69    8.40
  -4   0  -2   69.59    9.40
   4  -1  -2   49.00    7.70
   4  -1  -2   48.60    7.20
  -4  -1   2   50.19    7.60
   4  -1  -2   55.29    7.00
   4   1  -2   47.30    7.40
   4   1  -2   46.20    6.60
  -4   1   2   54.29    7.80
  -3  -1   2  863.61   30.00
   3  -1  -2  847.62   30.30
   3  -1  -2  859.21   30.20
  -3  -1   2  839.72   30.00
   3   1  -2  866.21   29.90
  -3   1   2  844.42   30.40
   3   1  -2  852.31   29.90
  -3   1   2  864.01   30.20
   3   1  -2  846.32   30.30
   2  -1  -2  122.19    5.40
  -2  -1   2  119.29    6.00
  -2  -1   2  119.49    5.60
   2  -1  -2  122.39    5.90
   2  -1  -2  120.19    6.00
   2   1  -2  123.49    5.50
  -2   1   2  125.29    5.90
   2   1  -2  117.49    5.50
   2   1  -2  124.19    6.30
  -1  -1   2 1505.95   50.29
   1  -1  -2 1513.55   50.19
   1  -1  -2 1490.15   50.19
  -1  -1   2 1482.55   49.90
  -1  -1   2 1511.65   49.90
   1   1  -2 1512.35   50.29
   1   1  -2 1551.54   49.90
   1   1  -2 1482.75   49.90
  -1   1   2 1518.55   50.19
  -1   1   2 1522.25   50.09
   0  -1  -2   52.29    2.00
   0  -1  -2   54.99    2.00
   0  -1  -2   50.69    1.90
   0  -1   2   53.49    1.90
   0  -1   2   43.70    2.30
   0  -1   2   49.10    2.00
   0   1  -2   46.00    2.00
   0   1  -2   57.19    1.90
   0   1   2   55.09    1.90
   0   1   2   52.59    2.00
   0   1  -2   49.10    2.00
   0   1  -2   44.00    2.30
  -1  -1  -2 1961.40   69.79
   1  -1   2 2134.89   69.79
   1  -1   2 2131.29   69.79
  -1  -1  -2 2136.19   69.79
   1  -1   2 2064.39   69.39
   1   1   2 2192.28   69.49
  -1   1  -2 2079.49   69.79
   1   1   2 2156.28   69.59
  -1   1  -2 2103.99   69.79
  -1   1  -2 2041.80   69.19
   1   1   2 2167.58   69.79
   2  -1   2 2078.09   68.19
   2  -1   2 2083.59   67.29
   2  -1   2 1938.01   68.39
   2  -1   2 1905.81   67.49
  -2  -1  -2 2061.39   67.99
  -2  -1  -2 2061.59   67.69
  -2  -1  -2 2063.29   67.89
   2   1   2 2047.60   67.69
  -2   1  -2 2044.20   68.09
  -2   1  -2 2008.00   67.29
   2   1   2 2082.69   67.99
  -2   1  -2 1942.01   68.59
   2   1   2 2124.29   67.89
  -3  -1  -2   66.29    5.80
   3  -1   2   61.89    6.10
  -3  -1  -2   52.69    5.40
   3  -1   2   71.99    5.10
   3  -1   2   58.39    5.60
  -3  -1  -2   63.39    5.20
   3  -1   2   63.89    5.40
  -3   1  -2   49.30    5.80
  -3   1  -2   64.99    5.50
   3   1   2   54.19    5.20
   3   1   2   61.99    6.20
  -4  -1  -2   -3.90    5.20
   4  -1   2   -4.30    4.90
  -4  -1  -2   12.30    4.70
   4  -1   2    4.50    5.70
   4  -1   2   -1.60    4.60
   4   1   2   -1.00    4.60
  -4   1  -2    4.10    4.90
   4   1   2   -0.50    5.30
   4   1   2    6.00    5.50
   4  -2  -2   13.80    5.50
  -4  -2   2   16.30    6.00
   4  -2  -2   13.00    5.30
   4   2  -2   17.40    4.60
  -4   2   2   14.70    5.90
   4   2  -2   15.30    5.30
  -3  -2   2   54.19    5.80
   3  -2  -2   52.39    6.40
  -3  -2   2   49.60    5.40
   3  -2  -2   48.80    4.80
  -3  -2   2   45.80    5.20
   3  -2  -2   46.20    5.40
  -3   2   2   45.80    5.20
   3   2  -2   49.80    4.70
   3   2  -2   58.69    4.70
   3   2  -2   52.99    5.60
  -3   2   2   54.99    6.50
   2  -2  -2 2741.83   91.29
   2  -2  -2 2719.33   90.39
  -2  -2   2 2655.93   90.79
  -2  -2   2 2793.52   91.59
   2  -2  -2 2792.42   91.39
   2   2  -2 2742.63   90.59
  -2   2   2 2760.32   91.19
  -2   2   2 2723.93   92.49
   2   2  -2 2783.32   91.49
   2   2  -2 2704.93   90.69
  -1  -2   2   40.60    3.50
   1  -2  -2   35.80    3.00
   1  -2  -2   36.40    2.80
   1   2  -2   45.90    3.40
  -1   2   2   36.40    2.50
  -1   2   2   32.30    3.10
   1   2  -2   41.80    1.90
   0  -2  -2  200.38    6.80
   0  -2  -2  192.08    7.20
   0  -2  -2  198.88    6.90
   0  -2   2  191.98    6.90
   0  -2   2  184.88    7.20
   0   2  -2  193.38    6.90
   0   2  -2  198.68    7.20
   0   2  -2  208.48    6.60
   0   2   2  201.78    6.60
   0   2  -2  191.38    6.70
   0   2   2  199.98    7.00
  -1  -2  -2  359.46   12.00
  -1  -2  -2  374.56   12.20
   1  -2   2  335.77   12.70
   1  -2   2  358.56   11.90
  -1  -2  -2  352.86   12.90
   1  -2   2  332.97   12.70
   1   2   2  371.46   12.00
   1   2   2  354.56   12.20
   1   2   2  350.96   12.80
  -1   2  -2  341.07   12.70
  -1   2  -2  335.07   12.50
   2  -2   2 1247.98   42.50
  -2  -2  -2 1226.78   41.70
   2  -2   2 1197.98   41.60
  -2  -2  -2 1280.37   42.10
   2  -2   2 1242.48   42.50
  -2  -2  -2 1242.18   42.60
   2   2   2 1245.48   41.70
   2   2   2 1249.68   42.00
  -2   2  -2 1242.78   42.50
   2   2   2 1292.47   42.50
  -2   2  -2 1233.38   42.40
  -3  -2  -2  318.37   13.60
   3  -2   2  324.37   13.70
  -3  -2  -2  335.87   13.50
   3  -2   2  313.67   12.70
   3  -2   2  316.77   13.90
   3   2   2  326.27   12.70
   3   2   2  345.77   14.10
  -3   2  -2  321.77   13.80
   3   2   2  319.47   13.00
  -3   2  -2  323.37   13.40
  -4  -2  -2  241.18   12.90
  -4  -2  -2  264.87   13.50
   4  -2   2  251.87   13.00
   4   2   2  228.68   12.20
  -4   2  -2  249.18   13.00
   4   2   2  235.78   12.60
   4  -3  -2    4.30    6.60
   4  -3  -2    1.20    5.90
  -4  -3   2  -13.30    6.40
  -4   3   2   -7.10    5.60
   4   3  -2    7.70    4.40
  -3  -3   2  150.18    9.60
   3  -3  -2  167.98    7.20
  -3  -3   2  164.98    8.30
   3  -3  -2  164.68    9.00
   3  -3  -2  170.68    9.90
  -3   3   2  172.48    9.90
   3   3  -2  160.18    7.60
   3   3  -2  160.38    7.20
  -3   3   2  162.38    8.60
  -2  -3   2  231.28    9.90
  -2  -3   2  222.78    8.10
   2  -3  -2  225.58    9.40
  -2  -3   2  221.38    8.60
   2  -3  -2  215.98    9.60
  -2   3   2  212.38    8.90
   2   3  -2  213.28   10.00
   2   3  -2  209.78    8.20
  -2   3   2  222.98    9.90
   2   3  -2  213.38    7.70
  -1  -3   2   57.19    4.50
  -1  -3   2   60.89    2.70
  -1  -3   2   67.09    2.30
   1  -3  -2   57.09    3.70
   1  -3  -2   58.99    4.10
  -1   3   2   55.29    4.10
  -1   3   2   54.89    3.20
   0  -3   2 1330.37   45.00
   0  -3   2 1353.46   44.60
   0  -3  -2 1359.96   44.60
   0  -3  -2 1339.57   44.50
   0  -3  -2 1333.37   45.00
   0   3   2 1374.06   44.20
   0   3   2 1371.16   44.70
   0   3  -2 1342.57   44.20
   0   3  -2 1300.97   44.30
   0   3   2 1318.67   44.40
   0   3  -2 1370.26   44.90
   0   3  -2 1344.17   44.50
  -1  -3  -2   19.30    2.80
   1  -3   2   21.30    3.30
  -1  -3  -2   25.30    1.60
  -1  -3  -2   22.90    2.00
   1  -3   2   23.80    1.20
   1  -3   2   20.20    2.90
  -1   3  -2   22.60    3.10
   1   3   2   24.90    1.60
  -1   3  -2   21.30    2.50
   1   3   2   28.70    3.50
   2  -3   2  151.48    7.50
   2  -3   2  144.69    5.90
  -2  -3  -2  145.79    6.80
   2  -3   2  142.79    7.70
  -2  -3  -2  151.58    6.00
  -2  -3  -2  155.28    7.80
   2   3   2  149.49    7.80
   2   3   2  147.29    5.70
   2   3   2  151.18    6.50
  -2   3  -2  153.18    7.00
  -2   3  -2  134.89    8.20
   3  -3   2 2122.59   72.39
  -3  -3  -2 2177.08   71.69
   3  -3   2 2198.88   72.29
  -3  -3  -2 2048.20   70.89
   3  -3   2 2102.09   70.79
  -3  -3  -2 2063.79   72.69
   3   3   2 2034.00   70.69
  -3   3  -2 2145.69   72.19
  -3   3  -2 2195.88   72.09
   4  -3   2   29.10    7.10
  -4  -3  -2   29.50    7.50
  -4  -3  -2   32.60    7.60
  -4   3  -2   36.90    6.70
   4   3   2   34.20    5.90
  -4  -4   2   -4.50    8.20
   4  -4  -2    9.10    7.50
  -4   4   2    3.80    6.20
   4   4  -2   -0.90    4.40
   3  -4  -2  186.18    8.80
  -3  -4   2  189.88    9.50
  -3  -4   2  192.68   12.00
  -3  -4   2  188.18    8.20
  -3   4   2  206.38   11.60
   3   4  -2  189.08    7.30
   3   4  -2  182.78    8.10
  -3   4   2  209.48   10.10
   2  -4  -2  421.46   17.90
  -2  -4   2  508.45   18.60
  -2  -4   2  484.95   16.10
   2  -4  -2  451.95   16.00
   2  -4  -2  438.96   15.90
  -2  -4   2  433.26   16.70
   2  -4  -2  527.25   17.90
  -2   4   2  501.65   18.20
  -2   4   2  491.05   17.30
   2   4  -2  451.75   18.40
   2   4  -2  478.05   16.00
   1  -4  -2  126.19    5.80
  -1  -4   2  125.29    4.70
   1  -4  -2  124.29    5.60
   1  -4  -2  136.59    6.70
  -1  -4   2  127.79    4.90
  -1  -4   2  132.19    7.10
   1   4  -2  130.09    6.90
  -1   4   2  132.09    5.40
  -1   4   2  130.99    6.60
   0  -4   2  352.56   13.10
   0  -4  -2  320.57   12.40
   0  -4   2  350.16   12.60
   0  -4  -2  359.36   13.20
   0  -4  -2  363.56   12.60
   0   4  -2  347.97   11.90
   0   4   2  361.16   12.60
   0   4  -2  354.86   12.30
   0   4  -2  362.56   11.90
   0   4   2  353.86   12.10
   0   4  -2  355.16   12.80
   1  -4   2   15.00    2.70
  -1  -4  -2   26.70    2.30
   1  -4   2   14.30    3.30
  -1  -4  -2   23.50    2.00
  -1  -4  -2   15.60    3.30
  -1   4  -2   24.30    2.50
   1   4   2   20.00    2.90
   1   4   2   20.40    2.10
   1   4   2   18.40    3.10
  -1   4  -2   26.40    3.80
  -2  -4  -2  103.19    4.50
   2  -4   2  101.79    4.10
  -2  -4  -2   94.29    5.80
  -2  -4  -2  100.39    7.40
   2  -4   2   99.79    6.80
   2  -4   2   85.29    7.50
   2   4   2  104.49    4.20
  -2   4  -2   78.09    5.60
   2   4   2  104.89    7.30
   2   4   2  105.19    5.30
   3  -4   2  188.68    8.30
   3  -4   2  202.08   10.80
  -3  -4  -2  171.58   11.90
  -3  -4  -2  186.98   10.10
   3   4   2  189.28    9.20
  -3   4  -2  212.68   10.30
   3   4   2  184.38    7.80
  -3   4  -2  202.68   11.20
  -4  -4  -2   69.39    9.90
   4  -4   2   59.69    9.00
   4   4   2   58.59    7.90
  -4   4  -2   67.99    8.30
   3  -5  -2  136.59    9.50
   3  -5  -2  117.89    5.60
  -3  -5   2  132.39   11.80
  -3   5   2  130.99    8.90
  -3   5   2  126.09   11.40
  -2  -5   2   87.69    5.60
  -2  -5   2  105.39    8.90
   2  -5  -2   95.69    6.70
  -2  -5   2   82.59    4.00
  -2   5   2  105.09    8.10
   2   5  -2   91.99    8.70
  -2   5   2   93.59    5.90
   1  -5  -2   15.50    3.30
  -1  -5   2   12.70    4.30
   1  -5  -2    8.80    2.60
  -1  -5   2   20.60    2.60
   1  -5  -2   11.20    4.30
  -1  -5   2   14.70    2.50
  -1   5   2   14.80    2.10
   1   5  -2   18.90    4.00
   1   5  -2   21.50    2.50
  -1   5   2   13.70    3.80
   0  -5  -2   28.40    4.40
   0  -5  -2   40.80    5.50
   0   5   2   37.50    4.10
   0   5   2   31.60    2.30
   1  -5   2  127.49    7.70
  -1  -5  -2   86.39    7.40
  -1  -5  -2  109.59    4.80
   1  -5   2  109.19    5.90
  -1  -5  -2   86.59    4.90
   1   5   2   95.39    5.10
   1   5   2   88.99    4.80
  -1   5  -2  114.99    5.00
  -2  -5  -2   29.60    4.40
   2  -5   2   41.80    6.20
  -2  -5  -2   24.40    6.40
  -2  -5  -2   32.00    3.10
   2   5   2   29.30    4.00
   2   5   2   33.40    3.00
  -2   5  -2   33.30    4.70
   2   5   2   38.30    5.00
   3  -5   2   13.40    7.90
  -3  -5  -2    0.80    7.70
  -3   5  -2    2.50    6.60
   3   5   2    9.50    4.00
  -3   5  -2   12.10    5.00
   3  -6  -2   32.80    7.40
  -3   6   2   34.40    6.20
  -2  -6   2   12.20    7.70
   2  -6  -2    8.70    4.90
  -2   6   2   18.80    6.60
  -2   6   2   14.30    3.70
   2   6  -2   12.50    3.40
   1  -6  -2  253.57   10.30
  -1  -6   2  267.07   13.30
   1  -6  -2  279.87   12.10
   1   6  -2  226.08   10.00
  -1   6   2  285.77   12.10
   1   6  -2  253.57   11.90
   1   6  -2  227.98    9.40
  -1   6   2  259.67    9.70
   0  -6  -2  600.34   22.90
   0  -6   2  621.34   21.50
   0  -6   2  607.34   22.60
   0  -6  -2  585.54   21.90
   0   6  -2  589.04   19.80
   0   6   2  570.74   20.20
   0   6   2  602.14   21.20
   0   6  -2  553.14   20.80
   1  -6   2  304.87   12.80
  -1  -6  -2  337.27   12.90
  -1  -6  -2  343.27   15.50
  -1   6  -2  366.56   13.50
   1   6   2  318.57   12.10
  -1   6  -2  345.97   12.20
   1   6   2  326.07   12.00
   1   6   2  316.87   12.60
  -2  -6  -2    4.50    3.10
   2  -6   2    5.10    5.30
  -2  -6  -2   12.60    7.60
   2   6   2    9.70    5.10
  -2   6  -2   14.60    3.70
   3  -6   2   30.30    8.00
  -3  -6  -2   17.50   10.40
  -3   6  -2   16.90    5.70
  -2  -7   2   17.90   10.40
  -2   7   2   28.20    4.20
   1  -7  -2  544.75   20.50
  -1  -7   2  465.45   22.10
  -1   7   2  410.86   16.70
   0  -7   2   18.10    7.90
   0  -7   2   10.10    7.00
   0   7   2   14.40    2.50
  -1  -7  -2   61.69   10.90
  -1   7  -2   54.09    3.90
  -2  -7  -2  118.79   15.70
  -2   7  -2   95.49    6.70
   4   0  -3    7.30    5.30
  -4   0   3    9.00    5.30
   4   0  -3    1.10    5.60
   4   0  -3    5.60    4.40
  -3   0   3  251.77   11.10
   3   0  -3  263.77   11.10
   3   0  -3  260.07   11.00
   3   0  -3  255.07   10.70
  -3   0   3  259.17   10.90
   2   0  -3    0.80    1.80
   2   0  -3   -0.40    1.90
  -2   0   3   -0.70    1.80
   2   0  -3    0.20    1.90
   1   0  -3  500.35   17.20
  -1   0   3  509.85   17.30
   1   0  -3  510.05   17.30
   1   0   3  609.34   21.30
  -1   0  -3  640.04   21.50
   1   0   3  638.64   21.50
  -1   0  -3  632.74   21.40
   1   0   3  602.34   21.30
   1   0   3  639.34   21.50
  -1   0  -3  639.64   21.50
   2   0   3    3.60    2.20
   2   0   3   -3.10    3.50
   2   0   3    1.10    1.80
  -2   0  -3   -0.20    2.60
  -2   0  -3    3.00    2.20
   2   0   3    1.50    2.20
  -2   0  -3   -1.00    1.70
   3   0   3    3.80    3.40
   3   0   3    4.50    3.10
   3   0   3    9.70    3.20
   3   0   3    6.00    3.40
  -3   0  -3   10.20    3.30
  -3   0  -3    6.10    2.80
  -3   0  -3    9.70    3.50
   4   0   3    2.30    4.80
  -4   0  -3   -4.70    5.00
   4   0   3    7.30    5.00
   4   0   3   -3.80    5.30
   4  -1  -3   62.69    8.10
   4  -1  -3   45.80    7.10
   4  -1  -3   54.19    7.20
  -4  -1   3   55.79    7.70
   4   1  -3   63.09    6.90
   4   1  -3   59.29    6.60
  -4   1   3   56.59    8.00
   3  -1  -3  490.05   18.50
  -3  -1   3  511.25   18.70
   3  -1  -3  506.35   19.10
   3  -1  -3  515.65   18.80
  -3  -1   3  490.45   18.70
   3   1  -3  505.15   18.50
  -3   1   3  525.45   18.90
   3   1  -3  501.35   18.40
  -3   1   3  490.85   19.20
   3   1  -3  505.45   19.10
  -2  -1   3   69.69    4.30
   2  -1  -3   79.59    4.20
  -2  -1   3   85.39    4.90
   2  -1  -3   77.29    4.60
   2  -1  -3   76.69    4.50
   2   1  -3   68.49    4.10
   2   1  -3   76.19    4.20
  -2   1   3   65.99    4.40
   2   1  -3   68.79    7.60
  -1  -1   3 1168.88   38.80
   1  -1  -3 1215.88   39.10
   1  -1  -3 1190.98   39.10
  -1  -1   3 1180.08   39.30
  -1  -1   3 1154.88   38.90
   1   1  -3 1168.08   39.30
   1   1  -3 1125.49   38.80
   1   1  -3 1165.58   38.80
  -1   1   3 1171.78   39.00
  -1   1   3 1177.58   39.20
   0  -1  -3  790.02   26.40
   0  -1  -3  806.22   26.30
   0  -1  -3  790.02   26.40
   0  -1   3  820.22   26.30
   0  -1   3  806.02   26.40
   0   1  -3  783.62   26.30
   0   1  -3  795.72   26.30
   0   1  -3  768.82   26.40
   0   1   3  791.02   26.40
   0   1   3  793.62   26.40
   0   1   3  821.82   26.30
  -1  -1  -3  276.27    9.10
  -1  -1  -3  270.17    9.50
   1  -1   3  239.08    9.40
  -1  -1  -3  264.47    9.00
   1  -1   3  250.47    8.90
   1  -1   3  243.28    9.40
   1   1   3  232.38    9.10
   1   1   3  279.17    9.20
  -1   1  -3  242.58    9.40
  -1   1  -3  249.97    9.40
  -1   1  -3  248.38    8.70
   1   1   3  250.47    9.30
   1   1   3  278.67    9.00
   2  -1   3    8.80    2.60
   2  -1   3    7.10    1.70
   2  -1   3   11.60    2.30
  -2  -1  -3   13.50    2.50
  -2  -1  -3    9.10    2.40
  -2  -1  -3   11.50    2.30
   2   1   3    8.50    2.10
  -2   1  -3    8.20    2.90
   2   1   3   11.40    2.50
  -2   1  -3   10.60    1.70
   2   1   3    8.40    2.20
  -2   1  -3   10.40    2.60
   3  -1   3   22.30    3.90
   3  -1   3   15.10    3.70
   3  -1   3   16.40    4.20
  -3  -1  -3   16.80    3.90
   3  -1   3   14.40    2.90
  -3  -1  -3   13.20    3.50
  -3  -1  -3   15.90    3.70
  -3   1  -3   13.60    3.50
   3   1   3    9.80    3.80
   3   1   3   24.40    3.70
   3   1   3   16.40    3.90
   3   1   3   14.60    3.40
  -3   1  -3   19.50    4.00
   4  -1   3   52.99    6.90
  -4  -1  -3   45.40    5.90
  -4  -1  -3   56.29    6.90
  -4   1  -3   50.99    7.80
   4   1   3   60.29    6.80
   4   1   3   49.99    7.30
  -4  -2   3   35.20    6.50
   4  -2  -3   28.60    6.00
   4  -2  -3   34.90    5.80
  -4   2   3   39.60    6.40
   4   2  -3   24.90    4.90
  -3  -2   3   63.49    5.70
   3  -2  -3   67.29    5.80
  -3  -2   3   76.09    5.80
  -3  -2   3   61.99    6.40
   3  -2  -3   75.09    5.30
   3  -2  -3   67.29    6.80
  -3   2   3   68.99    6.70
   3   2  -3   67.79    7.20
  -3   2   3   72.99    5.80
   3   2  -3   67.79    4.90
   3   2  -3   63.79    5.10
  -2  -2   3 1649.54   55.59
   2  -2  -3 1664.03   56.19
  -2  -2   3 1549.54   55.89
   2  -2  -3 1662.33   56.09
  -2  -2   3 1711.13   56.39
   2   2  -3 1667.73   55.49
   2   2  -3 1679.83   55.39
  -2   2   3 1671.43   55.99
   2   2  -3 1720.63   56.39
  -2   2   3 1689.43   56.39
  -1  -2   3   11.90    2.20
  -1  -2   3   14.40    1.30
   1  -2  -3   15.60    2.00
   1  -2  -3   15.40    1.90
  -1  -2   3   10.50    1.60
  -1   2   3   13.80    1.90
   1   2  -3   16.10    2.30
  -1   2   3   14.30    2.10
   1   2  -3   16.70    0.90
   0  -2   3 1467.15   48.10
   0  -2   3 1469.55   48.40
   0  -2   3 1346.77   48.00
   0  -2  -3 1455.75   48.20
   0  -2  -3 1433.66   48.20
   0  -2  -3 1456.85   48.40
   0   2  -3 1474.45   48.40
   0   2   3 1488.95   48.10
   0   2  -3 1428.46   48.00
   0   2   3 1467.05   48.20
   0   2  -3 1498.45   48.10
   0   2   3 1532.05   48.00
  -1  -2  -3 1491.35   54.99
  -1  -2  -3 1667.63   54.59
   1  -2   3 1682.43   55.19
   1  -2   3 1751.62   54.49
  -1  -2  -3 1677.23   55.39
   1  -2   3 1669.93   55.19
  -1   2  -3 1715.13   55.19
   1   2   3 1673.03   55.19
  -1   2  -3 1677.23   55.19
   1   2   3 1655.23   54.59
   1   2   3 1547.95   54.89
  -2  -2  -3  162.78    7.40
  -2  -2  -3  156.78    6.30
  -2  -2  -3  157.18    6.80
   2  -2   3  134.29    7.20
   2  -2   3  136.99    7.40
   2  -2   3  140.49    6.20
  -2   2  -3  140.19    7.10
   2   2   3  163.58    7.40
   2   2   3  156.48    6.20
  -2   2  -3  137.79    6.90
   2   2   3  167.68    6.80
   3  -2   3 1167.58   40.20
  -3  -2  -3 1167.08   41.30
   3  -2   3 1217.98   41.30
   3  -2   3 1202.68   41.30
  -3  -2  -3 1189.58   40.90
   3   2   3 1087.29   40.60
  -3   2  -3 1183.18   41.20
   3   2   3 1207.28   40.40
   3   2   3 1194.58   40.90
  -3   2  -3 1197.58   41.10
   3   2   3 1158.48   41.00
  -4  -2  -3  625.14   25.30
  -4  -2  -3  648.54   25.30
   4  -2   3  673.93   25.60
   4   2   3  626.74   24.60
  -4   2  -3  652.03   25.20
   4   2   3  642.14   24.20
   4  -3  -3   22.80    6.40
   4  -3  -3    5.80    6.50
  -4  -3   3    3.10    6.60
  -4   3   3   28.20    6.60
   4   3  -3   10.20    4.50
   3  -3  -3   23.10    5.30
  -3  -3   3   20.00    3.90
   3  -3  -3   18.00    4.30
   3  -3  -3   25.40    3.40
  -3  -3   3   17.00    4.80
  -3   3   3   21.90    4.00
  -3   3   3   15.80    5.20
   3   3  -3   27.70    3.70
   3   3  -3   19.50    3.00
  -2  -3   3   38.60    2.90
  -2  -3   3   31.40    3.70
   2  -3  -3   32.00    4.10
   2  -3  -3   35.90    4.20
  -2  -3   3   42.30    4.90
   2   3  -3   34.10    2.10
  -2   3   3   38.50    5.10
   2   3  -3   30.10    2.60
   2   3  -3   38.30    5.30
  -2   3   3   32.70    3.60
  -1  -3   3  105.09    5.50
   1  -3  -3   78.59    4.80
   1   3  -3   77.59    7.60
  -1   3   3   93.09    4.10
  -1   3   3   94.09    5.00
   0  -3  -3   80.79    3.80
   0  -3   3   86.39    4.60
   0  -3  -3   88.69    4.50
   0   3  -3   96.49    4.40
   0   3   3   91.59    3.50
   0   3   3   86.09    4.00
   0   3   3   94.09    3.20
   0   3  -3   89.79    3.70
   0   3  -3  101.69    3.30
  -1  -3  -3   82.19    3.50
   1  -3   3   76.49    4.40
   1  -3   3   80.49    2.90
  -1  -3  -3   80.39    3.30
  -1  -3  -3   79.19    5.00
   1  -3   3   76.69    4.80
   1   3   3   80.19    3.30
  -1   3  -3   76.59    4.40
   1   3   3   70.39    3.90
   1   3   3   79.49    3.50
  -1   3  -3   79.19    4.00
   1   3   3   83.29    4.70
   2  -3   3   32.30    5.10
   2  -3   3   24.50    2.70
  -2  -3  -3   31.20    4.60
  -2  -3  -3   33.00    2.80
  -2  -3  -3   32.10    3.80
   2  -3   3   33.40    4.60
  -2   3  -3   31.00    3.70
   2   3   3   35.90    3.50
  -2   3  -3   32.00    4.50
   2   3   3   32.90    4.20
   2   3   3   31.90    2.40
   2   3   3   36.20    4.90
   3  -3   3  156.78    7.40
  -3  -3  -3  142.99    7.20
  -3  -3  -3  162.48    8.50
  -3  -3  -3  171.18    9.50
   3  -3   3  140.29    9.00
   3   3   3  123.89    8.40
  -3   3  -3  133.29    9.20
  -3   3  -3  125.99    8.10
   3   3   3  146.39    6.90
   3   3   3  136.79    8.00
  -4  -3  -3 1011.90   39.70
   4  -3   3 1074.59   39.10
  -4  -3  -3 1061.09   38.40
  -4   3  -3 1122.99   39.20
   4   3   3 1004.60   37.70
   4  -4  -3   15.10    7.30
   4   4  -3   23.00    4.60
  -4   4   3   14.70    6.40
  -3  -4   3    7.60    4.20
  -3  -4   3   13.70    5.80
  -3  -4   3   14.80    3.20
   3  -4  -3   15.40    4.10
   3  -4  -3    8.50    5.70
  -3   4   3    9.80    5.70
  -3   4   3    8.50    4.40
   3   4  -3   13.50    2.70
   3   4  -3   16.10    1.90
  -2  -4   3   39.20    4.00
  -2  -4   3   45.70    6.30
   2  -4  -3   37.90    2.90
   2  -4  -3   48.10    5.10
   2  -4  -3   44.40    5.40
  -2   4   3   49.60    6.40
   2   4  -3   42.60    6.30
  -2   4   3   42.50    4.10
   1  -4  -3   62.79    4.00
  -1  -4   3   69.39    5.40
   1  -4  -3   69.79    5.00
   1  -4  -3   67.49    4.10
   1   4  -3   63.19    5.20
  -1   4   3   62.69    3.40
  -1   4   3   66.39    4.90
   1   4  -3   55.79    3.20
   0  -4  -3   33.60    3.90
   0  -4   3   26.80    3.90
   0  -4  -3   30.20    2.20
   0  -4  -3   29.40    3.00
   0   4   3   32.00    3.10
   0   4   3   35.80    2.00
   0   4  -3   36.70    1.50
   0   4  -3   35.00    1.60
   0   4  -3   29.90    2.50
   0   4  -3   30.10    3.40
   1  -4   3  415.26   14.90
   1  -4   3  439.76   15.30
  -1  -4  -3  402.56   14.00
  -1  -4  -3  402.06   14.10
  -1  -4  -3  401.66   15.60
  -1   4  -3  402.06   14.40
  -1   4  -3  411.56   14.80
   1   4   3  398.66   14.10
   1   4   3  410.76   14.10
   1   4   3  387.46   14.30
   2  -4   3  433.06   14.80
  -2  -4  -3  446.06   15.20
  -2  -4  -3  404.76   16.20
   2  -4   3  460.85   17.00
   2  -4   3  455.25   17.20
  -2  -4  -3  416.56   18.30
   2   4   3  424.46   17.10
  -2   4  -3  438.36   17.60
   2   4   3  418.06   16.20
   2   4   3  456.45   15.80
  -2   4  -3  442.06   16.50
   2   4   3  431.26   15.00
   3  -4   3   40.80    4.60
   3  -4   3   49.40    6.40
  -3  -4  -3   47.10    7.30
  -3  -4  -3   48.10    5.50
  -3   4  -3   41.60    6.50
   3   4   3   38.10    5.60
   3   4   3   37.30    3.70
  -3   4  -3   42.70    6.40
  -4  -4  -3   82.19   10.90
   4  -4   3   92.49   11.90
  -4   4  -3   97.89   10.40
   4   4   3   91.79    8.80
   3  -5  -3   22.70    2.70
  -3  -5   3   23.90    3.30
   3  -5  -3   26.80    5.60
  -3  -5   3   19.90    7.60
  -3   5   3   25.30    7.50
  -3   5   3   35.00    5.30
   2  -5  -3   36.90    5.50
  -2  -5   3   29.10    5.90
   2   5  -3   30.30    6.20
  -2   5   3   31.50    3.80
  -2   5   3   31.30    5.50
   1  -5  -3  164.28    8.80
   1  -5  -3  155.58    7.10
   1  -5  -3  172.38    7.70
  -1  -5   3  155.18    8.90
  -1   5   3  166.38    8.50
   1   5  -3  143.19    8.70
  -1   5   3  163.08    6.60
   1   5  -3  149.09    6.30
   0  -5  -3   49.30    4.70
   0  -5   3   52.19    5.50
   0  -5  -3   56.69    5.70
   0  -5  -3   47.50    3.20
   0  -5   3   49.30    4.80
   0   5  -3   55.39    3.30
   0   5   3   51.89    2.90
   0   5   3   51.79    4.50
   0   5  -3   55.29    4.50
   1  -5   3 2229.28   70.39
  -1  -5  -3 2039.90   69.39
   1  -5   3 2061.39   69.99
  -1  -5  -3 2038.60   70.99
  -1  -5  -3 2118.89   69.39
   1   5   3 2042.50   69.39
  -1   5  -3 2152.88   69.59
   1   5   3 2051.19   69.29
   1   5   3 2024.60   69.39
  -1   5  -3 2167.68   69.99
  -2  -5  -3   24.80    3.20
  -2  -5  -3   31.20    6.30
   2  -5   3   39.70    5.40
  -2  -5  -3   30.30    4.20
   2   5   3   19.90    4.60
  -2   5  -3   35.70    4.90
  -2   5  -3   28.80    5.90
   2   5   3   33.30    3.00
   2   5   3   36.00    4.40
   3  -5   3   70.79   11.60
  -3  -5  -3   70.89    9.50
   3   5   3   50.99    6.60
  -3   5  -3   66.09    8.10
  -3   5  -3   77.39    8.00
  -3  -6   3   92.59   14.10
   3  -6  -3   65.59    8.10
  -3   6   3   55.39    8.30
   2  -6  -3  120.19    8.50
  -2  -6   3  107.39   11.60
  -2   6   3  124.29    7.10
  -2   6   3  131.59   10.10
   2   6  -3  117.59    6.80
   1  -6  -3   44.30    4.30
  -1  -6   3   32.20    7.50
   1  -6  -3   46.10    5.60
  -1   6   3   48.10    7.40
   1   6  -3   49.30    6.00
   1   6  -3   37.90    3.20
  -1   6   3   41.10    3.30
   0  -6  -3  528.65   19.00
   0  -6   3  549.15   21.10
   0  -6  -3  578.34   21.60
   0  -6  -3  541.05   20.60
   0  -6   3  558.54   20.00
   0   6   3  541.15   18.90
   0   6   3  547.65   20.10
  -1  -6  -3   29.10    4.20
   1  -6   3   20.60    3.60
  -1  -6  -3   32.70    6.50
  -1  -6  -3   28.20    3.30
   1   6   3   34.80    3.50
  -1   6  -3   24.30    4.30
  -1   6  -3   26.50    3.00
   1   6   3   35.20    4.20
  -2  -6  -3    0.50    3.20
  -2  -6  -3   10.70    7.50
   2  -6   3    9.00    5.70
  -2   6  -3    7.80    3.70
   2   6   3    9.90    5.00
   2   6   3   11.30    3.40
   2   6   3    9.70    2.70
   3  -6   3   -5.80    7.80
   3   6   3    1.40    4.70
  -3   6  -3   16.40    5.80
  -2  -7   3  160.28   16.30
  -2   7   3  138.09    8.00
   1  -7  -3   39.30    7.70
  -1  -7   3   11.50    8.30
  -1   7   3   25.20    3.80
   0  -7  -3   24.70    9.00
   0  -7   3    9.30    6.80
   0   7   3   23.20    2.80
  -1  -7  -3   21.40    8.90
  -1   7  -3   21.90    3.20
  -2  -7  -3  190.58   16.70
  -2   7  -3  152.58    8.20
   4   0  -4  290.27   13.10
  -4   0   4  294.47   13.70
   4   0  -4  276.27   13.80
   4   0  -4  286.07   14.00
   3   0  -4    2.20    2.60
  -3   0   4   -2.40    3.50
   3   0  -4   -0.70    3.10
   3   0  -4   -2.50    3.30
  -3   0   4   -5.90    3.00
  -2   0   4    0.80    1.90
   2   0  -4    2.10    2.10
   2   0  -4    4.30    1.90
   2   0  -4    6.20    2.00
  -1   0   4    2.80    1.40
   1   0  -4    1.00    1.20
  -1   0   4    0.20    1.30
   1   0  -4    3.90    1.30
   0   0  -4  389.66   14.80
   0   0   4  454.45   14.70
   0   0  -4  451.65   14.70
   0   0   4  458.75   14.70
   0   0   4  456.85   14.70
   2   0   4  777.22   28.20
  -2   0  -4  820.02   28.10
   2   0   4  851.21   28.30
   2   0   4  826.62   27.90
  -2   0  -4  820.22   28.40
   2   0   4  828.42   28.50
  -2   0  -4  834.52   28.40
   3   0   4   -5.40    3.00
   3   0   4    4.60    3.00
   3   0   4   -0.40    3.30
  -3   0  -4   -0.40    3.10
  -3   0  -4   -2.00    3.10
  -3   0  -4    0.10    2.60
   3   0   4   -0.10    3.40
   4   0   4   -0.20    5.70
  -4   0  -4   17.40    5.70
  -4   0  -4   16.20    4.40
   4   0   4    8.00    5.20
  -4  -1   4   13.00    5.80
   4  -1  -4   18.00    5.10
   4  -1  -4   21.70    6.30
   4  -1  -4   18.30    5.60
  -4   1   4    9.30    5.20
   4   1  -4   16.60    5.50
   4   1  -4   20.90    4.60
   3  -1  -4   22.70    4.10
   3  -1  -4   12.30    3.40
   3  -1  -4   15.90    3.20
  -3  -1   4    7.00    3.60
  -3  -1   4   14.30    3.40
  -3   1   4   14.70    3.50
   3   1  -4   16.30    2.80
  -3   1   4   14.80    4.10
   3   1  -4   20.60    4.10
   3   1  -4   17.50    3.40
   2  -1  -4  989.70   33.10
   2  -1  -4 1007.90   33.50
   2  -1  -4  997.60   33.60
  -2  -1   4  869.21   34.90
  -2  -1   4  973.20   33.20
   2   1  -4  979.30   33.10
   2   1  -4  993.90   33.20
  -2   1   4  997.40   33.80
  -2   1   4 1010.30   33.50
   1  -1  -4  602.04   20.00
  -1  -1   4  586.44   19.80
   1  -1  -4  545.45   19.70
  -1  -1   4  604.14   19.70
   1  -1  -4  598.44   20.10
   1   1  -4  596.94   20.30
   1   1  -4  594.14   19.80
  -1   1   4  592.84   20.00
   1   1  -4  579.84   19.70
  -1   1   4  590.54   20.10
   0  -1  -4  315.57   10.60
   0  -1   4  289.37   10.50
   0  -1  -4  307.27   10.50
   0  -1   4  323.37   10.50
   0   1  -4  303.27   10.40
   0   1   4  320.27   10.40
   0   1   4  304.27   10.60
   0   1   4  314.87   10.60
  -1  -1  -4 5578.14  177.68
   1  -1   4 5573.74  177.48
  -1  -1  -4 5375.06  177.88
   1  -1   4 5421.26  177.88
  -1  -1  -4 5576.54  177.88
   1  -1   4 5449.25  177.88
  -1   1  -4 5417.16  177.88
   1   1   4 5217.98  177.68
   1   1   4 5441.36  177.58
  -1   1  -4 5263.07  177.88
  -1   1  -4 5366.86  177.38
  -1   1  -4 5157.88  177.58
   1   1   4 5457.85  177.68
  -2  -1  -4   11.80    2.40
  -2  -1  -4    9.80    2.20
   2  -1   4   10.50    2.80
   2  -1   4   13.40    2.60
  -2  -1  -4   12.80    2.50
   2  -1   4   12.80    2.80
  -2   1  -4   11.70    1.70
  -2   1  -4   13.10    2.70
   2   1   4   10.50    2.40
   2   1   4   13.80    2.30
   2   1   4    6.50    2.30
   3  -1   4   -2.40    3.30
   3  -1   4   -3.50    3.20
  -3  -1  -4    2.90    3.20
   3  -1   4    1.30    3.80
  -3  -1  -4    3.80    3.70
  -3  -1  -4   -0.60    2.90
   3   1   4   -4.10    2.90
  -3   1  -4    2.80    2.30
   3   1   4    3.40    3.40
   3   1   4    2.70    3.10
  -3   1  -4   -3.50    3.40
   3   1   4    0.20    3.40
  -3   1  -4   -0.40    3.20
   4  -1   4   24.60    5.90
  -4  -1  -4   23.80    6.10
  -4  -1  -4   10.10    4.60
   4   1   4   -2.80    5.10
   4   1   4   12.70    5.60
  -4   1  -4   21.80    5.60
   4   1   4   12.80    5.20
   4  -2  -4    6.10    5.40
  -4  -2   4    2.60    5.90
   4  -2  -4   -4.90    4.70
   4   2  -4    2.40    4.00
   4   2  -4    1.30    5.20
  -4   2   4  -12.60    5.40
   3  -2  -4   29.60    4.10
  -3  -2   4   28.60    3.90
   3  -2  -4   30.20    4.90
  -3  -2   4   28.00    4.30
   3  -2  -4   30.20    3.70
  -3   2   4   27.10    4.00
  -3   2   4   32.00    5.10
   3   2  -4   32.40    4.40
   3   2  -4   31.40    5.00
   3   2  -4   26.60    3.90
   2  -2  -4   97.89    6.00
  -2  -2   4   89.09    5.60
  -2  -2   4   94.29    5.00
  -2  -2   4  119.69    6.10
   2  -2  -4   99.69    5.50
   2   2  -4  120.79    6.40
   2   2  -4  114.69    4.70
   2   2  -4  115.69    4.70
  -2   2   4   96.79    5.30
  -2   2   4  100.09    6.10
   1  -2  -4  313.77   10.40
  -1  -2   4  299.17   10.40
  -1  -2   4  316.87   11.50
   1  -2  -4  300.47   11.00
   1  -2  -4  312.17   11.10
  -1  -2   4  290.47   10.40
   1   2  -4  320.07   11.50
  -1   2   4  306.77   11.20
  -1   2   4  306.57   10.90
   0  -2   4  634.64   21.50
   0  -2  -4  650.73   21.60
   0  -2  -4  640.14   21.60
   0  -2   4  584.74   21.50
   0   2  -4  601.54   21.40
   0   2   4  684.23   21.60
   0   2   4  660.13   21.70
   0   2  -4  610.74   21.80
   0   2   4  697.23   21.40
   0   2  -4  701.93   21.40
   1  -2   4    9.80    2.10
   1  -2   4    5.90    2.10
   1   2   4   13.00    1.90
  -1   2  -4    8.20    1.90
   2  -2   4  392.56   14.70
  -2  -2  -4  392.66   14.70
   2  -2   4  382.16   14.70
  -2  -2  -4  385.96   13.80
  -2  -2  -4  396.86   14.20
   2  -2   4  382.96   13.70
  -2   2  -4  386.96   14.50
   2   2   4  362.06   14.10
  -2   2  -4  370.86   15.00
   2   2   4  406.06   14.20
   2   2   4  390.46   14.50
   2   2   4  384.46   13.70
  -3  -2  -4   25.90    4.10
   3  -2   4   17.70    4.10
   3  -2   4   23.80    3.80
  -3  -2  -4   32.10    4.50
   3  -2   4   13.70    4.70
  -3  -2  -4   23.80    4.40
   3   2   4   22.80    4.40
   3   2   4   23.00    6.10
   3   2   4   40.30    5.70
  -3   2  -4   16.90    4.50
   3   2   4   19.70    3.40
  -3   2  -4   24.60    4.40
  -4  -2  -4   30.10    6.90
  -4  -2  -4   24.70    6.20
   4  -2   4   19.90    6.40
   4   2   4   22.40    5.90
   4   2   4   26.10    5.60
  -4   2  -4   17.50    5.80
   4  -3  -4   -4.30    5.80
  -4  -3   4   13.70    7.50
   4   3  -4    0.90    3.90
  -4   3   4   15.00    6.30
   3  -3  -4   22.60    4.70
  -3  -3   4   21.10    3.90
   3  -3  -4   21.90    3.50
  -3  -3   4   13.60    4.90
  -3  -3   4   25.30    4.10
   3  -3  -4   23.20    5.30
   3   3  -4   25.80    3.80
  -3   3   4   27.40    5.50
  -3   3   4   26.30    4.10
   3   3  -4   21.90    3.10
  -2  -3   4   72.19    5.60
   2  -3  -4   68.79    4.90
   2  -3  -4   63.59    3.20
   2  -3  -4   62.89    5.60
   2   3  -4   57.19    5.80
  -2   3   4   72.19    5.80
   2   3  -4   63.49    3.20
   2   3  -4   66.39    2.90
  -2   3   4   65.69    4.30
  -1  -3   4 1932.81   62.79
   1  -3  -4 1862.41   62.39
   1  -3  -4 1863.21   62.19
   1  -3  -4 1788.22   61.39
  -1   3   4 1860.61   61.99
  -1   3   4 1914.41   62.49
   1  -3   4   86.39    4.80
   1  -3   4   90.59    5.00
  -1  -3  -4   93.79    5.30
   1  -3   4   91.79    3.30
  -1  -3  -4   83.39    4.20
  -1   3  -4   89.79    4.40
   1   3   4   90.49    3.90
  -1   3  -4   84.79    4.60
   1   3   4   89.19    4.30
   1   3   4   86.79    3.60
   2  -3   4  486.35   17.80
  -2  -3  -4  458.45   16.40
  -2  -3  -4  469.15   18.00
   2  -3   4  478.55   16.30
   2  -3   4  495.25   17.90
  -2  -3  -4  478.05   17.00
   2   3   4  462.65   16.30
  -2   3  -4  478.15   17.40
   2   3   4  481.15   17.00
   2   3   4  448.76   17.10
  -2   3  -4  472.15   17.60
   2   3   4  467.35   17.70
   3  -3   4  636.94   25.00
  -3  -3  -4  651.93   25.00
  -3  -3  -4  656.53   24.20
   3  -3   4  664.13   23.20
   3  -3   4  679.83   24.90
  -3   3  -4  687.13   24.80
   3   3   4  679.53   24.00
   3   3   4  649.43   23.20
   3   3   4  607.64   24.00
  -3   3  -4  682.03   24.60
  -4  -3  -4  226.58   15.00
  -4  -3  -4  212.28   13.70
   4  -3   4  235.28   14.10
   4   3   4  219.88   12.10
  -4   3  -4  227.18   13.00
   4  -4  -4   12.20    7.00
   4  -4  -4   16.10    6.70
   4   4  -4    9.30    4.10
  -4   4   4    1.00    6.10
   3  -4  -4   54.19    6.90
  -3  -4   4   45.70    5.70
   3  -4  -4   36.10    3.80
   3  -4  -4   40.80    5.70
  -3  -4   4   37.40    6.90
  -3  -4   4   45.70    4.50
   3   4  -4   41.10    2.80
  -3   4   4   47.00    6.70
  -3   4   4   46.80    6.10
   3   4  -4   41.80    3.70
   2  -4  -4   40.60    4.70
  -2  -4   4   37.20    2.30
   2  -4  -4   31.40    3.00
  -2   4   4   45.40    6.50
  -2   4   4   36.80    4.10
   2   4  -4   54.39    6.70
   1  -4  -4   44.60    4.60
  -1  -4   4   43.00    5.00
   1  -4  -4   39.00    3.30
   1  -4  -4   45.20    3.60
  -1   4   4   41.60    2.70
   1   4  -4   41.00    4.80
  -1   4   4   39.60    4.30
   1   4  -4   39.10    2.60
   0  -4   4   79.29    4.90
   0  -4  -4   81.79    3.60
   0  -4   4   76.89    4.30
   0  -4  -4   75.89    4.10
   0  -4  -4   81.29    5.00
   0  -4   4   69.19    4.30
   0   4  -4   86.89    4.70
   0   4   4   84.79    2.90
   0   4  -4   84.09    3.50
   0   4  -4   82.09    3.00
   0   4   4   81.19    4.40
   0   4   4   81.69    3.40
   0   4  -4   78.59    3.00
  -1  -4  -4   74.09    3.50
   1  -4   4   70.79    5.50
   1  -4   4   67.49    4.60
  -1  -4  -4   76.39    5.70
   1  -4   4   80.49    3.00
   1   4   4   75.79    4.10
   1   4   4   77.09    3.60
   1   4   4   81.99    3.70
  -1   4  -4   66.29    4.00
  -1   4  -4   67.69    4.60
   2  -4   4 1305.37   43.70
  -2  -4  -4 1226.68   42.10
  -2  -4  -4 1232.68   42.70
   2  -4   4 1316.57   43.60
   2  -4   4 1261.27   41.70
   2   4   4 1212.18   43.60
   2   4   4 1278.77   42.70
  -2   4  -4 1278.07   44.00
  -2   4  -4 1299.97   43.50
   2   4   4 1214.78   41.90
   2   4   4 1228.88   42.80
  -3  -4  -4    0.80    4.90
  -3  -4  -4    9.10    5.80
   3  -4   4   10.40    3.20
   3  -4   4   -4.50    5.20
   3   4   4    1.30    4.00
  -3   4  -4   10.60    4.30
  -3   4  -4    3.10    5.30
   4  -4   4   77.69   11.80
  -4  -4  -4   97.29   14.10
   4   4   4   62.29    8.70
  -4   4  -4   79.49    9.90
   3  -5  -4   29.90    5.50
  -3  -5   4   29.10    8.90
  -3  -5   4   30.10    3.20
   3  -5  -4   26.40    3.40
  -3   5   4   36.60    5.40
  -3   5   4   27.40    7.70
   2  -5  -4    8.20    3.00
   2  -5  -4    5.50    3.80
  -2  -5   4    6.40    5.50
  -2   5   4    5.40    5.30
  -2   5   4   14.30    3.20
   2   5  -4   10.70    5.60
   1  -5  -4   77.39    5.60
   1  -5  -4   70.99    4.50
  -1  -5   4   67.29    6.70
   1  -5  -4   82.39    6.80
   1   5  -4   71.29    6.50
  -1   5   4   68.19    3.90
  -1   5   4   71.09    6.20
   1   5  -4   60.89    3.60
   0  -5  -4   29.20    4.20
   0  -5   4   30.70    4.10
   0  -5   4   32.10    4.50
   0  -5  -4   29.30    3.60
   0  -5  -4   29.10    2.60
   0  -5   4   27.10    2.40
   0   5   4   32.80    2.40
   0   5  -4   27.00    4.20
   0   5  -4   26.60    1.50
   0   5  -4   25.70    1.40
   0   5   4   32.00    4.20
   0   5  -4   26.90    3.30
  -1  -5  -4  770.72   27.10
  -1  -5  -4  794.92   27.50
   1  -5   4  809.42   28.30
   1  -5   4  769.62   27.80
  -1  -5  -4  815.22   29.00
   1   5   4  803.22   27.10
   1   5   4  798.92   27.20
  -1   5  -4  822.02   27.70
   1   5   4  819.92   27.10
  -1   5  -4  769.12   27.20
  -2  -5  -4  125.29   10.10
  -2  -5  -4  125.79    6.00
   2  -5   4  138.39    9.10
   2   5   4  138.39    7.90
  -2   5  -4  152.08    8.70
   2   5   4  134.09    7.10
   2   5   4  136.29    5.90
  -2   5  -4  150.58    7.50
  -3  -5  -4    2.10    7.80
  -3   5  -4    3.00    6.50
  -3   5  -4    6.90    5.00
   3   5   4   -0.60    4.50
  -3  -6   4   71.09   11.30
   3  -6  -4   58.39    7.90
   3   6  -4   72.29    7.30
  -3   6   4   75.89    8.70
  -2  -6   4   30.00    8.00
   2  -6  -4   19.70    5.00
   2   6  -4   28.30    4.00
  -2   6   4   25.00    3.90
  -2   6   4   16.40    6.50
   1  -6  -4   51.99    7.50
   1  -6  -4   32.10    4.30
  -1  -6   4   38.70    8.10
  -1   6   4   37.60    3.40
  -1   6   4   46.30    5.90
   1   6  -4   38.20    3.00
   1   6  -4   48.60    7.50
   0  -6   4   18.20    4.50
   0  -6  -4   48.90    6.20
   0  -6   4   34.50    2.90
   0  -6  -4   36.00    5.20
   0  -6  -4   27.50    3.20
   0   6   4   35.80    4.70
  -1  -6  -4    8.10    3.90
  -1  -6  -4   21.90    6.20
   1  -6   4    9.50    3.40
  -1  -6  -4   10.60    2.90
   1  -6   4    6.60    5.90
  -1   6  -4   15.70    2.30
   1   6   4   15.10    2.40
   1   6   4    9.80    3.10
  -1   6  -4   15.80    3.70
   2  -6   4    3.80    5.60
  -2  -6  -4   13.80    7.60
  -2   6  -4    7.10    3.60
   2   6   4    6.10    5.00
   3   6   4   17.30    5.40
  -3   6  -4   35.80    7.10
  -2  -7   4   41.60   11.40
  -2   7   4   30.90    4.40
  -1  -7   4   19.60    9.30
   1  -7  -4   24.30    8.50
  -1   7   4   16.20    2.90
   0  -7   4   18.10    6.30
   0  -7  -4    5.20    7.90
   0   7   4    2.00    2.50
  -1  -7  -4   26.30   10.70
  -1   7  -4   15.80    2.40
  -2  -7  -4   29.20   12.30
  -2   7  -4   31.50    4.20
   4   0  -5    6.20    4.30
  -4   0   5   -3.20    5.10
   4   0  -5    2.40    5.40
   4   0  -5   -2.00    5.50
   3   0  -5    8.50    3.40
   3   0  -5   -2.20    3.20
  -3   0   5    3.60    3.30
   3   0  -5   -0.70    2.40
  -3   0   5    7.00    3.80
   2   0  -5    0.70    1.70
   2   0  -5    3.90    2.30
  -2   0   5    0.80    2.30
  -2   0   5    0.80    1.90
   2   0  -5    3.10    2.00
   1   0  -5 3556.34  123.29
   1   0  -5 3830.02  123.29
  -1   0   5 3818.72  123.39
   1   0  -5 3872.61  123.39
  -1   0   5 3679.43  123.39
   1   0   5 2873.31   92.69
  -1   0  -5 2779.52   92.59
  -1   0  -5 2656.73   92.59
   1   0   5 2853.91   92.59
  -1   0  -5 2884.51   92.79
  -2   0  -5    3.30    1.90
   2   0   5    3.90    2.20
   2   0   5    4.40    2.30
  -2   0  -5    0.30    2.10
  -2   0  -5    2.30    2.20
   2   0   5   -1.10    2.10
  -3   0  -5    2.80    3.40
   3   0   5    6.50    3.40
   3   0   5    5.40    3.60
  -3   0  -5    6.90    3.30
  -3   0  -5    4.60    2.90
   3   0   5    7.80    3.50
   4   0   5   -3.20    5.60
  -4   0  -5    0.60    4.10
  -4   0  -5   -0.60    5.30
   4  -1  -5    8.40    5.40
  -4  -1   5   -1.60    5.50
   4  -1  -5    8.30    4.70
   4  -1  -5    0.80    5.90
   4   1  -5   12.40    5.30
  -4   1   5   15.00    5.30
   4   1  -5    8.10    4.20
   3  -1  -5   59.19    6.00
   3  -1  -5   58.99    5.50
  -3  -1   5   58.19    5.80
   3  -1  -5   58.39    5.10
  -3  -1   5   63.49    5.40
   3   1  -5   64.89    6.30
  -3   1   5   60.19    5.40
  -3   1   5   47.10    6.40
   3   1  -5   65.09    5.20
   3   1  -5   63.99    4.50
   2  -1  -5  496.85   17.60
   2  -1  -5  492.15   17.40
  -2  -1   5  454.85   17.90
  -2  -1   5  497.75   17.20
   2   1  -5  500.85   17.20
   2   1  -5  485.15   17.70
   2   1  -5  468.75   17.00
  -2   1   5  499.55   17.40
  -2   1   5  499.75   17.80
  -1  -1   5  246.48    8.60
   1  -1  -5  247.58    9.00
  -1  -1   5  242.58    8.70
   1  -1  -5  243.28    8.60
   1  -1  -5  259.97    9.10
   1   1  -5  258.27    9.40
  -1   1   5  250.47    8.90
   1   1  -5  244.58    8.60
   1   1  -5  254.47    8.70
  -1   1   5  252.07    9.10
   0  -1   5   11.50    1.20
   0  -1   5   11.70    1.20
   0   1  -5    9.70    1.30
  -1  -1  -5 1895.61   65.69
  -1  -1  -5 2009.30   65.59
   1  -1   5 2039.90   65.69
  -1  -1  -5 1971.40   65.39
   1  -1   5 1981.10   65.79
   1  -1   5 2062.89   65.29
  -1   1  -5 1943.41   65.69
  -1   1  -5 1984.00   65.59
   1   1   5 1986.70   65.39
   1   1   5 1962.40   65.49
  -1   1  -5 1945.81   65.39
  -2  -1  -5 1198.58   40.30
   2  -1   5 1182.08   40.50
  -2  -1  -5 1181.38   40.30
   2  -1   5 1192.48   40.40
   2   1   5 1211.08   40.30
  -2   1  -5 1175.68   39.60
   2   1   5 1124.69   40.00
   2   1   5 1210.48   40.00
  -2   1  -5 1194.28   40.50
   3  -1   5  178.58    9.20
   3  -1   5  167.18    9.00
  -3  -1  -5  185.58    9.10
   3  -1   5  165.98    8.20
  -3  -1  -5  175.28    8.70
   3   1   5  176.58    8.70
  -3   1  -5  168.98    7.50
   3   1   5  186.28    8.40
   3   1   5  161.08    8.70
  -3   1  -5  179.48    8.90
  -3   1  -5  177.88    9.00
  -4  -1  -5   78.79    7.70
   4  -1   5   65.69    8.70
  -4   1  -5   80.59    8.70
   4   1   5   76.29    8.20
   4   1   5   78.19    8.50
  -4  -2   5   -5.10    5.70
   4  -2  -5    1.80    5.30
   4  -2  -5    7.20    5.30
   4   2  -5    5.40    5.00
  -4   2   5   13.50    5.70
   4   2  -5    6.10    3.90
   3  -2  -5  162.48    8.60
   3  -2  -5  157.98    9.00
  -3  -2   5  154.38    8.30
  -3  -2   5  157.38    7.90
   3  -2  -5  160.48    8.30
  -3   2   5  166.28    9.30
   3   2  -5  159.28    7.30
   3   2  -5  163.58    9.30
   3   2  -5  159.08    7.70
  -3   2   5  162.88    8.10
   2  -2  -5   26.50    4.00
  -2  -2   5   26.20    3.30
   2  -2  -5   27.80    3.50
  -2  -2   5   24.10    3.10
   2   2  -5   27.60    3.70
  -2   2   5   33.40    4.50
   2   2  -5   33.00    2.70
   2   2  -5   26.20    2.40
  -2   2   5   28.30    3.20
   1  -2  -5  271.77    9.80
  -1  -2   5  259.47    9.00
   1  -2  -5  284.47    9.00
   1  -2  -5  272.17    9.60
  -1  -2   5  244.68    8.90
   1   2  -5  272.37   10.10
  -1   2   5  269.17    9.90
  -1   2   5  267.87    9.50
   1   2  -5  238.78    9.30
   0  -2   5  810.52   28.40
   0  -2  -5  849.22   28.40
   0  -2  -5  880.41   28.50
   0  -2   5  868.11   28.40
   0  -2  -5  879.51   28.50
   0   2  -5  816.72   28.70
   0   2  -5  921.31   28.30
   0   2  -5  777.92   28.30
   0   2   5  904.31   28.50
   0   2   5  920.91   28.30
   0   2   5  865.81   28.60
   0   2  -5  787.02   28.40
   1  -2   5  818.52   25.90
  -1  -2  -5  796.92   26.10
  -1  -2  -5  792.22   26.20
   1  -2   5  800.52   26.60
   1  -2   5  759.92   26.60
  -1  -2  -5  764.82   26.70
   1   2   5  777.52   26.00
  -1   2  -5  750.12   26.10
  -1   2  -5  778.52   26.60
   1   2   5  772.52   26.20
  -1   2  -5  777.62   26.50
   1   2   5  761.62   26.30
   2  -2   5  214.68    9.30
  -2  -2  -5  212.58    8.20
  -2  -2  -5  223.48    9.30
  -2  -2  -5  220.18    8.90
   2  -2   5  215.58    9.30
   2  -2   5  212.98    8.10
   2   2   5  219.98    8.80
   2   2   5  206.38    8.80
   2   2   5  215.88    9.10
  -2   2  -5  203.18    9.00
   2   2   5  211.38    8.20
  -2   2  -5  213.68    9.80
  -3  -2  -5   20.50    4.20
   3  -2   5   17.00    4.80
   3  -2   5   16.60    4.30
  -3  -2  -5   22.40    3.50
   3  -2   5   19.40    3.80
  -3  -2  -5   24.00    4.20
   3   2   5   19.20    4.30
   3   2   5   18.70    4.60
   3   2   5   18.10    5.10
  -3   2  -5   14.50    4.30
  -4  -2  -5  230.88   13.40
   4  -2   5  242.78   13.50
  -4  -2  -5  223.98   13.70
   4   2   5  228.38   11.70
  -4   2  -5  243.78   12.80
   4   2   5  228.38   12.40
   4  -3  -5   60.29    9.00
  -4   3   5   82.79    9.00
   4   3  -5   60.69    6.10
   3  -3  -5    8.20    5.00
   3  -3  -5    7.90    6.40
   3  -3  -5   -0.90    3.20
  -3  -3   5    6.20    3.50
  -3  -3   5    6.40    3.60
   3   3  -5    3.00    2.60
   3   3  -5    8.00    2.40
  -3   3   5    6.20    4.80
  -3   3   5    9.30    3.70
   2  -3  -5  171.38    6.70
  -2  -3   5  174.98    7.00
  -2  -3   5  188.68    8.90
   2  -3  -5  194.98    8.10
   2  -3  -5  166.48    8.60
   2   3  -5  179.48    6.40
   2   3  -5  174.98    6.50
  -2   3   5  186.68    7.70
   2   3  -5  185.18    9.00
  -2   3   5  185.78    8.90
  -1  -3   5  867.01   28.20
   1  -3  -5  804.42   27.70
   1  -3  -5  809.32   27.50
   1  -3  -5  788.12   26.80
  -1   3   5  819.02   27.30
  -1   3   5  830.12   27.80
   1   3  -5  776.52   27.10
   1   3  -5  769.82   28.70
   0  -3   5 1985.30   63.09
   0  -3  -5 1904.31   63.69
   0  -3  -5 1907.61   63.39
   0  -3  -5 1911.71   63.19
   0   3  -5 1948.41   63.59
   0   3  -5 1829.62   62.89
   0   3   5 1924.21   62.89
   0   3  -5 1895.01   62.89
   0   3   5 1870.41   63.19
   0   3   5 1950.60   63.39
  -1  -3  -5   64.39    2.90
   1  -3   5   64.59    2.60
  -1  -3  -5   63.59    3.20
  -1  -3  -5   59.19    4.50
   1  -3   5   70.09    4.50
   1  -3   5   61.99    4.10
   1   3   5   60.09    3.10
   1   3   5   63.89    3.00
  -1   3  -5   58.69    2.90
  -1   3  -5   68.29    3.90
   1   3   5   61.69    3.50
  -1   3  -5   63.89    3.70
   2  -3   5   12.40    3.50
   2  -3   5    9.00    3.70
  -2  -3  -5   24.20    3.70
  -2  -3  -5   14.50    2.10
  -2  -3  -5   15.30    3.40
   2   3   5   20.00    2.40
   2   3   5   17.30    3.20
  -2   3  -5   16.90    2.90
   2   3   5   24.80    3.50
  -2   3  -5   12.40    3.20
   3  -3   5  170.18   13.20
  -3  -3  -5  191.28    9.90
  -3  -3  -5  188.48   10.80
   3  -3   5  189.58    8.40
   3  -3   5  186.18   10.40
   3   3   5  197.28    9.20
   3   3   5  183.68    8.30
  -3   3  -5  181.48    9.60
   3   3   5  183.68    9.70
  -3   3  -5  186.68   10.20
   4  -3   5   36.90    7.70
  -4  -3  -5   47.40    8.10
  -4  -3  -5   54.49    8.00
   4   3   5   64.19    8.60
  -4   3  -5   44.90    7.10
   4  -4  -5   81.69   10.10
   4   4  -5   71.39    6.10
  -4   4   5   89.99    9.80
   3  -4  -5   13.30    3.60
   3  -4  -5    9.60    4.50
   3  -4  -5   15.10    2.80
  -3  -4   5   15.70    3.20
   3   4  -5   13.90    2.30
  -3   4   5   19.00    5.80
  -3   4   5   23.30    4.30
   2  -4  -5  792.52   27.70
  -2  -4   5  783.82   28.60
  -2  -4   5  792.12   26.40
   2  -4  -5  780.72   26.20
  -2   4   5  833.82   28.70
   2   4  -5  741.63   28.70
   1  -4  -5   59.69    3.80
   1  -4  -5   61.49    4.90
  -1  -4   5   58.79    5.30
   1  -4  -5   63.59    4.10
  -1   4   5   59.19    3.30
   1   4  -5   60.79    5.30
   1   4  -5   61.09    3.20
  -1   4   5   62.39    4.90
   0  -4  -5  250.67    9.00
   0  -4   5  239.48    8.80
   0  -4  -5  245.08   10.00
   0  -4   5  268.07    9.20
   0  -4  -5  250.57    9.30
   0   4   5  247.68    8.40
   0   4  -5  242.68    8.40
   0   4  -5  243.28    8.40
   0   4  -5  252.87    9.70
   0   4   5  240.48    8.80
   0   4   5  251.97    9.40
  -1  -4  -5  261.97    9.40
   1  -4   5  252.17   10.30
   1  -4   5  263.77    8.90
   1  -4   5  280.37   10.80
  -1  -4  -5  254.47    9.50
  -1  -4  -5  244.88   11.10
   1   4   5  261.67    9.60
   1   4   5  257.37    9.40
  -1   4  -5  265.37   10.10
   1   4   5  269.37    9.60
  -1   4  -5  260.67    9.80
  -2  -4  -5  436.06   22.80
   2  -4   5  533.55   20.00
   2  -4   5  553.64   20.30
   2  -4   5  568.94   17.90
  -2  -4  -5  505.55   18.30
  -2  -4  -5  537.65   19.00
  -2   4  -5  536.75   19.60
   2   4   5  520.95   18.10
   2   4   5  539.55   19.00
   2   4   5  525.75   19.20
  -3  -4  -5  277.67   14.30
  -3  -4  -5  263.37   12.50
   3  -4   5  269.77   13.30
   3  -4   5  269.57   10.30
   3   4   5  257.47   11.60
  -3   4  -5  275.87   13.10
   3   4   5  237.68   10.30
  -3   4  -5  267.17   12.50
  -4  -4  -5   70.29   10.80
   4  -4   5   91.29   10.60
   4   4   5   92.79    9.40
  -4   4  -5   72.09   10.30
   3  -5  -5  266.47   12.70
   3  -5  -5  268.87    9.90
  -3   5   5  221.88   14.60
  -3   5   5  258.97   12.00
  -2  -5   5   14.80    5.70
   2  -5  -5   14.00    3.50
   2  -5  -5   13.70    3.80
   2   5  -5   18.30    6.60
  -2   5   5   20.70    5.80
  -2   5   5   16.70    3.30
   2   5  -5   15.00    2.90
  -1  -5   5   24.30    4.60
   1  -5  -5   20.90    2.90
   1  -5  -5   22.60    4.50
   1  -5  -5   27.80    3.90
  -1   5   5   20.50    4.20
  -1   5   5   22.00    2.70
   1   5  -5   24.60    2.50
   1   5  -5   23.30    4.70
   0  -5  -5    5.70    1.80
   0  -5  -5    8.40    3.00
   0  -5  -5    7.60    3.70
   0  -5   5    4.40    3.10
   0  -5   5    3.60    1.70
   0   5   5    7.70    1.60
   0   5  -5    8.30    1.10
   0   5   5    8.60    3.10
   0   5  -5    9.80    3.10
  -1  -5  -5   49.80    6.40
  -1  -5  -5   40.60    3.60
  -1  -5  -5   50.29    3.50
   1   5   5   44.30    3.90
   1   5   5   48.30    3.50
   1   5   5   51.69    3.70
  -2  -5  -5  137.59    9.90
  -2  -5  -5  118.59    5.70
   2  -5   5  134.29    8.70
  -2  -5  -5  118.49    6.90
   2  -5   5  118.89    4.70
   2   5   5  114.09    6.70
   2   5   5  117.19    5.70
  -2   5  -5  138.39    7.40
  -2   5  -5  128.69    8.20
   2   5   5  126.09    7.30
  -3  -5  -5   17.30    7.50
   3  -5   5    6.30   11.20
  -3   5  -5   11.60    5.10
   3   5   5    5.40    5.00
  -3   5  -5   11.10    6.50
   3  -6  -5   22.90    6.90
   3   6  -5   10.10    5.20
  -3   6   5   17.10    6.50
   2  -6  -5   85.99    7.40
  -2  -6   5   59.99    9.60
   2  -6  -5   61.09    7.10
  -2   6   5   70.09    6.00
  -2   6   5   72.49   10.20
   2   6  -5   71.59    5.60
   1  -6  -5    2.60    2.90
   1  -6  -5    1.40    5.40
  -1  -6   5    7.60    6.90
   1   6  -5    6.30    2.00
   1   6  -5    0.60    5.00
  -1   6   5    2.00    2.10
  -1   6   5   -1.00    5.30
   0  -6  -5   27.20    5.60
   0  -6  -5   10.90    2.50
   0  -6   5   10.80    4.20
   0  -6  -5    3.20    4.40
   0   6   5   15.90    2.20
   0   6   5   16.50    4.30
  -1  -6  -5   79.69    9.70
  -1  -6  -5   67.09    6.10
   1  -6   5   72.59    5.70
  -1  -6  -5   59.99    6.20
   1   6   5   72.39    4.00
  -1   6  -5   72.99    4.80
   1   6   5   78.39    5.20
   1   6   5   73.29    5.60
  -1   6  -5   86.69    5.80
   2  -6   5   24.00    6.50
  -2  -6  -5   23.20    8.50
   2   6   5   26.30    5.20
   2   6   5   26.10    4.80
  -2   6  -5   34.10    4.40
  -2   7   5   41.60    5.80
   1  -7  -5  179.28   14.10
  -1   7   5  170.48    7.80
   0  -7   5   13.10    6.60
   0  -7  -5   13.90    9.50
   0   7   5   14.40    2.90
  -1  -7  -5   99.59   12.90
  -1   7  -5  112.09    5.20
   4   0  -6   66.69    8.50
  -4   0   6   81.19    8.00
   4   0  -6   69.79    7.10
   4   0  -6   74.49    8.90
  -3   0   6   -4.10    3.10
   3   0  -6    0.20    3.70
   3   0  -6   -0.50    2.30
   3   0  -6   -1.50    3.30
  -3   0   6    0.00    3.80
  -2   0   6  898.41   30.60
  -2   0   6  886.01   30.30
   2   0  -6  875.61   30.40
   2   0  -6  914.91   30.30
   2   0  -6  877.31   30.50
  -1   0   6    4.10    1.10
   0   0   6  683.83   22.80
   0   0  -6  680.53   22.90
   0   0  -6  668.23   22.80
   0   0  -6  672.43   22.80
   0   0   6  684.73   22.90
  -1   0  -6   18.10    2.20
   1   0   6   13.60    1.90
  -1   0  -6   18.00    1.90
   1   0   6   13.60    2.10
   2   0   6 3506.25  117.09
  -2   0  -6 3595.44  117.59
  -2   0  -6 3567.44  117.19
   2   0   6 3496.45  117.49
  -2   0  -6 3594.44  117.29
   2   0   6 3499.55  117.39
  -3   0  -6   -2.70    3.40
   3   0   6    1.60    3.50
  -3   0  -6   -1.50    3.30
  -3   0  -6   -0.10    2.60
   3   0   6   -2.90    3.20
   3   0   6   -2.50    3.40
  -4   0  -6  141.69   10.00
   4   0   6  136.29    9.90
  -4   0  -6  130.99    8.70
   4   0   6  119.69    9.70
   4  -1  -6   18.70    6.10
   4  -1  -6   20.30    6.00
  -4  -1   6   16.50    5.70
   4  -1  -6   17.90    5.00
   4   1  -6   17.70    4.50
   4   1  -6   31.20    5.70
  -4   1   6   16.70    5.30
  -3  -1   6   55.69    5.40
   3  -1  -6   50.29    5.50
   3  -1  -6   50.99    4.90
   3  -1  -6   49.70    5.80
  -3  -1   6   48.60    6.00
  -3   1   6   56.49    6.40
  -3   1   6   49.10    5.20
   3   1  -6   53.39    4.30
   3   1  -6   53.59    5.10
   3   1  -6   52.19    6.40
   2  -1  -6   47.80    4.00
   2  -1  -6   42.60    3.60
  -2  -1   6   40.90    4.00
  -2  -1   6   37.00    3.30
   2   1  -6   46.10    3.40
  -2   1   6   45.10    4.40
   2   1  -6   47.60    4.40
  -2   1   6   42.50    3.50
   2   1  -6   40.40    3.00
   1  -1  -6  716.53   24.00
   1  -1  -6  729.23   23.80
  -1  -1   6  693.13   23.80
   1  -1  -6  724.13   24.10
  -1  -1   6  715.83   23.70
   1   1  -6  715.23   23.60
   1   1  -6  653.33   23.90
  -1   1   6  721.23   24.20
   1   1  -6  712.33   23.80
   1   1  -6  743.03   24.40
  -1   1   6  704.23   23.90
   0  -1  -6  594.64   19.70
   0  -1  -6  599.74   19.60
   0  -1   6  589.04   19.60
   0  -1   6  600.14   19.60
   0  -1   6  577.34   19.60
   0  -1  -6  582.64   19.70
   0   1  -6  589.14   19.50
   0   1  -6  585.34   19.60
   0   1   6  607.34   19.60
   0   1   6  588.44   19.70
   0   1  -6  559.14   19.60
   0   1   6  593.94   19.70
  -1  -1  -6  210.68    8.20
  -1  -1  -6  222.48    8.10
  -1  -1  -6  222.78    7.90
   1  -1   6  229.38    8.30
  -1  -1  -6  198.08    8.00
   1  -1   6  219.08    8.40
   1  -1   6  233.38    7.80
   1   1   6  227.68    7.90
  -1   1  -6  218.78    8.30
  -1   1  -6  221.38    8.20
  -1   1  -6  217.08    7.90
   1   1   6  217.68    8.00
  -2  -1  -6   11.90    2.20
   2  -1   6    8.70    2.80
  -2  -1  -6    9.80    2.50
   2  -1   6    7.10    2.70
  -2  -1  -6    8.40    2.30
   2  -1   6    6.00    2.30
   2   1   6    6.70    2.10
   2   1   6    7.50    2.50
  -2   1  -6   11.30    1.80
  -2   1  -6   10.20    2.60
  -2   1  -6    8.50    2.70
   2   1   6    9.70    2.50
  -3  -1  -6  124.89    7.70
   3  -1   6  124.79    7.10
   3  -1   6  138.79    8.00
  -3  -1  -6  122.19    7.30
   3  -1   6  123.99    7.70
  -3   1  -6  130.19    6.30
  -3   1  -6  125.09    7.50
  -3   1  -6  128.29    7.50
   3   1   6  128.19    7.30
   3   1   6  125.89    8.90
  -4  -1  -6   11.60    4.90
   4  -1   6    9.70    5.80
  -4  -1  -6   19.90    6.30
  -4   1  -6   10.90    5.70
   4   1   6   10.20    5.40
   4   1   6    9.00    5.60
  -4  -2   6    0.00    5.80
   4  -2  -6   11.00    6.10
   4  -2  -6    9.00    5.10
  -4   2   6    2.60    5.30
   4   2  -6    3.90    3.90
   4   2  -6    4.90    4.90
   3  -2  -6   54.59    6.30
  -3  -2   6   39.70    5.80
   3  -2  -6   58.89    5.40
   3  -2  -6   38.60    5.50
  -3  -2   6   45.60    5.20
   3   2  -6   56.19    7.00
   3   2  -6   38.10    4.70
  -3   2   6   44.50    5.10
  -3   2   6   46.50    6.70
   3   2  -6   45.10    4.10
   2  -2  -6   61.09    4.90
  -2  -2   6   63.89    3.80
   2  -2  -6   70.99    4.40
   2  -2  -6   59.09    3.30
  -2  -2   6   67.69    4.30
  -2   2   6   64.29    4.10
   2   2  -6   66.89    5.30
   2   2  -6   66.49    3.60
   2   2  -6   63.29    3.30
  -2   2   6   69.39    5.20
  -1  -2   6  155.78    5.70
   1  -2  -6  164.68    5.50
  -1  -2   6  156.58    5.40
   1  -2  -6  154.08    6.20
   1  -2  -6  161.88    6.40
  -1   2   6  159.98    6.00
  -1   2   6  160.48    6.50
   1   2  -6  156.88    6.80
   1   2  -6  144.49    5.90
   0  -2   6 1192.38   38.50
   0  -2  -6 1171.28   38.50
   0  -2   6 1194.58   38.50
   0  -2  -6 1163.48   38.60
   0  -2  -6 1162.08   38.60
   0   2   6 1167.38   38.70
   0   2  -6 1148.49   38.90
   0   2  -6 1173.28   38.40
   0   2  -6 1130.99   38.50
   0   2  -6 1141.69   38.40
   0   2   6 1141.39   38.60
   0   2   6 1193.18   38.40
  -1  -2  -6  436.06   14.90
  -1  -2  -6  418.66   15.40
   1  -2   6  422.46   15.30
   1  -2   6  479.15   14.60
   1  -2   6  399.46   15.30
  -1  -2  -6  442.56   14.70
   1   2   6  440.06   14.90
  -1   2  -6  424.66   15.10
   1   2   6  437.26   14.70
   1   2   6  431.26   14.90
  -1   2  -6  394.16   15.20
  -1   2  -6  431.86   14.70
  -2  -2  -6   18.10    3.10
   2  -2   6   14.50    3.20
  -2  -2  -6   19.00    2.70
  -2  -2  -6   19.40    2.90
   2  -2   6   14.80    3.30
   2   2   6   18.40    2.70
   2   2   6   16.50    2.10
   2   2   6   22.20    3.00
  -2   2  -6   16.60    2.90
   3  -2   6  323.87   14.20
   3  -2   6  311.97   12.80
  -3  -2  -6  339.47   14.40
   3  -2   6  332.77   14.30
  -3  -2  -6  345.17   13.80
  -3  -2  -6  292.37   13.30
   3   2   6  339.47   13.00
   3   2   6  329.57   13.50
   3   2   6  332.47   13.60
  -3   2  -6  336.47   14.20
  -3   2  -6  332.57   13.90
  -4  -2  -6  234.78   13.30
  -4  -2  -6  212.48   12.80
   4  -2   6  244.18   13.60
  -4   2  -6  237.58   13.00
   4   2   6  205.48   12.30
   4   2   6  230.38   11.80
   4  -3  -6   47.70    6.70
  -4   3   6   47.60    6.90
   4   3  -6   32.30    4.40
  -3  -3   6   44.30    5.40
   3  -3  -6   62.49    8.40
   3  -3  -6   48.30    6.40
   3  -3  -6   42.30    3.90
   3  -3  -6   48.60    5.50
   3   3  -6   46.20    4.10
   3   3  -6   45.40    3.80
  -3   3   6   40.20    5.50
  -3   3   6   58.59    7.80
   2  -3  -6  341.37   13.50
   2  -3  -6  347.67   11.70
  -2  -3   6  324.37   12.30
  -2  -3   6  283.87   11.90
   2  -3  -6  351.66   12.80
   2   3  -6  339.37   13.80
  -2   3   6  344.77   12.60
   2   3  -6  326.17   11.30
  -2   3   6  350.16   13.60
   2   3  -6  336.87   11.30
   1  -3  -6 1985.50   65.89
   1  -3  -6 2019.20   66.19
   1  -3  -6 1952.40   65.19
  -1   3   6 1965.90   65.69
   1   3  -6 2040.50   66.59
   1   3  -6 1886.81   65.59
  -1   3   6 2034.30   66.29
   0  -3  -6  147.79    5.30
   0  -3  -6  121.09    5.70
   0  -3  -6  146.49    6.00
   0  -3  -6  130.09    5.20
   0   3  -6  127.89    6.00
   0   3   6  141.09    5.20
   0   3   6  141.39    5.60
   1  -3   6    1.70    2.40
   1  -3   6    5.30    2.30
  -1  -3  -6    5.10    1.20
  -1  -3  -6    3.30    2.20
   1  -3   6    5.20    1.00
  -1  -3  -6    5.20    1.50
   1   3   6    4.50    1.80
  -1   3  -6    3.60    1.80
  -1   3  -6    6.10    1.90
  -1   3  -6    3.00    1.30
   1   3   6    3.20    1.30
   1   3   6    4.20    1.30
   2  -3   6  219.58    7.90
   2  -3   6  218.78    9.80
  -2  -3  -6  206.68    9.80
   2  -3   6  218.38    9.90
  -2  -3  -6  207.88    8.20
  -2  -3  -6  210.08    8.90
   2   3   6  219.18    8.80
  -2   3  -6  211.38    9.20
  -2   3  -6  211.98    9.40
   2   3   6  208.78    9.00
   2   3   6  207.08    8.10
   3  -3   6  160.78    9.60
  -3  -3  -6  155.78    9.90
  -3  -3  -6  153.18    9.10
   3  -3   6  146.29    7.30
  -3   3  -6  145.19    8.70
   3   3   6  154.08    8.70
  -3   3  -6  150.18    9.20
   3   3   6  148.19    7.30
   3   3   6  134.89    8.30
   4  -3   6   59.19    8.50
  -4  -3  -6   60.39    8.80
  -4  -3  -6   68.99    8.80
  -4   3  -6   66.49    9.10
   4   3   6   60.39    7.50
   4  -4  -6    8.60    5.00
   4  -4  -6    9.20    6.20
   4   4  -6    6.20    3.60
  -4   4   6    7.50    6.40
   3  -4  -6   47.00    3.90
   3  -4  -6   48.70    5.90
  -3  -4   6   39.10    4.70
   3  -4  -6   47.20    6.20
   3   4  -6   41.10    3.00
   3   4  -6   41.90    2.40
  -3   4   6   51.89    6.90
  -3   4   6   58.09    6.10
   2  -4  -6  184.98    6.60
  -2  -4   6  192.08    9.90
   2  -4  -6  198.38    8.60
  -2   4   6  208.88   10.30
   2   4  -6  162.98    7.60
   2   4  -6  173.98   10.30
  -1  -4   6  398.76   15.20
   1  -4  -6  394.66   14.20
   1  -4  -6  388.36   14.80
   1   4  -6  383.46   13.80
  -1   4   6  392.06   14.00
  -1   4   6  400.86   14.90
   1   4  -6  409.56   15.30
   0  -4   6    7.80    1.80
   0  -4   6    7.20    2.10
   0  -4  -6   14.30    2.70
   0  -4  -6   12.60    2.10
   0   4   6   17.00    2.40
   0   4  -6    9.00    2.50
   0   4  -6   13.60    1.00
  -1  -4  -6 1083.99   37.20
   1  -4   6 1152.78   38.00
   1  -4   6 1117.09   36.70
  -1  -4  -6 1120.59   38.60
   1  -4   6 1140.79   37.90
  -1  -4  -6 1095.79   37.10
  -1   4  -6 1114.59   37.50
   1   4   6 1091.19   37.30
  -1   4  -6 1003.50   36.90
   1   4   6 1128.39   37.20
   1   4   6 1141.09   37.20
  -1   4  -6 1142.89   37.60
  -2  -4  -6   42.40    4.50
  -2  -4  -6   38.10    3.30
   2  -4   6   25.40    4.80
  -2  -4  -6   46.20    6.20
   2  -4   6   24.50    5.20
   2   4   6   41.10    3.10
  -2   4  -6   25.00    4.20
   2   4   6   39.40    4.90
   3  -4   6   32.40    6.20
   3  -4   6   32.90    4.50
  -3  -4  -6   38.50    7.20
  -3  -4  -6   30.50    5.80
   3   4   6   29.00    4.20
  -3   4  -6   27.50    6.00
   3   4   6   26.80    5.00
  -3   4  -6   25.80    5.10
   4  -4   6    4.50    9.10
  -4  -4  -6   26.60    9.80
   4   4   6   24.60    7.10
  -3  -5   6   33.00    3.60
   3  -5  -6   54.39    7.40
   3   5  -6   38.20    5.40
  -3   5   6   48.90    8.00
  -3   5   6   53.19    6.50
  -2  -5   6    6.20    5.80
   2  -5  -6    8.90    3.60
   2  -5  -6    5.00    3.40
  -2   5   6   10.30    5.60
   2   5  -6    9.90    2.80
  -2   5   6   12.90    3.20
   1  -5  -6   61.89    5.70
   1  -5  -6   45.40    6.20
   1  -5  -6   57.49    4.10
  -1  -5   6   60.39    6.60
  -1   5   6   53.99    6.00
   1   5  -6   52.19    3.20
   1   5  -6   45.40    6.40
   0  -5   6   73.19    4.90
   0  -5  -6   67.79    4.00
   0  -5  -6   73.59    6.20
   0  -5  -6   80.19    5.20
   0  -5   6   72.29    3.60
   0   5   6   72.69    5.30
   0   5  -6   68.69    2.90
   0   5   6   74.89    3.80
   0   5  -6   78.29    5.50
   1  -5   6   23.80    4.90
  -1  -5  -6   31.40    3.10
  -1  -5  -6   24.80    3.30
   1  -5   6   21.10    3.70
  -1  -5  -6   25.10    4.80
   1   5   6   31.30    3.20
   1   5   6   26.10    3.10
   1   5   6   25.90    3.70
  -1   5  -6   29.40    4.20
  -1   5  -6   24.70    3.10
  -2  -5  -6  308.47   14.80
   2  -5   6  290.97   10.40
   2  -5   6  321.47   14.00
  -2  -5  -6  279.17   12.10
   2   5   6  313.97   12.40
  -2   5  -6  320.47   13.20
   2   5   6  289.67   11.20
   2   5   6  281.47   12.60
  -2   5  -6  325.47   12.80
  -3  -5  -6   18.40    8.20
  -3   5  -6   16.80    7.00
  -3   5  -6    5.80    5.20
   3   5   6   15.10    5.30
   3  -6  -6  -10.00    6.30
   3   6  -6   -3.10    4.80
   2  -6  -6   22.50    4.90
   2  -6  -6   27.50    5.80
   2   6  -6   19.70    4.00
  -2   6   6   24.00    4.00
  -2   6   6   14.10    7.20
   1  -6  -6   51.09    7.60
   1  -6  -6   39.80    4.50
  -1   6   6   45.60    3.70
  -1   6   6   50.99    7.80
   1   6  -6   43.70    6.50
   1   6  -6   39.80    3.00
   0  -6  -6   28.20    3.60
   0  -6   6   25.80    4.20
   0  -6   6   27.50    2.70
   0  -6  -6   23.50    5.70
   0   6   6   25.30    4.90
   0   6  -6   31.40    4.40
   0   6   6   24.70    3.00
  -1  -6  -6    0.60    4.50
   1  -6   6   -0.60    5.60
   1  -6   6    8.00    3.70
  -1  -6  -6   11.20    6.20
  -1  -6  -6    2.10    2.90
  -1   6  -6    1.70    2.50
  -1   6  -6    5.10    3.40
   1   6   6    1.50    2.60
   1   6   6    4.10    2.10
   1   6   6    7.80    3.60
  -2  -6  -6   31.20    9.00
   2  -6   6   18.80    6.50
  -2   6  -6   24.00    4.20
   2   6   6   15.70    5.10
   2   6   6   14.40    4.60
  -2   7   6   46.00    5.80
   1  -7  -6   14.10    8.20
  -1   7   6   18.80    3.20
   0  -7  -6   49.20   10.40
   0   7   6   47.80    4.30
  -1  -7  -6   91.99   13.20
  -1   7  -6  103.19    4.90
   4   0  -7    4.80    5.60
  -4   0   7   -5.20    5.00
   4   0  -7    2.30    4.10
   4   0  -7   -0.60    5.90
   3   0  -7    9.70    2.70
  -3   0   7    5.80    4.00
   3   0  -7   11.60    3.80
  -3   0   7   10.70    3.30
   3   0  -7    3.60    4.10
   2   0  -7   -1.00    2.10
   2   0  -7   -3.20    1.60
  -2   0   7   -4.30    2.40
  -2   0   7   -2.00    1.90
   2   0  -7    1.80    2.80
  -1   0   7   15.10    1.50
   1   0  -7   12.00    1.50
   1   0  -7   14.10    1.70
   1   0  -7   12.80    1.40
  -1   0   7   14.00    1.80
   0   0   7    2.70    0.80
   0   0  -7    2.30    0.70
   0   0  -7    2.30    0.80
   1   0   7   39.40    2.60
   1   0   7   38.30    2.80
  -1   0  -7   39.20    2.50
  -1   0  -7   39.40    2.40
  -1   0  -7   40.20    2.70
   1   0   7   41.70    2.40
   2   0   7   12.20    2.90
   2   0   7   12.90    2.50
   3   0   7  479.75   17.90
   3   0   7  451.15   17.40
  -3   0  -7  443.76   17.00
  -3   0  -7  466.15   17.90
   3   0   7  450.65   17.10
  -3   0  -7  452.15   17.30
   4   0   7    6.50    5.40
  -4   0  -7    4.30    5.40
  -4   0  -7   -3.10    4.30
   4   0   7   -7.50    6.60
   4  -1  -7   75.59    7.30
  -4  -1   7   73.49    8.10
   4  -1  -7   69.69    7.90
   4  -1  -7   63.99    8.70
  -4   1   7   60.39    7.70
   4   1  -7   71.99    6.60
   4   1  -7   60.29    8.10
   3  -1  -7  104.19    6.80
   3  -1  -7  103.69    7.00
  -3  -1   7  119.39    6.50
  -3  -1   7  107.39    7.30
   3  -1  -7  109.99    6.40
  -3   1   7  112.79    6.60
   3   1  -7   99.19    5.70
  -3   1   7   99.59    7.70
   3   1  -7  103.19    7.60
   3   1  -7  106.69    6.50
  -2  -1   7   63.49    4.50
  -2  -1   7   60.89    3.70
   2  -1  -7   65.39    4.40
   2  -1  -7   63.59    4.00
   2  -1  -7   55.19    3.30
   2   1  -7   67.09    3.90
   2   1  -7   60.89    4.80
   2   1  -7   63.99    3.40
  -2   1   7   68.19    4.80
  -2   1   7   63.09    3.90
   1  -1  -7  956.90   32.00
   1  -1  -7 1003.90   31.80
  -1  -1   7  948.31   31.70
   1  -1  -7  951.30   32.10
  -1  -1   7  945.81   31.80
   1   1  -7  914.01   31.90
   1   1  -7  940.21   31.80
   1   1  -7  969.20   31.60
  -1   1   7  963.00   32.10
  -1   1   7  950.00   31.90
   0  -1   7   28.70    1.70
   0  -1   7   39.60    1.80
   0  -1  -7   35.40    1.70
   0  -1  -7   32.30    1.70
   0   1   7   32.00    1.90
   0   1  -7   34.70    1.60
   0   1   7   37.50    1.70
   0   1   7   31.60    1.80
   0   1  -7   34.90    1.60
  -1  -1  -7  851.81   28.30
   1  -1   7  833.02   28.30
  -1  -1  -7  791.12   28.20
  -1  -1  -7  844.42   28.10
   1  -1   7  833.62   28.50
  -1  -1  -7  818.42   28.40
   1  -1   7  885.61   28.00
   1   1   7  837.72   28.10
  -1   1  -7  836.02   28.40
   1   1   7  810.72   28.20
   1   1   7  848.02   28.10
  -1   1  -7  849.52   28.10
   2  -1   7    3.20    2.60
  -2  -1  -7    8.10    2.50
   2  -1   7    7.30    2.70
   2  -1   7    7.30    2.20
  -2  -1  -7    5.80    2.00
  -2  -1  -7    4.10    2.30
  -2   1  -7    6.40    1.70
   2   1   7    7.00    2.10
  -2   1  -7    9.80    2.40
   2   1   7    7.60    2.40
   2   1   7    6.40    2.30
  -2   1  -7   10.00    2.50
  -3  -1  -7  189.18    9.20
   3  -1   7  189.18    9.70
   3  -1   7  185.18    9.60
  -3  -1  -7  181.28    9.40
   3  -1   7  184.58    8.80
  -3   1  -7  193.78    9.50
   3   1   7  196.08    9.00
  -3   1  -7  194.08    9.60
  -3   1  -7  188.78    8.20
  -4  -1  -7   37.60    6.70
  -4  -1  -7   25.00    5.20
   4  -1   7   38.70    6.80
   4   1   7   28.50    6.20
  -4   1  -7   26.00    6.20
   4   1   7   16.90    6.00
  -4  -2   7  123.99    9.20
   4  -2  -7  124.29    9.10
   4  -2  -7  110.69    9.60
  -4   2   7  113.39    9.20
   4   2  -7  119.09    7.40
   4   2  -7  117.39    8.50
   3  -2  -7   76.79    6.10
  -3  -2   7   67.99    6.30
   3  -2  -7   68.29    6.60
  -3  -2   7   63.19    5.50
   3  -2  -7   66.99    6.60
  -3   2   7   69.29    5.70
  -3   2   7   71.39    7.50
   3   2  -7   63.09    5.20
   3   2  -7   68.59    4.60
   3   2  -7   65.79    7.30
   2  -2  -7    0.90    1.50
   2  -2  -7   -1.30    1.80
  -2  -2   7    1.20    1.80
  -2  -2   7    2.20    2.40
   2  -2  -7   -0.70    2.60
  -2   2   7    0.80    2.90
   2   2  -7    0.40    2.80
   2   2  -7    2.60    1.30
  -2   2   7    2.30    1.90
   2   2  -7    1.90    1.70
   1  -2  -7  265.07    9.60
   1  -2  -7  280.17    9.10
   1  -2  -7  261.87    9.80
  -1  -2   7  249.48    9.20
  -1  -2   7  277.97    9.00
   1   2  -7  267.87   10.40
  -1   2   7  267.87   10.00
   1   2  -7  263.47    9.00
  -1   2   7  262.47    9.50
   1   2  -7  260.97    9.50
   0  -2   7  424.56   14.00
   0  -2  -7  417.46   14.00
   0  -2  -7  418.06   14.10
   0  -2   7  411.96   14.00
   0  -2   7  394.66   14.40
   0  -2  -7  412.76   14.10
   0   2  -7  432.96   13.90
   0   2   7  412.36   14.10
   0   2  -7  412.86   13.80
   0   2   7  418.46   14.20
   0   2  -7  386.36   14.00
   0   2   7  422.76   13.90
  -1  -2  -7   70.89    3.60
  -1  -2  -7   73.39    4.20
   1  -2   7   82.59    3.10
   1  -2   7   60.79    4.20
  -1  -2  -7   81.69    3.60
   1   2   7   74.59    3.30
  -1   2  -7   64.39    3.90
   1   2   7   71.19    3.70
   1   2   7   77.89    3.60
  -1   2  -7   73.79    3.30
  -2  -2  -7    2.70    2.70
  -2  -2  -7    4.10    2.50
   2  -2   7    5.70    3.10
   2  -2   7    1.70    2.00
   2  -2   7    4.80    2.90
  -2  -2  -7    2.40    1.80
   2   2   7    1.50    2.60
  -2   2  -7    6.70    2.50
   2   2   7    3.10    2.30
   2   2   7    4.40    1.80
   3  -2   7   65.19    5.50
   3  -2   7   62.39    7.20
   3  -2   7   55.09    6.70
  -3  -2  -7   64.89    6.60
   3   2   7   67.79    6.20
   3   2   7   64.99    5.50
   3   2   7   80.49    6.40
  -3   2  -7   70.49    6.20
  -3   2  -7   56.49    6.60
  -4  -2  -7   22.50    6.40
   4  -2   7   35.80    7.50
  -4  -2  -7   26.90   10.10
   4   2   7   18.20    6.20
  -4   2  -7   21.10    6.50
   4   2   7   27.70    6.10
   4  -3  -7   99.19    9.00
   4  -3  -7   89.19    6.60
   4   3  -7   71.49    6.00
  -4   3   7   97.49    9.30
  -3  -3   7   64.79    7.60
   3  -3  -7   68.59    7.40
   3  -3  -7   64.49    4.40
  -3  -3   7   71.29    6.10
   3  -3  -7   72.69    6.20
  -3   3   7   84.39    8.60
   3   3  -7   69.19    4.70
  -3   3   7   68.09    5.90
   3   3  -7   71.49    4.10
  -2  -3   7   11.70    2.00
   2  -3  -7   13.90    3.60
   2  -3  -7   14.70    2.00
   2  -3  -7   19.50    2.70
  -2  -3   7   12.50    2.70
  -2   3   7   19.80    3.90
   2   3  -7   15.70    3.90
  -2   3   7   13.60    2.40
   2   3  -7   20.00    1.40
   1  -3  -7  279.87   10.60
   1  -3  -7  280.97    9.50
   1  -3  -7  272.47   10.20
   1   3  -7  292.47   10.00
  -1   3   7  293.97   10.80
  -1   3   7  273.47   10.00
   1   3  -7  261.97   11.20
   0  -3   7  147.59    5.60
   0  -3  -7  140.49    5.50
   0  -3   7  138.29    5.60
   0  -3  -7  149.49    5.70
   0  -3  -7  157.08    5.70
   0   3  -7  133.39    5.30
   0   3   7  149.19    5.50
   0   3  -7  154.38    5.30
   0   3   7  149.29    5.90
   0   3  -7  137.89    6.30
   0   3  -7  146.29    5.10
   0   3   7  159.38    5.20
  -1  -3  -7   99.39    5.70
   1  -3   7  109.39    5.50
  -1  -3  -7  103.29    4.30
   1  -3   7  111.19    5.70
   1  -3   7  102.19    4.00
  -1  -3  -7  104.09    4.60
   1   3   7  103.79    4.60
  -1   3  -7  108.59    5.10
  -1   3  -7  105.49    4.90
  -1   3  -7  101.99    4.30
   1   3   7  103.69    4.40
   1   3   7  111.39    4.70
  -2  -3  -7  256.37   10.30
  -2  -3  -7  252.07    9.60
   2  -3   7  261.07   11.20
   2  -3   7  255.17   11.20
  -2  -3  -7  258.87   11.40
  -2   3  -7  262.77   10.70
  -2   3  -7  250.87   11.50
   2   3   7  266.27   10.40
   2   3   7  252.27    9.60
   2   3   7  264.17   10.40
  -3  -3  -7   59.49    7.40
   3  -3   7   58.99    7.60
  -3  -3  -7   55.99    6.90
   3  -3   7   59.59    5.10
  -3   3  -7   55.39    6.50
   3   3   7   59.69    8.50
  -3   3  -7   64.49    7.00
   3   3   7   54.69    6.40
  -4  -3  -7  190.68   13.60
   4  -3   7  186.08   13.60
  -4  -3  -7  180.78   13.50
   4   3   7  157.48   11.50
  -4   3  -7  181.98   11.90
   4  -4  -7    1.20    5.80
   4  -4  -7    3.00    4.40
  -4   4   7    3.90    6.00
   4   4  -7   12.40    3.30
  -3  -4   7   47.60    6.60
   3  -4  -7   57.19    6.60
   3  -4  -7   59.19    6.20
  -3  -4   7   52.09    5.00
   3  -4  -7   62.89    4.10
  -3   4   7   62.59    6.40
  -3   4   7   63.99    7.70
   2  -4  -7    6.50    4.10
   2  -4  -7   15.10    3.30
   2  -4  -7   18.00    1.70
   2   4  -7   20.30    2.80
  -2   4   7   15.70    3.30
   2   4  -7   21.90    5.00
  -2   4   7   15.20    4.80
   1  -4  -7  359.66   13.60
   1  -4  -7  353.56   13.00
  -1   4   7  350.86   12.70
   1   4  -7  356.56   12.60
   1   4  -7  351.76   14.10
  -1   4   7  369.06   13.70
   0  -4  -7  111.39    4.70
   0  -4   7  114.29    4.90
   0  -4   7  108.79    4.80
   0  -4  -7  109.79    5.10
   0  -4  -7  112.79    6.00
   0   4  -7  111.39    4.10
   0   4   7  108.39    5.40
   0   4  -7  110.49    5.80
   0   4   7  105.89    4.00
   0   4   7  112.89    4.60
  -1  -4  -7   57.09    3.40
  -1  -4  -7   70.79    3.70
   1  -4   7   70.29    3.00
  -1  -4  -7   67.09    5.60
   1   4   7   63.09    3.60
   1   4   7   62.69    3.70
   1   4   7   65.09    3.60
  -1   4  -7   56.59    3.20
   2  -4   7   33.60    5.20
  -2  -4  -7   39.30    5.30
  -2  -4  -7   37.10    3.50
  -2  -4  -7   37.60    4.70
   2  -4   7   43.40    2.80
   2  -4   7   37.50    5.50
   2   4   7   38.60    3.30
  -2   4  -7   38.10    4.70
  -2   4  -7   35.50    5.20
   2   4   7   43.20    4.60
   2   4   7   35.20    4.90
   3  -4   7    9.80    3.40
  -3  -4  -7    2.30    5.40
  -3  -4  -7    9.60    6.50
   3  -4   7   14.70    6.50
   3   4   7    7.60    3.10
  -3   4  -7    2.10    5.50
  -3   4  -7   10.80    4.80
   3   4   7   11.20    4.80
   4  -4   7   -1.20    9.20
   4   4   7   18.20    7.00
   3  -5  -7   20.40    5.60
  -3   5   7   32.70    5.00
  -3   5   7   17.80    8.30
   2  -5  -7    5.30    3.70
   2  -5  -7    4.20    3.30
  -2   5   7    4.50    3.00
   2   5  -7   -1.00    2.70
   1  -5  -7   24.80    4.40
   1  -5  -7   16.10    2.70
   1  -5  -7   16.90    3.80
   1   5  -7   13.50    4.40
  -1   5   7   23.40    2.70
  -1   5   7   25.80    4.60
   1   5  -7   21.20    2.40
   0  -5  -7   37.80    5.80
   0  -5  -7   42.20    3.30
   0  -5  -7   39.10    4.40
   0  -5   7   40.00    3.00
   0  -5   7   41.70    4.10
   0   5  -7   41.50    2.10
   0   5  -7   43.70    4.90
   0   5   7   41.80    3.00
   0   5   7   40.30    4.80
   0   5   7   40.20    1.90
  -1  -5  -7    1.00    2.10
  -1  -5  -7   -3.00    2.20
   1  -5   7    4.20    3.70
   1  -5   7   -4.60    4.20
  -1   5  -7   -0.60    2.10
   1   5   7    3.20    2.10
  -1   5  -7   -2.90    2.70
   1   5   7   -2.50    2.50
   2  -5   7  166.88    9.90
  -2  -5  -7  153.38    8.20
   2  -5   7  152.78    6.10
  -2  -5  -7  163.18   11.30
  -2   5  -7  164.78    9.00
   2   5   7  161.28    8.50
   2   5   7  154.48    7.00
  -2   5  -7  165.38    8.60
   2   5   7  157.78    8.20
   3  -5   7   -5.70   11.60
  -3  -5  -7    0.60    8.20
   3   5   7    4.00    5.30
  -3   5  -7    5.90    5.20
   3  -6  -7   26.00    7.10
   3   6  -7   21.70    5.40
   2  -6  -7    4.50    5.60
   2  -6  -7    6.20    4.30
  -2   6   7   17.80    7.70
  -2   6   7    4.70    3.50
   1  -6  -7   52.39    8.10
   1  -6  -7   43.00    4.70
   1   6  -7   44.90    6.70
   1   6  -7   47.40    3.20
  -1   6   7   47.10    4.00
  -1   6   7   50.99    6.80
   0  -6  -7   12.00    2.60
   0  -6  -7   14.40    5.40
   0  -6   7    5.10    3.60
   0  -6   7    9.40    1.90
   0   6  -7    6.80    4.20
   0   6   7   14.80    4.50
   0   6   7    8.40    2.20
   0   6  -7   11.20    1.30
   1  -6   7   -4.60    5.40
  -1  -6  -7   -3.40    6.00
   1  -6   7    6.40    4.00
  -1  -6  -7    5.10    2.90
   1   6   7    7.70    2.90
  -1   6  -7    8.90    3.00
   1   6   7   14.20    3.90
  -1   6  -7    7.30    3.30
  -2  -6  -7  139.49   13.90
   2  -6   7  142.59   10.60
   2   6   7  136.99    8.70
  -2   6  -7  147.29    8.40
   2   6   7  138.09    8.40
   1  -7  -7    6.10    9.00
  -1   7   7    2.00    2.80
   0  -7  -7   10.60    8.80
   0   7   7    7.70    2.90
  -1  -7  -7  203.38   18.60
  -1   7  -7  215.48    8.10
  -4   0   8   82.69    8.10
   4   0  -8   83.89    9.10
   4   0  -8   83.09    7.20
   3   0  -8    2.60    3.70
   3   0  -8    3.90    4.00
   3   0  -8    1.50    2.40
  -3   0   8   -0.10    3.90
  -3   0   8   -1.80    3.00
  -2   0   8  403.86   14.40
   2   0  -8  390.66   13.90
   2   0  -8  396.36   14.20
  -2   0   8  393.16   13.90
   2   0  -8  357.96   13.70
  -1   0   8    0.30    0.90
   1   0  -8   -0.90    1.00
  -1   0   8    0.90    1.20
  -1   0   8    0.00    1.20
   1   0  -8   -1.00    0.90
   1   0  -8    0.30    0.80
   0   0  -8   74.99    2.90
   0   0   8   74.59    3.10
   0   0   8   77.29    3.00
   0   0  -8   71.79    3.00
   0   0   8   71.69    3.00
   0   0  -8   78.09    3.00
   1   0   8    1.70    1.30
   1   0   8    2.60    1.50
   1   0   8   -0.70    1.10
  -1   0  -8    3.40    1.40
  -1   0  -8    2.20    1.30
  -1   0  -8   -0.30    1.10
   2   0   8  425.06   15.60
   2   0   8  435.26   16.00
  -2   0  -8  425.16   15.90
   2   0   8  435.06   15.30
  -2   0  -8  422.66   15.40
  -2   0  -8  432.46   15.40
   3   0   8    1.20    3.70
   3   0   8    3.30    4.30
   3   0   8    0.90    3.80
  -3   0  -8    3.90    3.50
  -3   0  -8    1.20    2.90
  -4   0  -8   94.49    9.40
   4   0   8   96.49    9.60
  -4   0  -8   86.39    8.50
   4  -1  -8    0.20    5.70
   4  -1  -8    6.00    6.20
   4  -1  -8    6.20    4.30
  -4  -1   8    5.60    5.30
   4   1  -8    0.50    5.30
  -4   1   8    5.20    5.00
   4   1  -8    5.30    3.80
   3  -1  -8  138.79    8.10
   3  -1  -8  149.69    7.40
   3  -1  -8  151.18    8.20
  -3  -1   8  140.09    8.30
  -3  -1   8  146.39    7.40
   3   1  -8  145.29    7.50
  -3   1   8  144.69    8.70
   3   1  -8  143.49    6.80
   3   1  -8  133.59    8.70
  -3   1   8  152.78    7.60
  -2  -1   8   20.40    3.00
   2  -1  -8   15.80    2.30
   2  -1  -8   24.40    3.00
  -2  -1   8   18.70    2.30
   2  -1  -8   22.10    2.40
  -2   1   8   22.80    3.20
   2   1  -8   18.20    2.80
   2   1  -8   26.80    3.30
   2   1  -8   18.10    2.20
  -2   1   8   21.00    2.50
   1  -1  -8 2373.36   78.59
   1  -1  -8 2437.36   78.29
  -1  -1   8 2444.36   78.29
  -1  -1   8 2371.06   78.39
   1  -1  -8 2383.36   78.69
  -1   1   8 2231.78   78.39
   1   1  -8 2411.16   78.19
  -1   1   8 2410.56   78.69
  -1   1   8 2349.17   78.49
   1   1  -8 2405.76   78.39
   1   1  -8 2330.47   78.49
   0  -1   8  137.69    4.80
   0  -1   8  131.99    4.80
   0  -1  -8  123.89    4.90
   0  -1  -8  138.49    4.90
   0  -1   8  133.09    4.80
   0  -1  -8  136.79    4.80
   0   1   8  133.69    4.80
   0   1  -8  128.49    4.70
   0   1  -8  125.09    4.90
   0   1  -8  129.09    4.70
   0   1   8  133.79    4.90
   0   1   8  131.39    4.90
  -1  -1  -8   30.10    2.50
   1  -1   8   24.30    2.70
  -1  -1  -8   28.00    2.30
   1  -1   8   27.20    2.80
   1  -1   8   26.50    2.00
  -1  -1  -8   28.30    2.00
  -1   1  -8   26.40    2.70
   1   1   8   25.30    2.10
   1   1   8   24.80    2.20
   1   1   8   29.40    2.30
  -1   1  -8   29.70    2.20
  -1   1  -8   25.10    2.30
   2  -1   8   45.50    3.50
   2  -1   8   42.40    4.40
   2  -1   8   46.00    4.40
  -2  -1  -8   48.00    3.60
  -2  -1  -8   44.50    4.00
  -2  -1  -8   45.50    4.10
   2   1   8   46.50    4.00
   2   1   8   45.90    3.60
   2   1   8   41.50    3.90
  -2   1  -8   49.20    4.10
  -2   1  -8   42.00    4.00
  -2   1  -8   42.20    3.10
  -3  -1  -8   10.70    3.50
  -3  -1  -8    5.20    3.00
   3  -1   8    9.60    4.00
   3  -1   8    0.70    4.10
   3  -1   8    8.30    3.70
  -3  -1  -8    8.50    3.90
   3   1   8    9.60    3.60
  -3   1  -8    7.10    3.80
  -3   1  -8    4.70    3.60
  -3   1  -8    5.20    2.50
   3   1   8    1.90    3.60
  -4  -1  -8  211.08   12.70
   4  -1   8  198.48   12.10
  -4  -1  -8  181.28   11.00
  -4   1  -8  200.88   12.00
   4   1   8  190.38   11.40
   4   1   8  187.58   11.70
  -4   1  -8  183.98    9.80
   4  -2  -8   14.40    5.00
   4  -2  -8    7.30    3.80
  -4  -2   8    5.60    5.40
   4  -2  -8    0.40    6.00
  -4   2   8   12.50    5.60
   4   2  -8   13.70    3.80
   3  -2  -8  128.39    7.30
   3  -2  -8  116.59    7.90
  -3  -2   8  119.69    7.70
  -3  -2   8  114.59    6.60
   3  -2  -8  110.89    5.80
   3   2  -8  117.69    8.70
  -3   2   8  112.59    6.80
   3   2  -8  117.89    5.70
  -3   2   8  120.09    8.70
   3   2  -8  120.09    6.60
   2  -2  -8    0.20    1.40
   2  -2  -8    1.60    2.70
  -2  -2   8   -0.30    2.50
   2  -2  -8   -1.20    1.90
  -2  -2   8    3.50    1.80
   2   2  -8   -0.90    2.90
   2   2  -8   -0.40    1.70
  -2   2   8    1.10    2.90
   2   2  -8    1.80    1.70
   2   2  -8    1.30    1.20
  -2   2   8    0.30    1.90
   1  -2  -8 1110.49   36.30
  -1  -2   8 1081.79   35.70
   1  -2  -8 1107.09   35.60
  -1  -2   8 1050.59   35.50
   1  -2  -8 1090.69   36.10
  -1   2   8 1060.49   36.00
  -1   2   8 1079.39   36.30
   1   2  -8 1068.49   35.40
   1   2  -8 1092.79   35.60
  -1   2   8  986.20   35.70
   1   2  -8 1118.79   36.70
   1   2  -8 1075.29   35.90
   0  -2   8 2251.47   71.29
   0  -2   8 2247.68   71.39
   0  -2  -8 2154.58   71.49
   0  -2  -8 2137.79   71.49
   0  -2  -8 2188.88   71.39
   0  -2   8 2190.68   71.49
   0   2  -8 2135.39   71.19
   0   2   8 2096.39   71.49
   0   2  -8 2067.69   71.29
   0   2  -8 2180.48   71.49
   0   2   8 2185.88   71.59
   0   2   8 2158.38   71.29
   1  -2   8  325.87   15.10
   1  -2   8  402.36   12.90
  -1  -2  -8  389.06   13.30
  -1  -2  -8  378.56   13.10
  -1  -2  -8  354.56   13.40
  -1  -2  -8  370.36   13.70
   1  -2   8  378.76   13.70
  -1   2  -8  369.76   13.60
   1   2   8  393.06   13.30
   1   2   8  388.46   13.20
  -1   2  -8  384.36   13.10
   1   2   8  381.66   13.10
  -2  -2  -8  405.76   14.50
  -2  -2  -8  400.46   15.40
   2  -2   8  417.76   15.40
   2  -2   8  420.56   14.30
   2  -2   8  418.76   15.70
  -2  -2  -8  405.66   15.10
   2   2   8  408.56   15.10
  -2   2  -8  384.16   15.70
   2   2   8  404.26   14.90
  -2   2  -8  394.76   15.30
  -2   2  -8  400.26   13.90
   2   2   8  409.16   14.50
   3  -2   8   24.50    4.00
  -3  -2  -8   15.50    5.90
   3  -2   8   20.40    5.00
  -3  -2  -8   20.00    4.60
   3  -2   8   15.80    4.70
   3   2   8   17.40    3.70
  -3   2  -8   24.80    4.50
   3   2   8   15.30    4.50
  -3   2  -8   23.90    4.70
   3   2   8   20.40    4.20
  -4  -2  -8   21.90    6.40
   4  -2   8   17.60    7.10
  -4  -2  -8   21.90    7.90
   4   2   8   17.90    6.20
  -4   2  -8   17.30    6.60
   4  -3  -8  104.59    7.30
   4  -3  -8  133.29    9.60
  -4   3   8  124.89    9.70
   4   3  -8  116.09    6.60
   3  -3  -8  103.59    5.20
   3  -3  -8  109.49    8.90
   3  -3  -8  108.49    6.80
   3  -3  -8  109.09    7.10
  -3  -3   8   92.99    6.00
  -3  -3   8   82.99    6.80
  -3   3   8  100.39    6.80
  -3   3   8  106.89    9.30
   3   3  -8   93.99    4.80
   3   3  -8   93.89    5.50
  -2  -3   8   63.39    4.10
   2  -3  -8   71.59    4.60
   2  -3  -8   71.49    5.80
  -2  -3   8   68.69    3.40
   2  -3  -8   72.29    3.30
  -2   3   8   66.39    6.00
  -2   3   8   69.49    4.40
   2   3  -8   62.89    6.50
   2   3  -8   63.19    4.00
   1  -3  -8   18.20    2.50
   1  -3  -8   20.00    2.30
   1  -3  -8   19.90    1.30
  -1   3   8   22.60    3.40
  -1   3   8   15.70    2.00
   1   3  -8   15.90    3.10
   1   3  -8   22.00    2.00
   0  -3  -8  108.09    4.40
   0  -3   8  106.49    4.40
   0  -3   8  106.59    4.20
   0  -3  -8   97.49    4.30
   0  -3  -8  104.69    4.50
   0   3  -8   98.79    5.10
   0   3   8  105.79    4.20
   0   3   8  106.69    3.90
   0   3   8  106.69    4.70
   0   3  -8  105.39    3.80
   0   3  -8  102.99    4.10
   0   3  -8  104.49    3.90
   1  -3   8    2.30    2.60
  -1  -3  -8    5.80    1.30
  -1  -3  -8    7.80    1.60
  -1  -3  -8    5.70    2.40
   1  -3   8    6.80    2.40
   1  -3   8    8.80    1.30
   1   3   8    5.20    1.70
   1   3   8    6.90    1.60
  -1   3  -8    3.80    1.90
  -1   3  -8    5.00    1.30
   1   3   8    6.20    1.50
  -1   3  -8    3.70    1.90
  -1   3  -8    7.10    1.40
   2  -3   8   63.59    6.00
  -2  -3  -8   66.49    4.80
   2  -3   8   59.69    6.10
   2  -3   8   67.89    3.70
  -2  -3  -8   75.99    5.90
  -2  -3  -8   60.29    3.90
   2   3   8   63.49    4.60
   2   3   8   62.99    3.80
  -2   3  -8   59.09    5.00
   2   3   8   70.19    5.10
  -3  -3  -8    4.20    4.70
   3  -3   8    3.10    3.40
   3  -3   8    2.00    5.10
  -3  -3  -8    5.10    4.90
  -3   3  -8   -5.70    4.30
   3   3   8    3.80    3.20
  -3   3  -8   -6.30    3.70
   3   3   8    2.50    4.20
   4  -3   8    4.00    7.90
  -4  -3  -8   17.60    8.50
  -4  -3  -8    3.60    7.10
   4   3   8   13.20    6.40
  -4   3  -8    4.20    6.00
   4  -4  -8   13.10    6.20
   4  -4  -8   -2.00    4.30
  -4   4   8    8.70    6.30
   3  -4  -8   29.90    3.10
  -3  -4   8   24.80    3.60
  -3  -4   8   23.50    3.60
   3  -4  -8   35.90    4.90
  -3   4   8   19.40    6.80
  -3   4   8   31.70    4.70
   3   4  -8   18.00    3.80
   2  -4  -8   54.69    2.60
   2  -4  -8   55.99    4.90
   2   4  -8   51.19    7.00
  -2   4   8   57.59    4.30
  -2   4   8   47.10    6.80
   2   4  -8   53.89    4.10
   1  -4  -8   65.89    4.90
   1  -4  -8   63.99    2.70
   1  -4  -8   59.99    3.80
  -1   4   8   67.49    5.30
   1   4  -8   61.89    3.30
   1   4  -8   63.29    5.80
  -1   4   8   65.59    3.50
   0  -4  -8    1.20    1.50
   0  -4   8   -1.20    1.90
   0  -4   8    0.30    2.10
   0  -4  -8    3.40    2.40
   0  -4  -8   -1.10    1.80
   0   4   8    2.20    1.00
   0   4  -8    1.30    2.50
   0   4   8    6.20    2.20
   0   4   8    5.90    1.40
   0   4  -8    3.30    1.00
  -1  -4  -8   77.69    3.90
  -1  -4  -8   82.69    4.20
   1  -4   8   75.19    5.90
  -1  -4  -8   82.89    6.10
   1  -4   8   73.69    5.50
   1  -4   8   86.49    3.50
  -1   4  -8   79.09    3.70
  -1   4  -8   71.09    4.60
   1   4   8   82.89    4.20
   1   4   8   83.69    4.20
  -1   4  -8   79.69    4.60
   2  -4   8   -3.00    4.40
   2  -4   8    2.40    4.70
  -2  -4  -8   -0.10    2.20
  -2  -4  -8   -1.00    4.30
  -2  -4  -8    1.30    3.00
   2   4   8   -1.40    3.40
   2   4   8    4.40    2.20
  -2   4  -8    1.70    3.10
  -2   4  -8   -3.40    3.30
  -3  -4  -8   14.80    5.80
   3  -4   8   10.30    3.50
  -3  -4  -8    0.40    6.30
   3  -4   8   20.70    7.20
   3   4   8   10.80    4.90
   3   4   8    7.60    3.40
  -3   4  -8   17.20    5.00
  -3   4  -8    4.40    5.40
   3  -5  -8   39.70    6.10
  -3   5   8   36.00    5.30
   3   5  -8   46.20    5.80
   2  -5  -8   12.00    3.60
   2   5  -8    9.00    2.90
  -2   5   8    6.20    5.80
  -2   5   8    9.60    3.10
   1  -5  -8   59.49    6.30
   1  -5  -8   61.69    5.80
   1  -5  -8   52.89    4.30
   1   5  -8   63.59    7.00
  -1   5   8   60.89    3.80
   1   5  -8   62.29    3.40
   0  -5   8  309.37   10.90
   0  -5   8  291.77   10.60
   0  -5  -8  293.67   11.10
   0  -5  -8  290.87   11.70
   0  -5  -8  302.57   12.90
   0   5  -8  293.07   10.30
   0   5  -8  299.67   12.20
   0   5   8  298.67   11.90
   0   5   8  297.37   10.10
   0   5   8  305.97   11.00
  -1  -5  -8   10.30    2.60
   1  -5   8   16.20    4.10
  -1  -5  -8   14.90    5.10
   1  -5   8   15.50    4.60
  -1  -5  -8   12.70    2.60
   1   5   8   13.10    2.90
  -1   5  -8   10.70    2.60
  -1   5  -8   11.70    1.90
   1   5   8   13.30    2.50
  -1   5  -8   12.70    2.90
   1   5   8   14.80    2.30
   2  -5   8   95.39    4.60
  -2  -5  -8   95.49    6.90
   2  -5   8   99.39    8.80
  -2  -5  -8   95.89   10.10
   2   5   8  103.49    6.90
  -2   5  -8  103.09    7.40
   2   5   8  103.89    6.80
   2   5   8   98.69    5.50
  -2   5  -8   95.29    7.00
  -3  -5  -8  191.68   16.10
   3  -5   8  212.38   18.70
  -3   5  -8  221.18   12.30
   3   5   8  201.68   11.40
   2  -6  -8    6.60    4.40
   2  -6  -8   13.80    6.00
   2   6  -8   10.70    4.20
  -2   6   8   -7.90    7.40
  -2   6   8   10.70    3.60
   1  -6  -8  115.39    6.60
   1  -6  -8  111.69    9.20
   1   6  -8  103.99    4.90
   1   6  -8  116.29    9.40
  -1   6   8  115.59   11.00
  -1   6   8  110.79    5.80
   0  -6   8   27.90    2.80
   0  -6  -8   31.60    3.90
   0  -6   8   36.80    4.50
   0   6   8   34.10    5.00
   0   6   8   31.30    3.40
   0   6  -8   37.80    2.30
   0   6  -8   35.00    4.80
  -1  -6  -8   -4.50    3.00
  -1  -6  -8    3.00    6.20
   1  -6   8   -0.50    6.30
   1  -6   8    3.80    5.30
   1   6   8    1.20    2.30
  -1   6  -8    1.50    2.70
   1   6   8    2.00    3.90
   1   6   8    3.80    2.90
  -2  -6  -8  348.27   17.70
   2  -6   8  350.76   18.50
   2   6   8  291.87   14.00
  -2   6  -8  329.47   13.50
   2   6   8  304.17   13.10
   1  -7  -8   45.90    9.40
  -1   7   8   29.90    3.60
   0  -7  -8   -1.30    8.40
   0   7   8    2.30    3.00
  -1  -7  -8   33.60   10.00
  -1   7  -8   36.80    3.30
  -4   0   9    9.10    5.20
   4   0  -9   10.10    4.10
   4   0  -9   -4.20    5.60
   3   0  -9   54.99    6.40
  -3   0   9   54.29    6.50
   3   0  -9   66.79    6.60
  -3   0   9   61.89    5.30
   3   0  -9   57.19    4.60
   2   0  -9   11.20    1.90
   2   0  -9   11.10    2.40
  -2   0   9    9.60    1.90
  -2   0   9   12.10    2.70
   2   0  -9   16.60    2.30
   1   0  -9   16.70    1.50
  -1   0   9   16.10    1.90
  -1   0   9   14.80    2.00
   1   0  -9   15.90    1.50
  -1   0   9   14.20    1.40
   1   0  -9   16.50    1.70
   0   0  -9    1.90    0.70
   0   0  -9    1.30    0.80
   0   0  -9    1.10    0.70
   0   0   9    1.90    0.80
   0   0   9    2.00    0.90
   0   0   9    2.20    0.80
   1   0   9  772.82   25.20
   1   0   9  754.32   25.40
  -1   0  -9  751.12   25.40
  -1   0  -9  729.43   25.40
  -1   0  -9  739.23   25.60
   2   0   9   -0.70    2.30
   2   0   9   -4.00    2.10
  -2   0  -9    3.20    1.90
  -2   0  -9    1.40    1.90
   2   0   9    3.40    2.50
  -2   0  -9    0.60    2.30
  -3   0  -9 1060.69   37.10
   3   0   9 1075.39   37.00
  -3   0  -9 1028.50   37.10
   3   0   9 1086.79   37.40
  -3   0  -9 1111.69   37.90
   4   0   9    2.50    5.90
  -4   0  -9   -5.00    5.80
   4  -1  -9   -5.70    5.50
   4  -1  -9    1.30    4.10
  -4  -1   9   11.70    5.40
   4  -1  -9   -6.60    6.20
  -4   1   9   -1.30    5.10
   4   1  -9    2.60    3.70
   4   1  -9    4.00    5.40
   3  -1  -9    2.40    2.40
  -3  -1   9    6.50    3.10
  -3  -1   9   -2.00    4.10
   3  -1  -9    0.50    3.60
   3  -1  -9    1.40    3.60
   3  -1  -9    1.80    3.40
   3   1  -9   -2.60    4.10
   3   1  -9    2.70    3.30
   3   1  -9   -1.90    2.20
  -3   1   9    2.20    4.40
  -3   1   9   -1.20    3.20
  -2  -1   9   27.50    3.90
   2  -1  -9   29.90    3.00
   2  -1  -9   28.70    2.50
  -2  -1   9   29.90    2.80
   2  -1  -9   25.30    3.70
   2   1  -9   28.20    2.40
   2   1  -9   28.70    2.70
  -2   1   9   29.40    3.10
   2   1  -9   32.40    3.70
  -2   1   9   25.90    4.10
   2   1  -9   30.60    3.20
   1  -1  -9   -0.40    1.20
  -1  -1   9    1.50    0.80
  -1  -1   9    0.00    1.20
   1  -1  -9   -1.00    1.00
   1  -1  -9    0.90    0.80
  -1   1   9   -0.10    1.00
   1   1  -9    0.30    1.00
   1   1  -9    1.40    0.80
  -1   1   9   -0.20    1.20
  -1   1   9   -0.60    1.50
   1   1  -9    1.30    1.10
   0  -1  -9 1775.22   58.89
   0  -1   9 1682.43   59.09
   0  -1   9 1824.12   58.79
   0  -1  -9 1739.93   58.89
   0  -1   9 1873.01   58.79
   0  -1  -9 1795.02   58.79
   0   1  -9 1769.42   58.89
   0   1   9 1787.22   58.89
   0   1   9 1802.42   58.79
   0   1  -9 1799.22   58.79
   0   1   9 1807.22   58.89
   0   1  -9 1741.43   58.79
  -1  -1  -9    1.20    1.10
  -1  -1  -9   -0.20    1.40
   1  -1   9    0.90    1.10
  -1  -1  -9   -0.70    1.60
   1  -1   9    0.80    1.80
   1  -1   9    0.40    1.60
  -1   1  -9   -0.40    1.20
  -1   1  -9    0.30    1.30
   1   1   9    1.60    1.40
  -1   1  -9    1.60    1.60
   1   1   9   -1.80    1.20
   1   1   9   -0.20    1.30
  -2  -1  -9  736.43   26.20
   2  -1   9  752.52   26.20
  -2  -1  -9  772.42   26.40
  -2  -1  -9  739.93   25.80
   2  -1   9  752.22   25.60
   2  -1   9  754.92   26.50
  -2   1  -9  747.43   26.40
   2   1   9  759.12   26.30
   2   1   9  739.53   25.80
   2   1   9  748.33   25.90
  -2   1  -9  742.13   25.50
   3  -1   9   43.00    4.70
   3  -1   9   39.50    6.00
   3  -1   9   43.70    6.10
  -3  -1  -9   33.40    4.20
  -3  -1  -9   43.90    5.80
  -3  -1  -9   45.80    5.40
  -3   1  -9   37.00    4.30
   3   1   9   37.00    5.80
   3   1   9   43.40    5.50
  -3   1  -9   44.50    5.70
  -4  -1  -9   65.19    9.60
   4  -1   9   51.29    7.90
  -4  -1  -9   63.19    8.20
   4   1   9   54.49    8.40
  -4   1  -9   54.49    6.60
  -4   1  -9   63.29    8.10
   4   1   9   81.39    9.20
   4  -2  -9  104.99   10.00
   4  -2  -9  124.69    8.70
  -4  -2   9  123.89    8.90
   4  -2  -9  114.19    7.10
   4   2  -9  110.79    6.90
  -4   2   9  123.89    9.10
  -3  -2   9  271.57   10.70
   3  -2  -9  251.47   10.30
   3  -2  -9  257.17   11.30
   3  -2  -9  266.97   12.60
  -3  -2   9  272.47   11.80
   3  -2  -9  267.67   11.50
   3   2  -9  273.27   11.10
   3   2  -9  261.27   10.10
   3   2  -9  256.87   13.10
  -3   2   9  268.87   12.70
  -3   2   9  270.47   11.20
  -2  -2   9   38.90    2.80
  -2  -2   9   34.50    4.00
   2  -2  -9   34.20    3.40
   2  -2  -9   37.00    2.60
   2  -2  -9   35.50    4.40
  -2   2   9   36.10    3.30
   2   2  -9   32.80    2.90
  -2   2   9   40.40    4.80
   2   2  -9   32.70    4.90
   2   2  -9   35.90    2.30
   2   2  -9   31.90    3.00
   1  -2  -9  768.12   26.30
  -1  -2   9  772.32   25.90
   1  -2  -9  805.22   25.90
   1   2  -9  776.72   27.80
   1   2  -9  774.32   25.70
  -1   2   9  781.22   26.60
   1   2  -9  782.82   26.20
  -1   2   9  774.52   26.20
   1   2  -9  796.22   25.90
  -1   2   9  742.53   26.00
   0  -2  -9  946.81   31.90
   0  -2   9  975.70   31.70
   0  -2  -9  968.60   31.90
   0  -2  -9  960.10   31.70
   0  -2   9  980.90   31.80
   0  -2   9  957.30   31.80
   0   2   9  937.61   31.90
   0   2   9  948.01   31.60
   0   2  -9  925.41   31.70
   0   2  -9  936.41   31.80
   0   2   9  957.70   31.90
   0   2  -9  952.80   31.60
  -1  -2  -9   98.79    4.40
  -1  -2  -9   95.79    4.90
   1  -2   9   95.09    4.90
   1  -2   9  101.89    3.90
  -1  -2  -9  101.49    4.20
   1  -2   9   94.69    5.10
  -1  -2  -9   91.49    4.60
  -1   2  -9   90.49    4.30
   1   2   9   96.19    4.20
   1   2   9   97.69    4.40
  -1   2  -9   98.09    4.80
   1   2   9   98.29    4.30
  -1   2  -9   99.99    4.10
   2  -2   9  127.39    5.40
   2  -2   9  122.59    7.00
  -2  -2  -9  119.19    6.30
  -2  -2  -9  122.49    6.60
  -2  -2  -9  123.89    5.60
   2  -2   9  134.49    6.90
  -2   2  -9  117.09    6.30
   2   2   9  118.29    6.20
  -2   2  -9  124.29    6.50
   2   2   9  122.79    5.60
   2   2   9  115.59    6.10
  -2   2  -9  120.39    4.90
  -3  -2  -9  116.99    7.90
   3  -2   9  114.09    6.50
   3  -2   9  113.79    8.30
   3  -2   9  113.79    8.30
  -3  -2  -9  110.59    7.80
  -3   2  -9  110.79    7.80
  -3   2  -9  108.19    5.30
   3   2   9  109.69    7.50
  -3   2  -9  110.49    7.80
   3   2   9  106.09    7.30
   3   2   9  116.09    6.90
  -4  -2  -9    8.00    7.30
   4  -2   9    5.70    7.10
  -4  -2  -9   -4.60    5.40
  -4   2  -9   -0.30    6.30
   4   2   9    1.00    5.60
   4   2   9   -9.50    5.70
   4  -3  -9  340.57   13.90
   4  -3  -9  356.86   15.80
   4   3  -9  317.37   13.40
  -4   3   9  381.26   15.90
   3  -3  -9    9.40    2.70
   3  -3  -9    8.90    3.80
  -3  -3   9   -1.50    4.50
  -3  -3   9    8.20    3.20
   3  -3  -9   11.70    5.70
  -3   3   9   16.20    3.80
   3   3  -9   14.80    3.20
   3   3  -9    5.60    2.00
   3   3  -9   11.50    2.80
  -3   3   9   13.00    5.70
   2  -3  -9   28.30    4.20
  -2  -3   9   20.40    2.20
  -2  -3   9   21.20    2.90
   2  -3  -9   25.80    2.10
   2  -3  -9   24.70    3.00
  -2   3   9   22.10    4.10
  -2   3   9   23.00    3.30
   2   3  -9   20.10    2.90
   2   3  -9   23.00    4.40
   1  -3  -9   80.19    3.90
   1  -3  -9   78.69    4.50
   1  -3  -9   76.79    3.10
   1   3  -9   74.39    5.40
   1   3  -9   73.89    3.50
  -1   3   9   79.89    3.70
  -1   3   9   77.79    4.80
   0  -3  -9    4.50    1.30
   0  -3  -9    3.70    1.40
   0  -3   9    2.10    1.30
   0  -3  -9    3.80    1.40
   0  -3   9    5.70    1.70
   0   3   9    5.40    1.00
   0   3  -9    2.90    0.70
   0   3   9    3.70    1.70
   0   3  -9    5.40    0.90
   0   3   9    3.60    1.20
   0   3  -9    3.10    2.00
   0   3  -9    0.40    1.20
  -1  -3  -9  188.58    7.20
  -1  -3  -9  182.58    7.00
   1  -3   9  180.08    7.90
   1  -3   9  188.38    7.90
   1  -3   9  186.38    6.70
  -1  -3  -9  184.08    8.20
  -1   3  -9  189.18    7.60
  -1   3  -9  184.38    6.90
   1   3   9  187.18    7.20
   1   3   9  186.98    7.00
  -1   3  -9  174.98    6.80
   1   3   9  165.78    8.30
   2  -3   9    3.70    2.10
   2  -3   9    4.30    3.90
  -2  -3  -9    2.90    2.00
  -2  -3  -9    2.60    2.80
  -2  -3  -9   -0.30    3.40
   2  -3   9    3.20    3.80
   2   3   9    6.80    3.20
  -2   3  -9    2.60    2.70
   2   3   9    1.50    2.10
   2   3   9    7.10    2.80
   3  -3   9  133.09    9.70
  -3  -3  -9  130.49    8.70
  -3  -3  -9  116.79    9.80
   3  -3   9  131.49    6.80
  -3   3  -9  138.89    8.80
   3   3   9  123.89    7.10
  -3   3  -9  133.99    8.70
   3   3   9  135.29    8.50
   4  -3   9   72.29    9.90
  -4  -3  -9   61.89    8.70
   4   3   9   66.29   10.10
  -4   3  -9   90.39    9.90
   4  -4  -9   42.00    5.10
   4  -4  -9   41.80    7.50
   4   4  -9   38.10    4.60
   4   4  -9   36.00    6.10
  -4   4   9   59.09    8.80
   3  -4  -9   22.10    4.80
   3  -4  -9   23.40    3.40
  -3  -4   9   21.50    3.30
  -3   4   9   19.60    4.50
  -3   4   9   26.40    7.20
   3   4  -9   17.80    3.90
   2  -4  -9  123.99    6.60
   2  -4  -9  118.39    4.60
  -2   4   9  116.89    6.10
   2   4  -9  118.99    5.80
  -2   4   9  123.79    8.50
   2   4  -9  110.19    8.70
   1  -4  -9    6.00    1.10
   1  -4  -9    2.20    2.80
   1  -4  -9    4.70    2.00
   1   4  -9    1.10    3.40
   1   4  -9    3.70    1.50
  -1   4   9    2.70    1.50
   0  -4  -9   33.60    3.20
   0  -4   9   36.00    3.40
   0  -4  -9   35.30    4.20
   0  -4  -9   36.80    2.80
   0   4   9   34.60    2.00
   0   4   9   33.10    2.60
   0   4  -9   37.60    4.20
   0   4  -9   36.40    2.00
   0   4   9   34.20    3.60
   1  -4   9   -2.70    3.40
   1  -4   9    0.90    3.20
  -1  -4  -9    5.00    3.30
  -1  -4  -9    7.50    2.10
  -1  -4  -9    2.50    1.70
   1  -4   9    1.30    1.60
   1   4   9    0.90    1.90
   1   4   9    2.50    1.90
  -1   4  -9    1.20    1.60
   1   4   9    2.90    1.80
  -1   4  -9   -2.80    2.20
  -1   4  -9    2.40    1.60
   2  -4   9    5.30    4.70
   2  -4   9    2.30    4.80
  -2  -4  -9    1.60    4.50
  -2  -4  -9    0.40    2.20
  -2  -4  -9   -0.40    3.20
   2  -4   9    1.40    2.00
  -2   4  -9   -3.40    3.00
   2   4   9   -4.30    3.10
   2   4   9    1.80    3.60
  -2   4  -9   -2.80    3.40
   2   4   9    3.00    2.30
   3  -4   9   27.50    3.90
  -3  -4  -9   22.40    7.00
  -3  -4  -9   19.70    6.10
  -3   4  -9   29.10    5.60
   3   4   9   29.00    5.70
  -3   4  -9   33.70    6.10
   3  -5  -9   24.50    5.50
   3   5  -9   14.80    4.30
  -3   5   9   18.00    4.90
   2  -5  -9    6.30    3.50
  -2   5   9    6.60    3.10
   2   5  -9    1.90    2.80
  -2   5   9    2.20    5.80
   1  -5  -9  456.75   16.40
   1  -5  -9  463.65   17.10
   1   5  -9  459.55   15.80
  -1   5   9  436.46   16.00
  -1   5   9  453.95   17.70
   1   5  -9  437.76   18.30
   0  -5   9   26.40    2.90
   0  -5  -9   33.10    4.60
   0  -5  -9   28.80    3.30
   0  -5  -9   33.70    4.60
   0  -5   9   21.80    3.20
   0   5  -9   31.70    2.00
   0   5   9   37.60    4.80
   0   5  -9   27.60    4.20
   0   5   9   36.00    2.10
   1  -5   9    6.60    4.00
  -1  -5  -9    7.50    4.50
   1  -5   9    8.80    4.40
   1  -5   9    5.00    2.50
  -1  -5  -9    3.10    2.50
  -1  -5  -9    8.50    2.60
   1   5   9    6.00    2.80
  -1   5  -9    6.30    2.50
   1   5   9    2.50    2.60
  -1   5  -9    6.50    2.00
   1   5   9    5.00    2.10
   2  -5   9   56.19    8.60
  -2  -5  -9   56.39    6.30
   2  -5   9   55.89    3.80
  -2  -5  -9   54.09    7.70
   2   5   9   58.19    6.00
  -2   5  -9   65.29    6.50
   2   5   9   58.09    6.00
   2   5   9   60.09    4.70
  -2   5  -9   49.40    6.10
  -3  -5  -9  325.07   19.30
   3  -5   9  330.67   19.90
   3   5   9  312.07   15.20
  -3   5  -9  341.57   15.40
   2  -6  -9    6.50    6.20
  -2   6   9    6.60    3.50
   2   6  -9    1.00    3.40
  -2   6   9   -1.20    7.90
   1  -6  -9   13.30    5.50
   1  -6  -9    9.10    3.30
   1   6  -9    2.20    2.10
   1   6  -9    2.70    6.10
  -1   6   9    8.80    2.60
  -1   6   9   11.80    5.90
   0  -6  -9  216.88   11.90
   0  -6  -9  209.58    8.70
   0  -6   9  192.78    7.60
   0  -6   9  219.38    8.40
   0   6  -9  214.18    7.50
   0   6  -9  196.98   10.70
   0   6   9  204.78   10.70
   0   6   9  221.08    8.70
  -1  -6  -9    5.70    6.30
  -1  -6  -9   -1.10    3.20
  -1   6  -9    5.20    2.40
   1   6   9    6.00    2.20
  -1   6  -9    9.10    3.00
   1   6   9    6.00    3.10
   1   6   9    6.70    4.00
  -2  -6  -9  161.38   13.50
   2   6   9  117.19    7.60
   2   6   9  122.39    9.60
  -2   6  -9  141.79    8.70
   1  -7  -9   22.50   10.50
   0  -7  -9   16.70    8.80
   0   7   9   15.30    3.40
  -1  -7  -9   51.09   12.10
   1   7   9   49.20    6.50
  -1   7  -9   46.90    3.40
   4   0 -10  116.59   10.00
   4   0 -10  110.39    7.50
  -4   0  10  105.79    8.70
   4   0 -10  106.29    7.10
   3   0 -10   16.00    2.90
   3   0 -10   16.10    4.30
  -3   0  10    8.40    4.30
   3   0 -10   12.00    2.70
   3   0 -10   10.10    3.80
  -3   0  10   15.80    3.40
  -2   0  10    2.90    2.50
   2   0 -10    0.40    2.10
   2   0 -10   -0.40    1.50
   2   0 -10   -0.80    1.30
  -2   0  10    1.70    1.80
  -1   0  10    5.20    1.60
  -1   0  10    5.20    1.50
   0   0 -10 1341.37   44.60
   0   0 -10 1350.66   44.60
   0   0  10 1366.16   44.60
   0   0 -10 1299.67   44.50
   0   0  10 1373.26   44.60
   0   0  10 1349.16   44.50
  -1   0 -10   -1.50    1.40
   1   0  10   -1.80    1.30
  -1   0 -10   -0.50    1.50
   1   0  10   -1.20    1.50
  -1   0 -10   -2.00    1.20
  -2   0 -10   34.60    3.50
   2   0  10   33.80    4.20
   2   0  10   34.50    3.40
   2   0  10   30.50    3.80
  -2   0 -10   40.30    4.00
  -2   0 -10   29.10    3.30
  -3   0 -10    1.50    3.30
  -3   0 -10   -1.10    3.60
  -3   0 -10    1.20    3.10
   3   0  10    0.30    3.90
   3   0  10   -3.80    3.80
   3   0  10   -2.70    3.90
  -4   0 -10   -0.80    6.30
  -4   0 -10    0.20    6.10
   4   0  10   -2.00    6.20
   4  -1 -10   -4.60    6.00
  -4  -1  10   -0.70    5.20
   4  -1 -10    4.90    3.90
   4  -1 -10   -3.60    6.40
   4  -1 -10   -1.50    3.90
   4   1 -10    1.30    3.90
   4   1 -10    3.30    3.60
  -4   1  10   -8.80    5.00
   4   1 -10   -5.10    5.60
  -3  -1  10    5.20    4.50
   3  -1 -10    7.10    4.40
  -3  -1  10   15.40    3.40
   3  -1 -10   12.60    4.30
   3  -1 -10   12.30    2.80
   3  -1 -10   11.10    4.00
   3   1 -10   10.80    3.60
   3   1 -10   15.90    2.60
  -3   1  10    5.60    4.60
  -3   1  10    6.60    3.30
   3   1 -10   14.00    4.50
   2  -1 -10  828.62   29.80
   2  -1 -10  853.71   28.40
   2  -1 -10  845.12   28.70
  -2  -1  10  857.91   28.90
  -2  -1  10  843.42   28.40
  -2   1  10  829.32   28.60
   2   1 -10  794.82   28.50
   2   1 -10  837.32   29.50
  -2   1  10  838.02   29.20
   2   1 -10  850.41   28.70
   2   1 -10  856.21   28.30
   1  -1 -10   82.99    3.60
  -1  -1  10   77.39    3.90
  -1  -1  10   81.39    3.20
   1  -1 -10   82.89    3.30
   1  -1 -10   85.09    3.90
  -1  -1  10   86.09    3.60
   1   1 -10   82.89    3.50
   1   1 -10   83.49    3.50
  -1   1  10   81.39    4.10
   1   1 -10   80.79    3.20
  -1   1  10   78.29    3.50
  -1   1  10   81.29    3.70
   0  -1  10  843.92   27.70
   0  -1 -10  838.12   27.70
   0  -1 -10  805.52   27.80
   0  -1  10  847.02   27.70
   0  -1 -10  840.12   27.80
   0  -1  10  832.62   27.80
   0   1  10  832.62   27.80
   0   1 -10  799.22   27.80
   0   1 -10  807.92   27.70
   0   1  10  826.52   27.80
   0   1  10  834.22   27.70
   0   1 -10  838.02   27.60
  -1  -1 -10   48.30    3.00
   1  -1  10   47.70    3.40
  -1  -1 -10   47.30    2.70
  -1  -1 -10   46.90    3.10
   1  -1  10   50.19    2.60
  -1   1 -10   48.10    2.80
  -1   1 -10   44.10    2.70
   1   1  10   47.10    2.90
   1   1  10   42.30    3.00
   1   1  10   46.70    3.00
  -1   1 -10   46.60    3.30
   2  -1  10  356.36   13.40
   2  -1  10  348.47   12.60
  -2  -1 -10  339.07   12.80
  -2  -1 -10  363.36   13.50
   2  -1  10  351.26   13.70
  -2  -1 -10  342.77   13.30
  -2   1 -10  348.77   13.50
   2   1  10  356.66   12.90
  -2   1 -10  340.87   13.00
   2   1  10  348.57   12.90
   2   1  10  350.96   13.50
  -2   1 -10  343.67   12.60
   3  -1  10    7.90    3.90
  -3  -1 -10    7.50    3.40
   3  -1  10   13.70    4.50
  -3  -1 -10   13.40    4.20
  -3  -1 -10   14.20    3.70
  -3   1 -10   10.80    2.90
   3   1  10    9.80    3.80
   3   1  10    8.30    4.00
  -3   1 -10   16.90    4.20
   4  -1  10  153.98   12.00
  -4  -1 -10  158.98   11.80
  -4  -1 -10  154.58   10.10
  -4   1 -10  159.18    9.10
   4   1  10  150.58   11.10
  -4   1 -10  148.69   11.70
  -4  -2  10  270.17   12.30
   4  -2 -10  247.08   11.00
   4  -2 -10  230.18   13.70
   4  -2 -10  271.47   12.40
  -4   2  10  270.17   12.70
   4   2 -10  246.58   11.50
   4   2 -10  244.98   10.70
   3  -2 -10  215.68   10.90
   3  -2 -10  195.48    9.10
  -3  -2  10  207.08   10.10
   3  -2 -10  186.98    8.30
  -3  -2  10  203.98    8.60
   3   2 -10  201.18    8.00
   3   2 -10  181.88    8.60
   3   2 -10  199.38    9.10
  -3   2  10  211.68    9.30
   3   2 -10  185.98   11.20
  -3   2  10  198.58   11.10
   2  -2 -10   39.20    4.50
  -2  -2  10   37.90    4.20
   2  -2 -10   36.40    2.60
  -2  -2  10   34.70    2.70
   2  -2 -10   33.00    3.40
   2   2 -10   36.20    2.20
   2   2 -10   33.20    3.20
  -2   2  10   38.30    4.90
   2   2 -10   33.40    5.00
   2   2 -10   35.00    3.00
  -2   2  10   37.80    3.30
   1  -2 -10    2.50    1.70
  -1  -2  10    0.40    1.20
   1  -2 -10    2.00    1.00
   1  -2 -10    0.20    1.30
  -1   2  10    1.90    1.20
   1   2 -10    1.80    1.00
   1   2 -10    3.10    1.20
  -1   2  10    0.00    1.30
  -1   2  10   -0.70    1.90
   1   2 -10   -2.10    2.40
   0  -2 -10   40.80    2.20
   0  -2  10   34.30    2.20
   0  -2  10   38.30    2.30
   0  -2 -10   36.80    3.20
   0  -2 -10   34.10    2.30
   0   2 -10   31.20    2.30
   0   2  10   39.80    2.00
   0   2  10   33.30    2.30
   0   2 -10   37.40    1.80
   0   2 -10   39.00    2.00
   0   2  10   36.10    2.50
  -1  -2 -10    7.00    2.00
  -1  -2 -10    6.50    1.70
   1  -2  10    3.80    2.10
  -1  -2 -10    3.30    1.30
   1  -2  10    4.60    1.30
   1  -2  10    4.90    2.30
  -1  -2 -10    7.40    2.10
  -1   2 -10    2.70    1.90
   1   2  10    4.30    1.40
  -1   2 -10    2.80    1.40
  -1   2 -10    5.80    1.40
   1   2  10    3.80    1.50
   2  -2  10    2.40    3.10
  -2  -2 -10   10.80    3.00
   2  -2  10    7.50    2.20
   2  -2  10    6.50    3.30
  -2  -2 -10    5.80    1.90
  -2  -2 -10    9.60    2.90
   2   2  10    4.70    2.50
   2   2  10   10.30    2.70
  -2   2 -10    8.20    1.50
   2   2  10    8.60    3.00
  -2   2 -10    6.60    2.70
   3  -2  10   20.00    6.10
   3  -2  10   29.70    6.70
  -3  -2 -10   14.90    4.60
  -3  -2 -10   14.70    4.30
   3  -2  10   22.90    3.90
  -3   2 -10   16.30    4.60
   3   2  10   17.40    3.90
   3   2  10   20.40    4.70
  -3   2 -10   21.30    4.50
  -3   2 -10   14.10    2.50
   4  -2  10   10.20    7.20
  -4  -2 -10   17.90    7.60
  -4  -2 -10   11.70    6.20
   4   2  10   13.50    5.90
  -4   2 -10   19.60    6.50
   4   2  10    8.70    6.40
   4  -3 -10   15.40    5.80
   4  -3 -10    1.40    4.00
   4   3 -10    0.50    4.30
  -4   3  10    9.90    5.90
   4   3 -10    8.40    3.50
  -3  -3  10  759.32   26.20
   3  -3 -10  782.42   27.40
   3  -3 -10  813.42   26.30
   3  -3 -10  740.53   28.70
  -3  -3  10  734.43   27.00
   3   3 -10  732.73   26.80
   3   3 -10  727.53   26.20
  -3   3  10  764.22   28.70
   3   3 -10  748.03   25.80
  -3   3  10  808.22   27.20
   2  -3 -10    7.20    2.40
   2  -3 -10    8.90    3.60
  -2  -3  10    7.60    2.80
   2  -3 -10    5.40    1.50
  -2  -3  10    5.60    1.40
   2   3 -10    5.30    4.00
  -2   3  10    2.40    2.20
   2   3 -10    5.90    2.00
  -2   3  10    7.40    3.80
   1  -3 -10  120.29    5.80
   1  -3 -10  122.09    4.50
   1  -3 -10  124.29    5.20
  -1   3  10  117.19    5.00
   1   3 -10  120.49    6.60
   1   3 -10  123.29    4.90
  -1   3  10  114.59    4.70
  -1   3  10  110.69    6.60
   0  -3 -10   12.60    1.90
   0  -3 -10    8.60    1.60
   0  -3  10    7.30    1.80
   0  -3  10    5.50    1.40
   0  -3 -10   10.00    1.70
   0   3 -10    7.50    2.40
   0   3  10    7.00    1.20
   0   3  10    7.20    1.80
   0   3 -10    9.60    1.10
   0   3 -10    7.40    1.50
  -1  -3 -10    0.20    2.40
   1  -3  10    2.80    2.60
  -1  -3 -10    6.60    1.80
  -1  -3 -10    1.70    1.40
   1  -3  10    1.30    1.40
   1  -3  10    0.10    2.60
  -1   3 -10    0.60    2.00
   1   3  10    3.90    1.60
  -1   3 -10    5.50    1.60
  -1   3 -10    2.20    1.60
   1   3  10    4.10    1.60
  -1   3 -10    3.90    1.60
   1   3  10    2.70    1.70
  -2  -3 -10    9.10    2.20
   2  -3  10   10.10    4.20
  -2  -3 -10   11.00    3.20
  -2  -3 -10    5.60    3.60
   2  -3  10   10.90    3.90
   2  -3  10   10.30    2.30
  -2   3 -10    9.60    3.20
   2   3  10    7.40    2.30
  -2   3 -10   13.20    3.70
   2   3  10   12.00    3.10
   2   3  10   14.00    3.40
   3  -3  10   -0.70    7.10
  -3  -3 -10   11.40    5.30
  -3  -3 -10    7.10    4.90
   3  -3  10   14.30    3.60
  -3   3 -10    9.40    4.50
   3   3  10    4.00    3.50
   3   3  10    5.00    4.70
  -3   3 -10    3.30    4.80
   4  -3  10    0.30    8.10
  -4  -3 -10    4.20    7.30
  -4  -3 -10   13.70    8.20
   4   3  10   12.80    7.00
  -4   3 -10    1.70    6.40
   4  -4 -10    9.60    4.50
   4  -4 -10   17.40    6.60
   4   4 -10   13.30    5.30
  -4   4  10   19.90    6.70
   4   4 -10    7.80    2.90
  -3  -4  10    3.30    2.90
   3  -4 -10   -4.00    4.00
   3  -4 -10    3.80    2.40
   3   4 -10    1.40    3.50
  -3   4  10    2.40    4.10
   2  -4 -10   14.40    4.70
   2  -4 -10   14.90    3.10
  -2   4  10   15.00    2.90
  -2   4  10   18.50    5.00
   2   4 -10   20.70    5.30
   1  -4 -10  143.09    6.30
   1  -4 -10  149.19    7.20
   1  -4 -10  140.79    5.30
  -1   4  10  140.09    6.00
   1   4 -10  139.09    5.70
  -1   4  10  147.19    7.60
   1   4 -10  147.19    8.30
   0  -4 -10   31.10    3.00
   0  -4  10   41.00    3.80
   0  -4 -10   36.70    3.00
   0  -4  10   37.30    2.80
   0  -4  10   43.90    3.50
   0  -4 -10   32.80    3.30
   0  -4 -10   39.10    4.40
   0   4  10   36.70    2.20
   0   4 -10   36.80    2.00
   0   4 -10   46.30    2.20
   0   4  10   39.70    2.80
   0   4 -10   33.50    4.50
   0   4  10   36.10    3.80
  -1  -4 -10    5.60    2.10
  -1  -4 -10    7.30    3.40
   1  -4  10    0.10    3.30
  -1  -4 -10    1.80    1.80
   1  -4  10    1.90    1.80
   1  -4  10    4.60    3.40
  -1   4 -10    1.40    2.30
   1   4  10    5.10    1.90
  -1   4 -10    2.50    1.90
   1   4  10    2.80    2.10
  -1   4 -10    1.40    1.70
  -1   4 -10    2.80    1.90
   1   4  10    3.60    1.90
   2  -4  10   11.80    2.40
  -2  -4 -10   14.90    3.80
   2  -4  10    7.70    5.00
  -2  -4 -10    8.60    4.80
   2  -4  10   -5.50    5.40
   2   4  10   12.90    2.70
   2   4  10   12.60    3.70
  -2   4 -10   10.20    3.50
  -2   4 -10   11.70    3.80
   2   4  10   10.80    3.50
   3  -4  10    6.70    3.80
  -3  -4 -10    5.90    6.10
  -3  -4 -10   -3.20    6.70
   3   4  10   -1.90    5.30
  -3   4 -10    0.20    4.70
   3   4  10   -4.00    3.40
   3  -5 -10   53.59    7.80
  -3   5  10   70.29    7.00
   3   5 -10   53.29    5.60
   2  -5 -10   34.10    5.00
  -2   5  10   34.40    4.60
  -2   5  10   34.40    6.90
   1  -5 -10   14.60    2.80
   1   5 -10   14.60    2.10
  -1   5  10   16.40    4.50
   1   5 -10   13.70    5.00
  -1   5  10   14.20    2.40
   0  -5 -10   49.99    3.90
   0  -5  10   46.80    3.90
   0  -5  10   44.90    3.50
   0  -5 -10   52.59    4.90
   0  -5 -10   53.09    6.20
   0   5  10   51.59    3.50
   0   5 -10   48.50    2.60
   0   5  10   46.30    5.40
   0   5 -10   52.59    6.00
   0   5  10   50.29    2.60
   1  -5  10   -4.40    4.20
  -1  -5 -10   -1.70    4.70
  -1  -5 -10    2.10    2.40
   1  -5  10   -1.10    4.30
   1  -5  10    1.30    2.80
  -1  -5 -10   -0.60    2.60
  -1   5 -10    2.90    2.10
   1   5  10    3.80    2.80
  -1   5 -10   -2.70    2.40
   1   5  10    1.40    2.10
   1   5  10    0.40    2.40
  -1   5 -10    3.30    2.20
  -2  -5 -10    8.00    4.40
   2  -5  10    8.30    3.10
  -2  -5 -10   10.50    6.40
   2  -5  10    6.80    6.20
   2   5  10   15.30    4.10
   2   5  10   17.50    3.10
  -2   5 -10    8.00    4.00
   2   5  10    2.60    4.20
  -2   5 -10    7.60    4.30
  -3  -5 -10   31.40    9.00
   3  -5  10   -1.00    8.80
  -3   5 -10   19.60    5.60
   3   5  10   14.30    6.60
   2  -6 -10   -3.30    4.50
   2  -6 -10   -2.20    6.20
  -2   6  10    5.70    3.60
  -2   6  10    3.20    8.20
   2   6 -10    1.20    3.30
   1  -6 -10    8.10    3.30
   1  -6 -10    1.40    5.60
  -1   6  10    9.30    2.80
  -1   6  10   -5.20    5.90
   1   6 -10    2.40    2.10
   1   6 -10   -0.40    6.10
   0  -6 -10  233.18    9.70
   0  -6 -10  248.08   13.00
   0   6  10  240.78   11.80
   0   6 -10  237.78    8.50
   0   6  10  238.78    9.70
   0   6 -10  234.98   11.60
  -1  -6 -10   12.40    7.10
  -1  -6 -10    5.70    3.40
  -1   6 -10    6.30    2.40
   1   6  10    4.30    2.20
   1   6  10    2.80    3.20
   1   6  10    2.00    4.80
  -1   6 -10    4.10    2.30
  -2  -6 -10   81.99   12.30
   2   6  10   75.39    7.40
   2   6  10   73.89    8.20
  -2   6 -10   74.79    7.30
   1  -7 -10   12.80    9.20
  -1   7  10    5.00    3.10
   0  -7 -10    0.10    8.90
   0   7  10   -2.90    3.20
  -1  -7 -10   23.10   10.00
  -1   7 -10    1.70    2.10
   1   7  10    4.00    4.30
   4   0 -11   -0.10    4.00
  -4   0  11    9.80    5.20
   4   0 -11    3.30    4.00
   4   0 -11   10.00    6.40
  -3   0  11  322.47   12.50
   3   0 -11  328.37   13.90
   3   0 -11  308.97   12.50
  -3   0  11  288.67   13.60
   3   0 -11  332.77   13.30
   2   0 -11   -0.50    2.20
   2   0 -11    0.10    1.40
   2   0 -11    1.40    1.50
  -2   0  11   -4.10    2.40
  -2   0  11   -0.70    1.70
   1   0 -11 1302.37   42.90
   1   0 -11 1287.47   42.70
  -1   0  11 1261.27   42.70
   1   0 -11 1285.47   42.70
  -1   0  11 1292.97   42.90
  -1   0  11 1273.97   42.90
  -1   0 -11 1082.79   35.80
   1   0  11 1020.40   36.10
  -1   0 -11 1066.89   35.60
  -1   0 -11 1080.69   35.90
  -2   0 -11    2.90    2.50
   2   0  11    0.30    2.30
   2   0  11   -2.40    2.60
  -2   0 -11    0.60    2.00
  -2   0 -11    3.50    2.30
   2   0  11    0.10    2.50
  -2   0 -11   -0.10    2.00
  -3   0 -11  308.37   15.90
   3   0  11  318.37   13.20
  -3   0 -11  307.67   12.80
   3   0  11  311.67   13.70
  -3   0 -11  306.07   12.80
  -4   0 -11    0.90    5.00
   4   0  11    1.00    6.40
  -4   0 -11   -0.70    6.50
   4  -1 -11   62.19    6.70
   4  -1 -11   52.39    5.90
  -4  -1  11   52.29    7.50
   4  -1 -11   62.99    7.90
  -4   1  11   52.29    7.30
   4   1 -11   50.39    5.90
   4   1 -11   51.89    6.10
   4   1 -11   49.90    6.90
  -3  -1  11  139.29    7.10
   3  -1 -11  138.69    6.70
   3  -1 -11  157.18    8.90
  -3  -1  11  151.48    8.80
   3  -1 -11  143.79    7.20
   3  -1 -11  144.09    8.50
  -3   1  11  157.28    7.60
   3   1 -11  136.09    6.80
   3   1 -11  143.39    9.20
   3   1 -11  140.59    7.90
   3   1 -11  147.19    6.70
  -2  -1  11  591.14   19.80
   2  -1 -11  580.14   20.10
  -2  -1  11  573.34   20.40
   2  -1 -11  575.44   19.90
   2   1 -11  585.54   20.30
   2   1 -11  544.95   20.00
  -2   1  11  586.74   20.10
  -2   1  11  560.34   20.70
   2   1 -11  599.74   21.20
   2   1 -11  581.34   19.80
   1  -1 -11 1049.70   34.20
  -1  -1  11 1066.89   34.30
   1  -1 -11 1027.00   34.40
  -1  -1  11  976.80   34.60
   1  -1 -11 1050.69   34.60
   1   1 -11 1056.09   34.10
  -1   1  11  991.60   35.40
   1   1 -11 1023.80   34.30
  -1   1  11 1029.70   34.40
  -1   1  11 1015.20   34.30
   1   1 -11 1013.20   34.30
   0  -1  11  239.58    8.30
   0  -1  11  236.68    8.30
   0  -1 -11  234.48    8.30
   0  -1 -11  243.18    8.30
   0  -1 -11  227.78    8.40
   0  -1  11  231.48    8.30
   0   1 -11  229.58    8.20
   0   1  11  239.98    8.40
   0   1 -11  223.58    8.30
   0   1  11  238.08    8.20
   0   1 -11  231.88    8.20
   0   1  11  231.98    8.40
  -1  -1 -11   80.39    4.10
  -1  -1 -11   71.09    4.00
   1  -1  11   82.49    4.40
  -1  -1 -11   79.79    4.00
   1  -1  11   82.19    4.20
   1   1  11   84.99    3.90
  -1   1 -11   80.29    3.80
   1   1  11   76.89    4.10
  -1   1 -11   78.59    4.30
  -1   1 -11   74.59    3.70
   1   1  11   82.49    3.80
  -2  -1 -11   14.10    2.40
  -2  -1 -11   18.10    2.90
   2  -1  11   13.70    3.40
   2  -1  11   17.70    3.30
   2  -1  11   20.40    2.70
  -2  -1 -11   24.00    3.20
  -2   1 -11   17.00    2.80
   2   1  11   17.60    3.20
  -2   1 -11   16.90    3.10
   2   1  11   16.40    2.90
   2   1  11   19.00    2.70
  -2   1 -11   17.40    2.30
  -2   1 -11   19.70    2.80
  -3  -1 -11   18.90    3.80
  -3  -1 -11   11.60    4.40
   3  -1  11   14.00    5.10
  -3  -1 -11   20.10    4.00
   3  -1  11   10.10    4.50
   3  -1  11   15.10    3.90
   3   1  11   13.10    4.40
  -3   1 -11   14.30    4.40
  -3   1 -11    9.20    3.10
  -3   1 -11   10.40    3.80
   3   1  11   18.40    4.00
  -4  -1 -11   89.19    8.90
  -4  -1 -11   82.09   11.20
   4  -1  11   83.19   10.50
  -4   1 -11   76.39   10.30
   4   1  11   84.19   10.10
  -4   1 -11   80.29    7.50
   4  -2 -11   26.90    4.60
   4  -2 -11   10.50    6.50
   4  -2 -11   24.80    5.40
  -4  -2  11   31.00    5.60
   4   2 -11   24.70    5.00
   4   2 -11   26.20    3.90
  -4   2  11   22.60    5.90
   3  -2 -11  112.69    5.60
   3  -2 -11   98.29    8.40
  -3  -2  11   98.49    5.90
   3  -2 -11  116.99    6.60
  -3  -2  11   96.89    7.80
  -3   2  11  120.89    9.00
   3   2 -11   98.89    6.00
  -3   2  11  106.69    6.60
   3   2 -11  109.09    6.70
   3   2 -11  107.09    5.20
  -2  -2  11  144.89    6.80
  -2  -2  11  146.09    5.80
   2  -2 -11  133.49    7.30
   2  -2 -11  153.28    5.90
   2  -2 -11  155.68    6.60
   2   2 -11  152.38    5.60
  -2   2  11  140.19    7.60
   2   2 -11  147.09    6.20
   2   2 -11  141.29    8.10
   2   2 -11  144.49    6.20
  -2   2  11  144.79    6.40
   1  -2 -11  124.79    4.60
  -1  -2  11  125.19    4.80
  -1  -2  11  129.19    4.60
   1  -2 -11  119.29    5.40
   1  -2 -11  122.19    5.10
   1   2 -11  119.19    4.40
   1   2 -11  120.69    4.70
   1   2 -11  120.09    4.90
  -1   2  11  121.19    4.90
  -1   2  11  121.29    5.00
  -1   2  11  116.89    5.70
   0  -2  11   58.79    2.80
   0  -2 -11   59.69    3.00
   0  -2  11   56.79    2.90
   0  -2 -11   57.79    2.80
   0  -2 -11   55.39    2.90
   0   2  11   58.49    3.00
   0   2 -11   59.29    2.50
   0   2 -11   55.89    2.60
   0   2  11   59.79    3.20
   0   2  11   59.19    2.70
   0   2 -11   54.79    3.00
   1  -2  11   80.89    4.90
  -1  -2 -11   83.09    3.90
  -1  -2 -11   83.59    4.30
   1  -2  11   88.39    4.70
  -1  -2 -11   86.09    4.50
   1   2  11   82.99    4.20
  -1   2 -11   88.19    3.90
   1   2  11   83.09    4.00
   1   2  11   89.39    4.00
  -1   2 -11   86.99    4.60
  -1   2 -11   85.09    4.00
   2  -2  11  179.78    6.90
  -2  -2 -11  167.18    8.20
  -2  -2 -11  166.18    7.90
  -2  -2 -11  164.78    7.00
   2  -2  11  169.68    8.70
   2  -2  11  171.48    8.20
   2   2  11  173.08    7.50
  -2   2 -11  158.88    6.60
  -2   2 -11  166.18    7.60
  -2   2 -11  155.88    7.20
   2   2  11  175.18    7.90
  -2   2 -11  167.18    8.00
   2   2  11  171.58    7.20
  -3  -2 -11    8.40    4.50
  -3  -2 -11    4.40    4.20
   3  -2  11    6.90    3.70
   3   2  11    2.60    3.60
  -3   2 -11    4.30    4.20
  -3   2 -11    5.80    2.30
   3   2  11   -4.80    4.20
  -4  -2 -11   19.20    7.50
  -4  -2 -11   19.20    6.40
   4  -2  11   21.80    8.00
  -4   2 -11    8.30    6.40
   4   2  11   10.40    6.40
   4   2  11    5.50    6.50
   4  -3 -11   10.90    5.60
   4  -3 -11   10.40    4.30
   4   3 -11   16.60    4.90
   4   3 -11   15.10    3.40
  -4   3  11   23.20    6.10
   3  -3 -11  237.08   10.30
   3  -3 -11  230.48   12.60
  -3  -3  11  218.88    8.90
  -3  -3  11  194.98   10.60
   3  -3 -11  229.98    8.80
  -3   3  11  226.48   13.20
   3   3 -11  210.58    8.20
   3   3 -11  206.88    9.00
  -3   3  11  232.28   10.20
   3   3 -11  216.98    9.60
   2  -3 -11  110.59    4.50
   2  -3 -11  105.99    5.70
  -2  -3  11  106.79    5.70
  -2  -3  11  105.69    4.30
   2  -3 -11  104.39    7.00
   2   3 -11  108.79    5.20
  -2   3  11  109.99    7.40
   2   3 -11   98.59    7.80
  -2   3  11  110.39    5.50
   1  -3 -11   18.40    2.40
   1  -3 -11   18.10    1.60
   1  -3 -11   15.30    2.70
  -1  -3  11   18.20    1.60
  -1  -3  11   16.80    1.90
   1   3 -11   14.60    3.40
  -1   3  11   14.90    2.10
  -1   3  11   21.90    2.20
   1   3 -11   20.40    2.00
  -1   3  11   20.10    2.90
   0  -3 -11  743.53   25.20
   0  -3  11  756.02   25.20
   0  -3 -11  710.53   25.00
   0  -3 -11  742.73   25.20
   0  -3  11  751.72   25.10
   0   3 -11  746.03   25.00
   0   3 -11  739.13   24.80
   0   3 -11  757.22   24.60
   0   3  11  731.13   24.80
   0   3 -11  747.73   25.70
   0   3  11  725.03   25.10
   0   3  11  738.63   25.30
  -1  -3 -11  376.96   13.30
  -1  -3 -11  330.07   13.70
   1  -3  11  393.06   13.90
  -1  -3 -11  367.26   14.30
   1  -3  11  393.56   14.20
  -1  -3 -11  366.36   13.50
  -1   3 -11  369.36   13.30
   1   3  11  377.36   13.60
   1   3  11  389.16   13.20
   1   3  11  378.06   13.30
  -1   3 -11  381.56   13.20
  -1   3 -11  379.16   13.90
  -2  -3 -11   20.10    3.60
   2  -3  11   12.70    4.10
  -2  -3 -11   18.60    2.60
   2  -3  11   28.10    4.80
   2  -3  11   23.70    3.10
   2   3  11   17.80    3.60
   2   3  11   19.50    3.20
  -3  -3 -11   22.60    6.00
   3  -3  11   20.80    3.80
  -3  -3 -11   31.10    5.70
   3   3  11   23.50    4.20
  -3   3 -11   27.20    5.30
   3   3  11   20.20    5.20
  -3   3 -11   20.20    5.00
  -4  -3 -11    3.40    7.70
   4  -3  11   16.40    8.70
  -4  -3 -11    0.00    7.90
  -4   3 -11    6.80    7.30
   4   3  11    6.60    7.10
   3  -4 -11  117.59    7.90
   3  -4 -11  112.59    5.50
  -3  -4  11  103.99    5.80
  -3   4  11  117.69    7.80
   3   4 -11  114.59    7.00
   2  -4 -11  695.03   26.80
   2  -4 -11  763.12   25.80
   2  -4 -11  743.93   24.50
  -2   4  11  753.62   25.50
  -2   4  11  743.53   27.00
   2   4 -11  713.43   25.40
   2   4 -11  683.03   27.40
   1  -4 -11    2.70    2.00
   1  -4 -11    6.00    3.00
   1  -4 -11    2.60    1.40
  -1   4  11    6.40    3.40
   1   4 -11    4.10    1.60
   1   4 -11   -3.10    3.90
  -1   4  11    2.90    1.70
   0  -4  11  777.32   25.50
   0  -4 -11  707.03   25.80
   0  -4 -11  755.42   26.20
   0  -4 -11  771.22   26.00
   0  -4  11  711.03   26.00
   0   4 -11  790.52   25.30
   0   4  11  776.62   25.40
   0   4 -11  768.62   25.50
   0   4  11  768.12   26.00
   0   4  11  765.32   26.30
  -1  -4 -11   69.69    6.40
   1  -4  11   71.69    5.70
  -1  -4 -11   74.69    4.50
   1  -4  11   79.79    5.80
  -1  -4 -11   66.79    4.00
   1   4  11   75.59    3.90
   1   4  11   68.49    4.40
  -1   4 -11   72.99    4.10
  -1   4 -11   72.89    4.90
  -1   4 -11   73.59    3.80
  -1   4 -11   71.49    4.20
   1   4  11   71.59    4.40
   2  -4  11   49.00    3.70
  -2  -4 -11   52.19    5.90
   2  -4  11   47.20    7.30
  -2  -4 -11   46.60    6.30
   2   4  11   45.70    4.50
  -2   4 -11   46.30    5.60
   2   4  11   53.39    5.00
   2   4  11   46.30    5.40
  -3  -4 -11   -2.90    6.20
  -3  -4 -11    5.50    7.00
   3  -4  11    5.90    8.70
   3  -4  11   -5.70    3.70
   3   4  11    3.30    4.30
  -3   4 -11   -2.70    4.90
   3   4  11    1.50    5.50
  -3   4 -11    0.80    5.50
   3  -5 -11   16.60    5.50
  -3   5  11    5.70    4.60
   3   5 -11   17.10    4.50
   2  -5 -11   57.59    6.40
   2  -5 -11   46.20    2.70
  -2   5  11   61.09    9.20
   2   5 -11   48.40    4.30
  -2   5  11   58.59    4.90
   1  -5 -11    6.30    2.70
   1  -5 -11    7.80    2.00
   1   5 -11    9.40    2.00
  -1   5  11    8.20    4.80
   1   5 -11    2.40    5.00
  -1   5  11    9.70    2.30
   0  -5  11   81.89    4.20
   0  -5  11   87.39    5.00
   0  -5 -11   85.79    7.50
   0  -5 -11   88.59    5.00
   0   5 -11   86.79    6.90
   0   5 -11   89.59    3.80
   0   5  11   83.69    3.70
   0   5  11   94.19    4.80
   0   5  11   86.39    6.40
   1  -5  11   29.90    3.40
  -1  -5 -11   31.00    5.50
   1  -5  11   33.50    4.80
  -1  -5 -11   27.50    3.50
   1  -5  11   34.00    5.10
   1   5  11   26.20    3.00
   1   5  11   26.70    3.40
  -1   5 -11   26.60    2.80
  -1   5 -11   30.90    3.30
  -1   5 -11   25.20    3.10
   1   5  11   28.90    4.40
  -1   5 -11   30.30    4.00
  -2  -5 -11   17.70    7.10
   2  -5  11   24.90    6.50
  -2  -5 -11   12.10    4.70
   2  -5  11   20.80    3.00
   2   5  11   13.50    4.10
  -2   5 -11   13.10    4.30
   2   5  11    7.60    4.50
  -3  -5 -11   11.90    9.00
   3  -5  11    7.10    9.00
  -3   5 -11   -5.50    5.50
   3   5  11    7.80    6.70
   2  -6 -11    7.10    6.10
   2  -6 -11   -2.50    4.40
  -2   6  11   18.90   10.00
   2   6 -11   -2.60    3.30
  -2   6  11    3.40    3.50
   1  -6 -11   88.39    9.30
   1  -6 -11   85.09    6.30
   1   6 -11   80.29    4.40
  -1   6  11   78.39    5.30
  -1   6  11   85.69    9.50
   1   6 -11   72.49    9.90
   0  -6 -11  115.89    9.90
   0  -6 -11  113.99    6.30
   0   6  11  117.29    9.90
   0   6 -11  115.79    4.70
   0   6 -11  105.29    8.50
   0   6  11  120.29    6.20
   0   6  11  101.49    4.50
  -1  -6 -11   91.59   11.50
  -1  -6 -11   86.79    6.20
  -1   6 -11   78.19    4.80
   1   6  11   77.59    4.60
   1   6  11   78.19    6.10
  -2  -6 -11   12.50    9.00
   2   6  11   33.60    6.10
  -2   6 -11   31.00    5.30
   1  -7 -11   33.90    9.50
  -1   7  11   39.20    5.40
   0  -7 -11   44.90   10.40
   0   7  11   45.70    5.30
  -1  -7 -11  270.97   18.00
  -1   7 -11  215.78    8.90
   1   7  11  258.67   11.50
  -4   0  12   47.70    6.30
   4   0 -12   42.90    5.20
   4   0 -12   44.30    5.10
   4   0 -12   47.50    7.50
   3   0 -12   -2.40    2.30
   3   0 -12   -1.50    4.40
  -3   0  12   -4.40    3.00
   3   0 -12   -1.90    3.70
  -3   0  12   -2.60    5.50
   2   0 -12   67.79    4.50
  -2   0  12   64.69    3.70
  -2   0  12   65.59    4.70
   2   0 -12   59.89    3.50
   2   0 -12   57.19    3.40
   1   0 -12   -2.10    1.30
   1   0 -12    0.70    1.00
  -1   0  12   -1.40    1.00
   1   0 -12    0.50    1.00
   0   0 -12 6950.70  227.68
   0   0 -12 6731.33  227.78
   0   0  12 7037.20  227.78
   0   0  12 6888.11  227.78
   0   0 -12 7030.10  227.98
   0   0  12 6984.10  227.68
  -1   0 -12    0.80    1.50
   1   0  12   -0.20    1.60
  -1   0 -12   -0.20    1.60
  -1   0 -12   -1.40    1.20
   1   0  12   -1.10    1.60
   1   0  12    0.50    1.40
  -2   0 -12   53.79    4.10
  -2   0 -12   59.09    5.00
   2   0  12   65.99    4.10
   2   0  12   57.39    5.00
  -2   0 -12   56.59    4.10
   2   0  12   57.69    4.50
  -2   0 -12   64.39    4.20
  -3   0 -12    0.60    3.30
   3   0  12    5.50    4.30
  -3   0 -12    1.40    4.00
  -3   0 -12    2.80    3.40
   3   0  12   -3.40    4.10
   4   0  12   34.60    7.30
  -4   0 -12   21.40    5.30
  -4   0 -12   13.80    7.00
  -4  -1  12   63.99    7.70
   4  -1 -12   68.09    9.90
   4  -1 -12   69.19    6.30
   4  -1 -12   73.39    7.00
   4   1 -12   61.39    6.30
  -4   1  12   63.09    7.90
   4   1 -12   68.79    6.20
   4   1 -12   61.89    7.60
   3  -1 -12  217.38   10.90
   3  -1 -12  213.78   10.70
   3  -1 -12  217.08    9.40
   3  -1 -12  219.48    8.90
  -3  -1  12  222.58    9.30
  -3  -1  12  216.18   10.70
   3   1 -12  229.58   10.10
   3   1 -12  214.88   11.40
   3   1 -12  212.08    9.10
   3   1 -12  183.58   10.60
  -3   1  12  232.68    9.70
   2  -1 -12  124.69    5.10
   2  -1 -12  119.69    6.30
  -2  -1  12  116.29    5.00
  -2  -1  12  113.79    6.10
   2  -1 -12  114.59    5.30
  -2   1  12  113.49    6.40
   2   1 -12  118.29    5.30
  -2   1  12  118.59    5.40
   2   1 -12  118.29    4.90
   2   1 -12  122.39    5.70
   1  -1 -12  259.97    9.20
   1  -1 -12  262.97    9.40
  -1  -1  12  250.77    9.60
   1  -1 -12  263.57    9.70
  -1  -1  12  263.97    9.10
  -1  -1  12  263.87    9.80
  -1   1  12  262.67    9.50
   1   1 -12  267.47    9.10
  -1   1  12  264.27    9.80
   1   1 -12  262.27    9.30
   1   1 -12  255.17    9.30
  -1   1  12  259.37    9.30
   0  -1 -12  193.68    7.00
   0  -1  12  192.48    7.00
   0  -1 -12  190.58    7.00
   0  -1  12  193.48    7.00
   0  -1 -12  188.58    7.10
   0  -1  12  195.28    7.10
   0   1  12  186.98    7.10
   0   1 -12  187.78    7.10
   0   1 -12  188.78    6.90
   0   1  12  196.28    7.20
   0   1  12  197.28    7.00
   0   1 -12  193.78    6.90
  -1  -1 -12  616.24   22.00
   1  -1  12  659.63   21.60
  -1  -1 -12  635.84   22.10
  -1  -1 -12  626.64   21.80
   1  -1  12  633.74   22.30
   1  -1  12  659.23   22.00
   1   1  12  651.63   21.70
   1   1  12  632.54   22.10
  -1   1 -12  638.24   22.30
  -1   1 -12  630.84   21.80
  -1   1 -12  642.64   21.80
  -2  -1 -12   18.30    2.90
   2  -1  12   17.30    2.60
  -2  -1 -12   13.40    2.50
   2  -1  12   13.00    3.20
   2  -1  12   10.40    3.50
  -2  -1 -12   14.70    3.10
  -2   1 -12   15.40    2.60
   2   1  12   15.80    3.20
   2   1  12   13.90    2.80
  -2   1 -12   19.50    3.20
  -2   1 -12   18.40    2.80
  -2   1 -12   17.00    2.20
   2   1  12   17.30    2.70
   3  -1  12   18.50    4.90
   3  -1  12   10.70    4.80
  -3  -1 -12   13.00    4.50
   3  -1  12   10.20    3.70
  -3  -1 -12    6.30    3.90
  -3   1 -12   13.10    3.80
  -3   1 -12   16.70    3.30
   3   1  12    9.50    4.10
   3   1  12   16.70    4.70
  -3   1 -12   16.90    4.50
  -4  -1 -12   15.80    5.80
   4  -1  12    8.20    7.50
  -4  -1 -12    6.90    7.30
  -4   1 -12    3.00    4.70
   4   1  12    8.20    6.70
  -4   1 -12   15.90    7.10
   4  -2 -12   14.10    4.20
   4  -2 -12    9.90    7.00
   4  -2 -12   17.70    4.90
  -4  -2  12   19.60    5.70
   4   2 -12   20.50    4.50
  -4   2  12   16.70    5.70
   4   2 -12   15.00    3.60
  -3  -2  12   56.59    4.60
   3  -2 -12   51.19    4.20
   3  -2 -12   56.19    7.60
   3  -2 -12   55.99    5.20
  -3  -2  12   52.09    6.00
  -3   2  12   62.19    7.90
   3   2 -12   52.79    4.60
   3   2 -12   52.69    5.50
  -3   2  12   52.69    5.70
   3   2 -12   53.39    3.80
   2  -2 -12  279.97   10.00
   2  -2 -12  277.87   10.60
  -2  -2  12  273.37    9.80
   2  -2 -12  284.27   11.50
  -2  -2  12  277.37   10.70
   2   2 -12  270.67   10.30
   2   2 -12  256.27   12.00
   2   2 -12  273.37   10.30
  -2   2  12  268.97   11.40
  -2   2  12  282.97   10.50
   2   2 -12  274.67    9.70
   1  -2 -12   12.30    2.20
  -1  -2  12    9.40    2.30
  -1  -2  12   13.40    2.00
   1  -2 -12   11.60    1.50
  -1  -2  12   11.60    1.50
   1  -2 -12   11.90    1.70
   1   2 -12   11.10    1.70
  -1   2  12   13.90    1.80
  -1   2  12   10.10    2.30
   1   2 -12   11.60    1.30
   1   2 -12   12.90    1.60
  -1   2  12   11.20    1.60
   0  -2 -12   31.90    2.20
   0  -2 -12   31.60    2.40
   0  -2 -12   33.10    2.30
   0  -2  12   31.70    2.90
   0   2 -12   33.50    2.50
   0   2  12   35.00    2.40
   0   2 -12   35.80    2.00
   0   2 -12   35.10    1.90
   0   2  12   36.60    2.70
   0   2  12   34.50    2.10
   1  -2  12   46.70    2.70
  -1  -2 -12   42.00    3.40
   1  -2  12   44.20    4.00
  -1  -2 -12   44.10    2.80
  -1  -2 -12   43.80    3.20
   1  -2  12   37.80    3.70
   1   2  12   43.10    3.10
  -1   2 -12   42.20    2.80
  -1   2 -12   41.30    3.60
   1   2  12   45.30    2.90
   1   2  12   36.50    3.40
  -1   2 -12   46.80    2.80
   2  -2  12  106.09    5.00
   2  -2  12  107.39    7.00
  -2  -2 -12  104.99    6.40
  -2  -2 -12  101.89    5.10
   2  -2  12  102.29    6.60
  -2  -2 -12   97.29    6.10
  -2   2 -12  100.19    6.10
  -2   2 -12   93.99    4.60
   2   2  12  110.29    5.70
  -2   2 -12   92.39    5.30
  -2   2 -12  100.59    5.70
   2   2  12   98.69    6.00
   2   2  12  103.99    5.50
  -3  -2 -12    4.50    4.40
  -3  -2 -12    8.00    4.60
   3  -2  12   11.20    5.90
   3  -2  12    4.80    3.70
  -3   2 -12    9.00    4.00
  -3   2 -12    8.90    4.60
   3   2  12    7.10    3.80
  -3   2 -12    9.80    2.50
   3   2  12    1.20    4.50
   4  -2  12   72.39   11.30
  -4  -2 -12   80.69   10.30
  -4  -2 -12   89.29   11.40
  -4   2 -12   85.09   10.20
   4   2  12   90.19   10.30
   4  -3 -12   52.19    7.80
   4  -3 -12   46.50    5.90
   4   3 -12   46.70    6.10
   4   3 -12   41.70    5.00
  -4   3  12   55.29    8.50
   3  -3 -12   -0.30    3.50
   3  -3 -12    1.10    2.50
  -3  -3  12   -3.40    5.00
  -3  -3  12   -1.80    2.70
   3   3 -12    6.50    2.90
   3   3 -12    1.10    1.90
   3   3 -12    3.30    3.10
  -3   3  12    9.50    3.70
  -2  -3  12   -2.10    3.10
   2  -3 -12    2.70    2.30
   2  -3 -12   -1.60    3.40
   2  -3 -12    1.00    1.50
  -2  -3  12    3.30    1.40
  -2   3  12    2.30    2.20
   2   3 -12   -1.30    2.00
   2   3 -12   -0.20    4.20
  -1  -3  12    5.70    1.50
  -1  -3  12    2.50    1.20
   1  -3 -12    4.00    2.30
   1  -3 -12    6.50    1.80
   1  -3 -12    6.80    1.30
  -1   3  12    6.60    1.70
   1   3 -12    5.60    1.50
  -1   3  12    3.30    1.50
  -1   3  12    1.60    2.70
   1   3 -12    3.10    3.20
   0  -3 -12   92.69    4.30
   0  -3  12   88.19    4.50
   0  -3  12   89.69    4.70
   0  -3 -12   89.39    4.50
   0  -3 -12   99.79    4.40
   0  -3  12   97.89    4.10
   0   3 -12   93.59    4.40
   0   3 -12   93.39    5.60
   0   3 -12   96.39    3.70
   0   3  12   92.49    5.30
   0   3 -12   98.79    3.90
   0   3  12   96.89    4.30
   0   3  12  101.99    3.90
   1  -3  12  169.28    7.50
  -1  -3 -12  159.88    6.60
  -1  -3 -12  163.78    7.00
  -1  -3 -12  161.98    7.80
  -1  -3 -12  156.38    7.20
   1  -3  12  169.08    6.40
   1  -3  12  167.68    7.80
   1   3  12  170.18    6.50
  -1   3 -12  167.68    6.50
  -1   3 -12  161.58    6.60
   1   3  12  163.08    6.80
   1   3  12  167.28    7.00
  -1   3 -12  168.08    7.40
   2  -3  12    3.10    2.40
   2  -3  12   -5.70    4.50
  -2  -3 -12    0.40    3.80
  -2  -3 -12    1.00    3.20
   2  -3  12    2.40    5.30
  -2   3 -12   -0.60    3.20
   2   3  12   -0.90    3.00
   2   3  12    1.50    3.20
  -2   3 -12    4.50    2.80
  -2   3 -12    0.10    2.50
   2   3  12    0.20    2.40
   3  -3  12  204.38   12.90
   3  -3  12  183.28    8.70
  -3  -3 -12  194.68   11.40
  -3  -3 -12  186.58   12.00
   3   3  12  193.08   10.90
  -3   3 -12  196.38   11.00
   3   3  12  198.68    9.30
  -4  -3 -12   44.30    8.90
   4  -3  12   40.00    9.50
  -4  -3 -12   50.29    9.10
   3  -4 -12   25.10    3.40
   3  -4 -12   23.60    4.70
  -3  -4  12   12.70    4.10
   3   4 -12   24.10    4.00
  -3   4  12   17.40    4.60
   2  -4 -12  185.28   10.50
   2  -4 -12  194.38    8.80
   2  -4 -12  197.78    7.10
   2   4 -12  181.38   11.30
   2   4 -12  202.48    8.80
  -2   4  12  192.68   10.80
  -2   4  12  193.28    8.50
   1  -4 -12   39.40    2.60
   1  -4 -12   29.10    4.40
   1  -4 -12   46.90    3.70
  -1   4  12   38.20    3.50
  -1   4  12   36.50    2.80
  -1   4  12   37.10    5.30
   1   4 -12   43.10    2.80
   1   4 -12   45.60    6.40
   0  -4  12   16.00    2.50
   0  -4  12   18.70    3.20
   0  -4 -12   25.00    2.90
   0  -4 -12   16.90    2.60
   0  -4  12   10.30    4.00
   0  -4 -12   24.40    3.20
   0   4 -12   20.30    1.90
   0   4 -12   17.70    3.50
   0   4 -12   15.60    1.60
   0   4 -12   14.00    1.70
   1  -4  12  245.58   10.00
   1  -4  12  231.38   10.10
  -1  -4 -12  211.08    8.80
  -1  -4 -12  226.38    9.30
   1  -4  12  225.78    8.60
   1   4  12  227.48    9.20
  -1   4 -12  233.68    8.80
  -1   4 -12  233.88    9.60
  -1   4 -12  229.48    9.00
   1   4  12  235.58    8.70
  -1   4 -12  231.28    8.70
  -2  -4 -12    7.90    3.90
   2  -4  12    5.50    2.70
  -2  -4 -12    1.70    4.80
   2  -4  12   11.60    5.50
  -2   4 -12    0.60    3.60
   2   4  12    3.70    2.90
   2   4  12   -0.90    3.70
   2   4  12    9.10    3.60
   3  -4  12   56.19    8.70
  -3  -4 -12   53.69    7.70
   3  -4  12   49.99    6.00
  -3  -4 -12   44.80    8.00
  -3   4 -12   57.59    7.90
   3   4  12   46.50    7.00
   3  -5 -12    4.60    5.40
  -3   5  12    8.40    4.50
   3   5 -12    4.90    4.40
   2  -5 -12    9.70    1.70
   2  -5 -12    5.30    3.70
  -2   5  12   16.60    6.60
  -2   5  12   13.80    3.40
   2   5 -12    8.70    2.80
   1  -5 -12  248.78   10.10
   1  -5 -12  228.88    9.10
  -1   5  12  264.97   12.20
   1   5 -12  239.58   12.60
   1   5 -12  253.67    9.40
  -1   5  12  254.67    9.70
   0  -5 -12   47.10    4.00
   0  -5  12   40.00    3.30
   0  -5  12   50.69    4.70
   0   5  12   48.80    2.90
   0   5  12   52.39    6.00
   0   5 -12   47.10    2.90
   0   5  12   48.30    3.80
   0   5 -12   44.20    5.20
   1  -5  12   -6.20    4.30
   1  -5  12   -0.20    4.60
  -1  -5 -12    1.50    4.90
  -1  -5 -12   -1.40    2.90
   1  -5  12   -2.80    3.40
  -1   5 -12   -0.10    2.70
  -1   5 -12    1.60    2.50
  -1   5 -12    2.30    2.30
   1   5  12   -0.60    2.80
  -1   5 -12    0.00    2.10
   1   5  12    2.80    2.20
   1   5  12   -2.60    3.10
  -2  -5 -12   77.79    8.80
  -2  -5 -12   67.19    7.40
   2  -5  12   69.69    4.90
   2  -5  12   70.39    9.70
  -2   5 -12   77.99    6.00
   2   5  12   75.59    7.20
   2   5  12   58.39    5.80
  -2   5 -12   66.89    6.90
   3  -5  12   23.50    9.60
  -3  -5 -12   30.40   10.50
  -3   5 -12   33.00    6.50
   3   5  12   27.00    7.40
   2  -6 -12   -7.60    6.10
   2  -6 -12    4.60    4.50
  -2   6  12    0.70    3.60
   2   6 -12    1.00    3.40
   1  -6 -12   62.19    5.70
   1  -6 -12   77.69    8.80
   1   6 -12   40.50    7.60
  -1   6  12   61.09    9.10
  -1   6  12   48.80    4.60
   1   6 -12   47.20    3.40
   0  -6 -12  169.08    8.30
   0  -6 -12  163.98   11.30
   0   6 -12  179.68   10.40
   0   6  12  192.18   10.50
   0   6  12  182.08    8.20
   0   6 -12  183.08    6.90
   0   6  12  183.18    6.70
  -1  -6 -12   29.10    4.50
  -1  -6 -12   30.10    7.90
   1   6  12   25.50    3.70
  -1   6 -12   30.90    4.10
   1   6  12   32.30    4.40
  -1   6 -12   24.70    3.80
  -2  -6 -12  -10.60    8.20
   2   6  12   -1.90    5.70
  -2   6 -12   -0.80    4.60
   1  -7 -12    9.90    9.20
  -1   7  12    6.20    3.80
   0  -7 -12   11.20    9.40
   0   7  12   11.90    3.90
   4   0 -13   66.39    6.60
  -3   0  13  145.79    7.10
   3   0 -13  131.09    8.30
   3   0 -13  130.79    6.60
   3   0 -13  137.19    6.60
   3   0 -13  131.19    9.00
  -2   0  13    4.00    2.80
   2   0 -13    3.60    2.40
   2   0 -13    2.20    1.70
   2   0 -13    0.90    1.40
  -2   0  13    0.70    1.70
  -1   0  13  196.68    7.50
  -1   0  13  190.98    7.50
   1   0 -13  192.08    7.20
  -1   0  13  195.38    7.10
   1   0 -13  195.58    7.10
   1   0 -13  201.88    7.40
   0   0 -13   60.49    2.90
   1   0  13  334.57   12.40
  -1   0 -13  329.67   12.00
   1   0  13  346.57   11.90
   1   0  13  346.57   12.20
  -1   0 -13  341.17   12.40
  -1   0 -13  327.37   12.10
   2   0  13   -0.60    2.60
  -2   0 -13   -1.30    2.10
  -2   0 -13   -0.80    2.30
  -2   0 -13   -0.90    2.80
   2   0  13    1.80    2.30
   2   0  13   -3.90    2.90
  -2   0 -13    0.40    2.00
   3   0  13   12.40    5.00
   3   0  13   15.70    4.50
  -3   0 -13   12.70    4.60
  -3   0 -13   15.50    3.90
  -3   0 -13   14.60    3.90
  -4   0 -13   -3.50    6.90
  -4   0 -13    1.20    5.00
   4   0  13    5.10    7.20
   4  -1 -13  105.89   10.90
   4  -1 -13  123.79    7.50
  -4  -1  13  115.99    8.60
   4  -1 -13  120.79    8.00
  -4   1  13  119.99    8.80
   4   1 -13  117.09    7.30
   4   1 -13  111.49    7.70
   3  -1 -13   45.10    6.80
  -3  -1  13   35.90    5.60
   3  -1 -13   44.00    4.60
   3  -1 -13   56.09    6.50
  -3  -1  13   55.69    4.70
   3   1 -13   47.40    4.00
  -3   1  13   48.60    5.20
   3   1 -13   49.20    4.50
   3   1 -13   51.79    7.70
   3   1 -13   45.40    5.80
   2  -1 -13    9.10    2.80
  -2  -1  13    0.80    2.80
   2  -1 -13    8.00    1.70
   2  -1 -13    6.90    1.80
  -2  -1  13    5.90    1.70
  -2   1  13   10.50    3.20
   2   1 -13    5.50    1.50
   2   1 -13    8.50    2.40
  -2   1  13    9.10    2.00
   2   1 -13    7.90    1.90
  -1  -1  13   40.50    2.80
   1  -1 -13   44.60    2.30
   1  -1 -13   35.90    2.40
   1  -1 -13   34.00    2.80
  -1  -1  13   38.10    3.20
  -1  -1  13   37.60    2.20
  -1   1  13   32.90    3.00
   1   1 -13   37.20    2.30
   1   1 -13   40.40    2.20
  -1   1  13   38.00    3.30
  -1   1  13   42.50    2.50
   1   1 -13   34.90    2.50
   0  -1  13  192.68    7.30
   0  -1  13  198.18    7.10
   0  -1 -13  186.28    7.10
   0  -1 -13  193.58    7.00
   0  -1  13  191.28    7.10
   0  -1 -13  191.88    7.00
   0   1  13  187.98    7.10
   0   1 -13  190.28    6.90
   0   1 -13  187.58    6.90
   0   1 -13  184.38    7.10
   1  -1  13  933.41   31.40
   1  -1  13  941.31   31.10
  -1  -1 -13  927.81   31.30
  -1  -1 -13  916.81   31.60
   1  -1  13  914.71   31.70
  -1  -1 -13  903.61   31.50
  -1   1 -13  918.21   31.20
   1   1  13  913.81   31.60
   1   1  13  955.50   31.20
  -1   1 -13  927.01   31.30
  -1   1 -13  932.41   31.70
   1   1  13  944.71   31.40
   2  -1  13    5.90    3.10
  -2  -1 -13    3.80    2.50
   2  -1  13    2.90    2.30
   2  -1  13    8.60    3.60
  -2  -1 -13    4.00    2.10
  -2  -1 -13   -0.90    2.60
  -2  -1 -13    0.60    2.70
   2   1  13    8.70    3.10
  -2   1 -13    0.70    2.20
  -2   1 -13    3.70    2.00
  -2   1 -13    1.70    2.80
   2   1  13    3.00    2.60
   2   1  13    1.10    2.50
  -2   1 -13   10.90    2.50
  -3  -1 -13   45.20    8.60
   3  -1  13   54.99    7.30
   3   1  13   44.70    6.10
  -3   1 -13   41.20    5.70
  -3   1 -13   54.59    5.30
  -3   1 -13   52.19    6.70
   3   1  13   47.80    6.90
   4  -1  13   14.50    7.60
  -4  -1 -13    0.30    7.40
  -4  -1 -13    4.50    5.80
   4   1  13    6.50    6.80
  -4   1 -13    1.60    4.90
  -4   1 -13   -4.40    6.50
   4  -2 -13   24.30    4.60
   4  -2 -13   39.80    5.50
  -4   2  13   26.40    5.80
   4   2 -13   28.50    3.90
   4   2 -13   26.10    5.00
  -3  -2  13   94.79    8.20
  -3  -2  13  103.49    5.70
   3  -2 -13  105.59    5.50
   3  -2 -13  108.69    6.40
   3  -2 -13   94.69    8.50
   3   2 -13  100.19    5.50
   3   2 -13   99.09    5.90
  -3   2  13   92.49   12.50
   3   2 -13  107.39    6.80
  -2  -2  13  683.53   23.20
   2  -2 -13  682.93   24.60
   2  -2 -13  716.13   23.40
  -2  -2  13  671.33   23.90
   2  -2 -13  694.53   23.90
  -2   2  13  688.73   23.80
  -2   2  13  670.03   24.70
   2   2 -13  684.63   25.20
   2   2 -13  691.93   23.10
   2   2 -13  675.23   23.80
   2   2 -13  699.53   23.70
  -1  -2  13    2.00    1.60
   1  -2 -13    2.10    1.40
  -1  -2  13    0.00    1.10
   1  -2 -13   -0.60    1.10
   1  -2 -13    0.30    1.80
  -1  -2  13   -0.50    2.20
   1   2 -13   -0.40    1.10
   1   2 -13    0.90    1.00
  -1   2  13   -0.90    1.20
  -1   2  13    0.80    2.10
   1   2 -13    2.20    1.20
   0  -2 -13  211.38    7.80
   0  -2  13  212.78    7.90
   0  -2  13  220.68    7.70
   0  -2  13  200.98    8.20
   0  -2 -13  211.98    7.90
   0  -2 -13  206.78    7.90
   0   2  13  217.88    8.20
   0   2 -13  214.18    7.50
   0   2 -13  215.08    7.70
   0   2 -13  208.98    7.90
   0   2  13  211.08    7.90
  -1  -2 -13   58.19    4.00
  -1  -2 -13   62.29    3.50
   1  -2  13   65.69    4.20
  -1  -2 -13   63.99    3.90
   1  -2  13   58.89    4.70
   1  -2  13   62.89    3.30
   1   2  13   57.29    3.60
  -1   2 -13   61.29    3.40
   1   2  13   60.29    3.80
   1   2  13   60.29    3.40
  -1   2 -13   65.39    4.20
  -1   2 -13   64.49    3.40
  -2  -2 -13  171.18    7.60
   2  -2  13  187.78    7.40
  -2  -2 -13  181.28    8.70
   2  -2  13  183.08    9.30
   2  -2  13  164.68    8.70
  -2  -2 -13  187.28    8.60
   2   2  13  187.58    7.90
  -2   2 -13  178.68    8.00
  -2   2 -13  174.78    7.10
   2   2  13  176.98    7.90
  -2   2 -13  191.58    8.70
   2   2  13  184.38    8.50
  -2   2 -13  175.98    7.80
  -3  -2 -13   12.10    4.80
  -3  -2 -13   24.00    5.20
   3  -2  13   14.80    6.20
  -3   2 -13   15.50    4.30
   3   2  13   17.80    4.20
  -3   2 -13   19.80    5.20
  -3   2 -13   22.50    3.00
   3   2  13   19.30    5.20
  -4  -2 -13    2.00    6.60
   4  -2  13   10.00    8.10
  -4  -2 -13   -2.30    7.50
   4   2  13   -1.70    6.70
  -4   2 -13    0.20    7.00
   4  -3 -13    5.30    5.10
   4  -3 -13   -1.40    4.10
   4   3 -13    4.60    3.20
  -4   3  13    9.70    6.20
   4   3 -13   -2.00    4.80
  -3  -3  13  118.39    5.90
   3  -3 -13  116.99    7.50
  -3  -3  13  125.59    8.50
   3  -3 -13  127.39    5.90
   3   3 -13  117.99    5.10
   3   3 -13  112.59    6.70
  -3   3  13  125.79    7.30
   3   3 -13  105.99    6.20
   2  -3 -13   27.40    4.40
   2  -3 -13   24.80    2.40
   2  -3 -13   23.30    3.60
  -2  -3  13   24.50    2.20
  -2  -3  13   25.80    3.70
  -2   3  13   32.10    4.80
  -2   3  13   26.80    3.20
   2   3 -13   24.20    3.00
   2   3 -13   25.60    5.00
   2   3 -13   26.40    2.50
   2   3 -13   23.80    1.60
  -1  -3  13   98.89    4.00
   1  -3 -13   98.59    5.30
   1  -3 -13   95.19    4.60
   1  -3 -13   97.69    4.00
   1   3 -13   96.19    4.20
   1   3 -13   94.99    6.70
  -1   3  13   92.79    4.50
  -1   3  13   95.39    5.70
  -1   3  13   96.09    4.30
   0  -3 -13   29.40    2.60
   0  -3 -13   28.50    2.60
   0  -3  13   28.70    2.50
   0  -3 -13   25.90    2.80
   0  -3  13   24.40    3.00
   0  -3  13   24.90    3.30
   0   3 -13   30.70    2.80
   0   3 -13   31.90    2.20
   0   3  13   29.10    3.30
   0   3  13   32.80    2.60
   0   3 -13   28.00    1.70
  -1  -3 -13  157.48    7.60
   1  -3  13  161.28    7.20
  -1  -3 -13  145.69    6.30
   1  -3  13  156.28    7.70
  -1  -3 -13  159.28    6.80
   1  -3  13  157.08    6.20
  -1  -3 -13  137.99    7.00
   1   3  13  156.78    6.20
  -1   3 -13  153.98    6.30
  -1   3 -13  152.78    6.30
  -1   3 -13  159.18    7.20
   1   3  13  157.18    6.50
   1   3  13  152.48    6.70
  -2  -3 -13   32.10    5.00
   2  -3  13   30.00    3.50
   2  -3  13   31.40    5.50
  -2  -3 -13   33.90    4.90
   2   3  13   29.60    4.20
   2   3  13   34.50    4.00
  -2   3 -13   31.70    4.30
  -2   3 -13   27.20    4.30
  -2   3 -13   28.50    3.90
   2   3  13   32.70    4.00
  -3  -3 -13   14.00    6.10
   3  -3  13   20.90    6.60
  -3  -3 -13   15.20    5.90
   3   3  13   19.30    5.50
   3   3  13   15.10    4.20
  -3   3 -13    9.60    5.10
  -3   3 -13   17.00    4.70
  -3  -4  13   13.10    4.40
   3  -4 -13   15.40    2.90
   3  -4 -13   18.80    4.80
  -3   4  13   15.10    4.50
   3   4 -13   26.10    4.40
   2  -4 -13   33.00    2.70
   2  -4 -13   24.90    4.40
   2   4 -13   22.80    6.30
  -2   4  13   25.60    5.80
   2   4 -13   28.70    4.10
  -2   4  13   38.20    4.20
   1  -4 -13    0.40    2.10
   1  -4 -13   -0.70    3.00
   1  -4 -13    0.20    1.60
   1   4 -13   -0.90    4.20
  -1   4  13    1.70    3.50
   1   4 -13    0.70    1.70
  -1   4  13    2.20    2.30
  -1   4  13    2.50    2.00
   0  -4 -13    5.00    2.50
   0  -4  13    3.00    1.80
   0  -4 -13    2.80    2.00
   0  -4  13    8.00    3.30
   0  -4 -13    4.40    2.30
   0   4 -13    5.80    1.70
   0   4 -13    0.40    3.40
   0   4  13    5.00    2.90
   0   4 -13    5.40    1.40
   0   4 -13    4.40    0.90
   0   4  13    2.80    1.90
   1  -4  13    4.90    2.40
  -1  -4 -13    5.70    3.80
  -1  -4 -13    7.20    2.30
   1  -4  13   12.30    4.10
   1  -4  13    7.70    3.70
  -1  -4 -13    5.30    2.60
  -1   4 -13    7.30    2.20
   1   4  13    5.60    2.60
   1   4  13    7.20    2.60
  -1   4 -13    2.90    2.80
  -1   4 -13    4.40    1.90
  -1   4 -13    6.90    2.60
   1   4  13    6.10    2.20
  -2  -4 -13   61.69    8.20
   2  -4  13   76.49    4.70
  -2  -4 -13   69.59    6.40
   2  -4  13   72.99    8.70
   2   4  13   72.49    5.40
   2   4  13   76.39    6.60
  -2   4 -13   71.49    6.60
   2   4  13   69.29    5.50
  -3  -4 -13   19.60    7.40
  -3  -4 -13   28.20    7.50
   3  -4  13   35.60    8.20
  -3   4 -13   35.70    5.60
  -3   4 -13   38.50    6.40
   3  -5 -13   53.19    8.10
  -3   5  13   64.59    7.50
   3   5 -13   55.99    6.30
   2  -5 -13   38.50    5.40
   2  -5 -13   46.20    3.00
  -2   5  13   44.80    4.90
  -2   5  13   42.60    7.40
   2   5 -13   39.20    4.50
   1  -5 -13   37.40    4.30
   1  -5 -13   35.20    3.40
  -1   5  13   36.10    5.80
   1   5 -13   34.90    6.10
   1   5 -13   34.00    3.10
  -1   5  13   30.90    3.80
   0  -5  13  160.38    7.70
   0  -5 -13  175.88    9.30
   0  -5  13  157.68    6.40
   0  -5 -13  159.28    7.30
   0   5  13  158.48    6.30
   0   5  13  165.58    8.70
   0   5  13  163.98    7.20
   0   5 -13  155.28    6.30
   0   5 -13  162.08    9.30
   1  -5  13   64.69    7.10
   1  -5  13   90.89    7.60
  -1  -5 -13   89.29    9.10
   1  -5  13   90.59    5.60
  -1  -5 -13   86.29    5.90
   1   5  13   89.59    4.70
  -1   5 -13   84.09    5.30
  -1   5 -13   93.89    5.00
  -1   5 -13  101.89    4.70
   1   5  13   89.99    6.40
   1   5  13   91.49    5.90
  -2  -5 -13   26.50    7.40
   2  -5  13   15.50    3.60
  -2  -5 -13   18.00    5.50
   2  -5  13   15.10    7.20
   2   5  13   18.90    5.30
   2   5  13   21.20    4.40
   2   5  13   16.90    4.10
  -2   5 -13   25.30    4.90
   3  -5  13   24.30   12.40
  -3   5 -13    5.50    6.80
   3   5  13   -4.90    7.20
   2  -6 -13    1.80    4.80
   2  -6 -13   -6.10    7.90
  -2   6  13   -4.30    3.60
   2   6 -13    3.40    3.80
   1  -6 -13   57.89    8.70
   1  -6 -13   40.70    5.60
  -1   6  13   44.90    7.20
  -1   6  13   45.40    4.80
   1   6 -13   41.90    3.50
   0  -6 -13   31.70    4.90
   0  -6 -13   28.60    6.70
   0   6  13   55.09    7.60
   0   6 -13   33.70    5.80
   0   6  13   33.50    4.90
   0   6 -13   29.30    3.00
  -1  -6 -13   15.90    4.60
  -1  -6 -13    6.90    7.70
  -1   6 -13    4.80    3.20
   1   6  13   10.20    4.00
  -1   6 -13    2.00    2.80
  -2  -6 -13    6.80    9.30
   2   6  13   -2.20    5.70
  -2   6 -13    8.60    4.90
   0  -7 -13   59.69   10.20
   0   7  13   48.90    5.90
   4   0 -14 1538.55   54.59
  -4   0  14 1589.14   53.29
   4   0 -14 1513.45   53.09
   4   0 -14 1568.04   53.19
   3   0 -14    3.20    4.30
   3   0 -14   -4.20    2.40
   3   0 -14    3.90    2.60
  -3   0  14   -0.30    3.20
   3   0 -14    0.10    4.60
   2   0 -14    5.80    1.80
   2   0 -14    3.40    2.50
   2   0 -14    6.00    1.60
  -2   0  14    5.20    3.00
  -2   0  14    5.10    1.90
   1   0 -14    1.20    1.10
   1   0 -14    2.60    1.50
   1   0 -14   -0.50    1.10
  -1   0  14    0.50    1.80
  -1   0  14    1.80    1.80
  -1   0  14    1.60    1.20
   0   0  14   25.30    2.10
   0   0 -14   25.40    2.00
   0   0 -14   24.10    1.90
   0   0  14   25.50    2.30
   0   0  14   22.80    2.10
   0   0 -14   23.00    2.10
   1   0  14    2.00    1.90
   1   0  14    1.20    1.80
  -1   0 -14    1.20    1.60
   1   0  14    2.20    1.60
  -1   0 -14    2.50    1.80
  -1   0 -14    1.60    1.70
  -2   0 -14  190.98    8.70
   2   0  14  183.88    8.20
  -2   0 -14  184.08    7.90
  -2   0 -14  186.58    7.80
  -2   0 -14  166.58    7.90
   2   0  14  189.48    7.60
   2   0  14  178.78    8.80
  -3   0 -14    4.50    4.40
   3   0  14    3.90    5.00
   3   0  14    2.40    4.40
  -3   0 -14    0.40    3.60
   4   0  14   27.10    8.10
  -4   0 -14   41.80    8.20
  -4   0 -14   21.00    5.70
  -4  -1  14  276.47   12.40
   4  -1 -14  255.07   14.80
   4  -1 -14  276.97   12.30
   4  -1 -14  270.27   11.90
   4   1 -14  260.67   11.50
   4   1 -14  250.27   11.90
  -4   1  14  289.57   12.80
   3  -1 -14  517.35   18.70
   3  -1 -14  503.55   19.00
  -3  -1  14  516.15   18.40
   3  -1 -14  519.05   20.20
   3   1 -14  511.05   18.20
   3   1 -14  502.05   19.30
   3   1 -14  498.35   18.60
  -3   1  14  532.75   18.90
   2  -1 -14  192.48    7.30
   2  -1 -14  186.68    7.50
  -2  -1  14  188.38    7.20
  -2  -1  14  184.68    8.20
   2  -1 -14  188.08    8.50
  -2   1  14  187.78    7.60
   2   1 -14  191.88    8.10
  -2   1  14  186.08    8.70
   2   1 -14  193.08    7.20
   2   1 -14  187.48    7.50
   1  -1 -14  620.74   21.00
  -1  -1  14  605.84   21.40
  -1  -1  14  615.94   20.90
  -1  -1  14  628.24   21.20
   1  -1 -14  610.64   21.20
   1  -1 -14  646.94   21.50
   1   1 -14  626.44   21.00
   1   1 -14  619.34   21.10
  -1   1  14  620.24   21.20
  -1   1  14  628.24   21.50
  -1   1  14  613.84   21.10
   1   1 -14  605.74   21.00
   0  -1 -14    2.80    1.30
   0  -1  14    4.50    1.50
   0  -1  14    3.90    1.40
   0  -1 -14    2.80    1.20
   0  -1  14    1.30    1.40
   0   1 -14    2.90    1.30
   0   1  14    1.60    1.30
   0   1  14    2.00    1.50
   0   1 -14    3.00    1.10
   0   1  14    2.30    1.40
   0   1 -14    2.00    1.00
  -1  -1 -14 1563.54   52.09
   1  -1  14 1590.64   52.19
  -1  -1 -14 1509.95   52.29
   1  -1  14 1586.74   51.89
  -1  -1 -14 1541.95   52.39
   1  -1  14 1586.84   52.59
  -1   1 -14 1572.24   52.59
   1   1  14 1547.35   52.49
  -1   1 -14 1537.95   51.99
   1   1  14 1589.64   52.19
   1   1  14 1575.84   51.99
  -1   1 -14 1548.15   52.19
   2  -1  14  307.57   12.00
   2  -1  14  305.27   12.60
  -2  -1 -14  270.17   11.70
  -2  -1 -14  304.07   12.10
  -2  -1 -14  286.17   11.20
   2  -1  14  303.37   11.10
  -2  -1 -14  289.87   11.80
   2   1  14  309.27   11.30
  -2   1 -14  302.27   12.40
  -2   1 -14  288.67   11.20
  -2   1 -14  296.57   11.40
  -2   1 -14  282.87   11.50
   2   1  14  298.17   11.50
   2   1  14  302.97   12.20
  -3  -1 -14   19.80    4.40
   3  -1  14   12.90    5.40
  -3  -1 -14    9.00    4.90
  -3   1 -14   21.70    4.80
  -3   1 -14   10.20    4.00
   3   1  14    9.80    4.10
  -3   1 -14    8.10    3.50
   3   1  14   14.30    5.20
   4  -1  14   19.70    7.90
  -4  -1 -14    4.00    7.70
  -4   1 -14   -1.30    5.00
  -4   1 -14    0.40    6.90
   4   1  14    4.40    7.20
   4  -2 -14   53.89    6.90
   4  -2 -14   48.40    6.00
  -4   2  14   50.79    7.90
   4   2 -14   45.50    5.40
   4   2 -14   51.89    5.80
  -3  -2  14   50.39    7.60
   3  -2 -14   54.09    4.60
   3  -2 -14   68.19    8.00
   3  -2 -14   50.29    5.20
  -3  -2  14   59.19    4.60
  -3   2  14   54.99    6.80
   3   2 -14   56.69    5.80
   3   2 -14   52.69    4.80
   2  -2 -14 1406.66   47.00
   2  -2 -14 1448.96   46.50
   2  -2 -14 1379.56   47.60
  -2  -2  14 1367.26   46.90
  -2  -2  14 1293.57   46.80
  -2   2  14 1424.56   46.90
   2   2 -14 1420.66   46.20
   2   2 -14 1377.16   48.30
   2   2 -14 1406.96   46.80
   2   2 -14 1397.56   46.80
  -2   2  14 1385.46   47.70
  -1  -2  14  150.28    5.90
  -1  -2  14  132.09    6.50
  -1  -2  14  155.08    5.60
   1  -2 -14  150.98    6.50
   1  -2 -14  147.39    6.00
   1  -2 -14  150.18    5.60
  -1   2  14  150.68    6.00
  -1   2  14  146.39    6.00
  -1   2  14  153.08    6.80
   1   2 -14  148.39    5.70
   1   2 -14  147.49    5.50
   1   2 -14  144.49    5.80
   0  -2  14  213.68    7.90
   0  -2  14  207.18    8.00
   0  -2 -14  213.88    8.00
   0  -2 -14  206.38    8.00
   0  -2  14  217.58    7.80
   0  -2 -14  214.88    7.80
   0   2 -14  215.58    7.60
   0   2  14  219.88    7.80
   0   2 -14  210.98    8.00
   0   2  14  209.38    8.20
   0   2 -14  207.68    7.70
   0   2  14  210.38    8.00
  -1  -2 -14  315.87   12.20
   1  -2  14  324.57   11.60
   1  -2  14  343.87   12.10
   1  -2  14  333.77   12.60
  -1  -2 -14  320.07   12.10
  -1  -2 -14  324.07   11.70
  -1   2 -14  319.27   11.70
  -1   2 -14  329.67   11.80
   1   2  14  308.87   12.10
   1   2  14  333.07   11.60
   1   2  14  322.07   11.90
  -1   2 -14  327.07   12.40
   2  -2  14  764.12   25.40
  -2  -2 -14  761.92   26.50
   2  -2  14  760.02   27.00
  -2  -2 -14  740.73   26.90
  -2  -2 -14  693.63   25.60
  -2   2 -14  703.43   25.90
   2   2  14  761.62   25.70
   2   2  14  766.42   25.90
  -2   2 -14  750.82   25.90
  -2   2 -14  708.53   25.30
  -3  -2 -14    3.40    6.40
  -3  -2 -14   -6.50    4.70
   3   2  14    4.50    5.10
  -3   2 -14    8.80    3.00
   3   2  14    3.20    4.20
  -3   2 -14    7.60    4.90
  -3   2 -14   14.50    4.30
  -4  -2 -14    9.50    7.90
   4  -2  14    1.20    8.60
  -4  -2 -14    7.60    6.50
  -4   2 -14    7.90    7.60
   4  -3 -14   13.70    5.40
   4  -3 -14    0.40    4.10
   4   3 -14    5.30    3.20
  -4   3  14   20.70    6.40
   4   3 -14    5.90    4.80
  -3  -3  14   39.60    4.00
   3  -3 -14   52.39    4.20
   3  -3 -14   46.70    5.70
  -3  -3  14   51.79    6.20
   3   3 -14   46.00    3.20
   3   3 -14   44.00    5.10
   3   3 -14   42.50    4.60
  -3   3  14   50.49    5.60
   2  -3 -14  128.59    7.80
   2  -3 -14  133.19    5.20
  -2  -3  14  119.69    6.60
   2  -3 -14  123.39    6.20
  -2  -3  14  104.89    5.20
  -2   3  14  127.09    8.00
   2   3 -14  125.19    4.50
  -2   3  14  109.49    8.30
   2   3 -14  126.39    6.30
   2   3 -14  119.99    8.80
   2   3 -14  111.59    5.80
  -1  -3  14    6.60    1.80
  -1  -3  14    3.30    1.60
   1  -3 -14    4.80    1.80
   1  -3 -14    2.00    2.50
   1  -3 -14    3.40    1.50
   1   3 -14    1.10    1.30
  -1   3  14    2.80    2.20
  -1   3  14    0.90    3.00
  -1   3  14    5.90    1.80
   1   3 -14    2.20    3.50
   1   3 -14    3.30    1.50
   0  -3 -14  209.58    8.30
   0  -3  14  224.38    8.00
   0  -3  14  211.78    8.40
   0  -3 -14  209.98    8.40
   0  -3 -14  209.68    8.20
   0  -3  14  221.98    8.60
   0   3 -14  214.48    7.60
   0   3 -14  214.08    7.90
   0   3  14  214.48    8.60
   0   3 -14  218.08    8.30
   0   3  14  214.08    8.20
   0   3  14  220.68    7.90
   1  -3  14   56.59    5.40
  -1  -3 -14   55.29    4.20
   1  -3  14   57.99    4.70
  -1  -3 -14   55.39    3.60
  -1  -3 -14   60.79    5.00
  -1  -3 -14   53.49    4.50
   1  -3  14   60.79    3.60
  -1   3 -14   56.29    4.50
  -1   3 -14   57.09    3.50
  -1   3 -14   59.09    3.50
   1   3  14   54.69    4.00
   1   3  14   56.89    3.50
   1   3  14   57.69    4.00
  -2  -3 -14   -0.60    4.00
   2  -3  14   -4.30    2.60
   2  -3  14    2.30    4.90
  -2  -3 -14    5.00    3.50
  -2   3 -14    1.30    1.60
  -2   3 -14    1.80    3.50
  -2   3 -14   -2.80    2.70
   2   3  14   -1.90    3.10
   2   3  14   -4.50    3.30
  -2   3 -14   -0.70    2.80
   2   3  14    3.10    2.80
  -3  -3 -14  347.17   20.10
  -3  -3 -14  400.86   18.00
   3  -3  14  384.56   17.70
  -3   3 -14  388.06   15.80
   3   3  14  387.86   15.30
  -3   3 -14  393.16   16.90
   3   3  14  365.16   16.70
   3  -4 -14  182.08    7.60
   3  -4 -14  188.78    9.70
  -3  -4  14  151.18    8.80
   3   4 -14  168.48    8.80
  -3   4  14  179.38    9.30
   2  -4 -14  189.68    8.90
   2  -4 -14  194.28    7.30
  -2   4  14  208.48    8.60
   2   4 -14  183.68    8.00
  -2   4  14  171.18   10.90
   1  -4 -14    4.60    2.20
   1  -4 -14   -1.50    3.00
   1  -4 -14    5.70    1.80
   1   4 -14    3.00    4.50
   1   4 -14    5.00    1.80
  -1   4  14    3.90    2.20
  -1   4  14    4.20    3.80
  -1   4  14   -0.10    2.00
   0  -4 -14  276.57   10.90
   0  -4 -14  277.47   10.80
   0  -4  14  294.67   10.30
   0  -4  14  289.57   11.20
   0   4 -14  292.07    9.80
   0   4 -14  289.67   10.30
   0   4 -14  282.17   12.00
   0   4  14  255.67   11.50
   0   4  14  297.07   11.40
   0   4  14  292.27   10.20
   0   4 -14  293.67   10.40
   1  -4  14   39.90    4.40
   1  -4  14   36.60    3.70
  -1  -4 -14   38.50    5.00
   1  -4  14   38.20    5.10
  -1  -4 -14   40.90    4.20
   1   4  14   36.00    3.30
  -1   4 -14   35.90    3.20
  -1   4 -14   36.10    4.40
   1   4  14   39.40    4.10
  -1   4 -14   42.10    4.60
  -1   4 -14   37.70    3.40
   1   4  14   40.40    4.30
  -2  -4 -14   36.00    5.00
   2  -4  14   37.70    4.20
   2  -4  14   47.20    7.00
  -2  -4 -14   33.50    6.30
  -2   4 -14   35.40    4.90
   2   4  14   38.70    5.10
  -2   4 -14   36.90    4.50
  -2   4 -14   29.90    5.00
   2   4  14   35.20    5.10
   2   4  14   42.10    4.80
  -3  -4 -14    4.10    7.20
   3  -4  14    1.80    8.10
  -3  -4 -14   -5.40    7.00
  -3   4 -14    3.80    5.60
   3   4  14   -2.30    5.90
   3  -5 -14  113.39    9.00
   3   5 -14   95.49    7.40
  -3   5  14  102.19    8.30
   2  -5 -14  159.28    8.10
   2  -5 -14  141.39    5.90
  -2   5  14  147.79   11.60
   2   5 -14  137.09    7.00
  -2   5  14  147.79    7.70
   1  -5 -14    3.40    2.40
   1  -5 -14    5.70    2.80
  -1   5  14    3.10    5.20
  -1   5  14    4.00    2.60
   1   5 -14    5.70    5.40
   1   5 -14    6.40    2.20
   0  -5 -14    0.60    2.70
   0  -5  14    2.90    2.20
   0  -5  14    3.60    3.90
   0  -5 -14    2.90    4.50
   0   5 -14    3.50    4.60
   0   5  14    2.80    2.60
   0   5 -14   -0.70    1.80
   0   5  14    6.60    4.20
   0   5  14   -1.50    2.10
  -1  -5 -14   71.09    8.90
  -1  -5 -14   66.39    5.60
   1  -5  14   68.29    5.60
   1  -5  14   70.39    7.40
   1   5  14   66.79    5.90
   1   5  14   68.99    4.60
  -1   5 -14   61.39    5.10
  -1   5 -14   56.49    5.20
   1   5  14   59.29    5.50
  -1   5 -14   63.19    4.50
  -1   5 -14   65.29    4.00
  -2  -5 -14   61.59    8.10
   2  -5  14   68.79    8.70
  -2  -5 -14   63.99    9.00
   2  -5  14   64.39    5.90
  -2   5 -14   72.19    7.40
   2   5  14   63.39    8.00
   2  -6 -14    5.80    5.00
   2  -6 -14    6.60    6.80
   2   6 -14    3.50    3.60
  -2   6  14   -1.10    3.80
   1  -6 -14  276.37   13.80
   1  -6 -14  266.77   12.50
  -1   6  14  251.77   10.70
  -1   6  14  268.67   13.70
   1   6 -14  246.48    9.90
   0  -6 -14   46.40    7.10
   0  -6 -14   37.00    4.50
   0   6  14   26.40    6.70
   0   6 -14   32.10    3.30
   0   6  14   30.60    4.10
   0   6 -14   31.00    6.30
  -1  -6 -14  279.67   16.70
  -1  -6 -14  295.17   12.80
  -1   6 -14  284.67   11.30
   1   6  14  278.17   12.50
  -1   6 -14  304.57   11.20
  -2  -6 -14   11.60   10.70
   2   6  14   -1.10    6.20
  -2   6 -14    8.60    5.40
  -4   0  15   11.90    5.40
   4   0 -15   12.00    4.10
   4   0 -15   16.90    4.40
   4   0 -15   -0.70    8.30
   3   0 -15  643.14   23.30
  -3   0  15  669.93   23.40
   3   0 -15  668.53   23.40
   3   0 -15  666.43   24.60
  -2   0  15    0.50    1.80
   2   0 -15    2.40    1.50
   2   0 -15    0.20    2.50
  -2   0  15    2.70    3.00
   2   0 -15    0.80    1.60
  -1   0  15  307.77   11.10
   1   0 -15  302.77   11.00
   1   0 -15  303.07   10.70
   1   0 -15  295.27   10.60
  -1   0  15  303.07   10.70
  -1   0  15  295.87   11.00
   0   0  15    2.40    1.50
   0   0 -15    3.00    1.20
   0   0 -15    1.00    1.20
   0   0 -15    4.40    1.40
   0   0  15    2.00    1.50
   0   0  15    1.70    1.30
  -1   0 -15   36.90    3.30
   1   0  15   36.20    2.80
   1   0  15   38.20    3.50
  -1   0 -15   35.80    2.70
  -1   0 -15   33.80    2.90
   1   0  15   35.50    3.30
  -2   0 -15   -1.00    3.00
   2   0  15   -0.20    3.30
  -2   0 -15    1.60    2.40
  -2   0 -15    2.10    2.40
   2   0  15   -3.20    2.40
  -2   0 -15   -4.70    2.70
   2   0  15    2.70    3.00
   3   0  15   92.29    8.60
  -3   0 -15  100.09    7.20
  -3   0 -15   99.99    8.30
  -4   0 -15    4.70    7.70
   4   0  15    4.00    8.10
  -4   0 -15   -6.30    5.50
  -4  -1  15   53.99    7.30
   4  -1 -15   53.59    6.40
   4  -1 -15   42.80    6.30
   4  -1 -15   54.29    8.70
   4   1 -15   58.59    5.90
   4   1 -15   67.49    6.50
  -4   1  15   63.69    7.70
  -3  -1  15  743.33   25.70
   3  -1 -15  750.92   25.70
   3  -1 -15  744.23   26.00
   3  -1 -15  721.33   27.30
  -3   1  15  733.93   26.00
   3   1 -15  736.53   25.90
   3   1 -15  719.53   26.60
   3   1 -15  746.23   25.50
  -2  -1  15  122.49    5.30
   2  -1 -15  126.79    5.60
   2  -1 -15  124.89    6.70
  -2  -1  15  118.89    6.60
   2  -1 -15  128.59    5.40
   2   1 -15  128.29    5.60
  -2   1  15  122.59    5.70
   2   1 -15  130.69    6.40
   2   1 -15  127.29    5.30
  -2   1  15  125.59    7.00
  -1  -1  15  513.65   17.60
  -1  -1  15  527.45   17.90
   1  -1 -15  515.05   17.90
  -1  -1  15  510.55   18.20
   1  -1 -15  477.95   18.70
   1  -1 -15  515.05   17.70
  -1   1  15  532.95   18.00
   1   1 -15  531.55   17.90
  -1   1  15  534.05   17.90
   1   1 -15  520.65   17.70
   1   1 -15  505.75   17.80
  -1   1  15  528.25   18.30
   0  -1  15  308.17   10.60
   0  -1  15  303.37   10.60
   0  -1  15  298.77   10.80
   0  -1 -15  290.17   10.70
   0  -1 -15  296.77   10.70
   0  -1 -15  297.07   10.60
   0   1  15  293.87   10.80
   0   1 -15  296.37   10.50
   0   1 -15  299.37   10.50
   0   1 -15  288.67   10.70
   0   1  15  298.77   10.80
   0   1  15  303.27   10.60
  -1  -1 -15  221.58    8.60
   1  -1  15  220.68    8.20
   1  -1  15  209.88    8.50
   1  -1  15  216.58    9.10
  -1  -1 -15  215.28    8.30
  -1  -1 -15  226.78    8.80
   1   1  15  219.18    8.50
  -1   1 -15  209.18    8.80
  -1   1 -15  212.08    8.20
  -1   1 -15  219.38    8.40
   1   1  15  224.78    8.20
   1   1  15  219.58    8.80
  -2  -1 -15   18.70    2.70
   2  -1  15   17.20    4.40
   2  -1  15   20.20    3.00
  -2  -1 -15   17.60    3.30
   2  -1  15   20.00    3.60
  -2  -1 -15   14.40    3.50
  -2  -1 -15   20.50    3.80
  -2   1 -15   21.90    3.00
   2   1  15   19.50    3.20
  -2   1 -15   17.70    3.20
  -2   1 -15   16.30    3.70
   2   1  15   15.00    3.00
   2   1  15   17.10    3.70
  -3  -1 -15   15.10    5.10
  -3  -1 -15   13.50    4.50
   3  -1  15    6.50    5.70
   3   1  15   10.00    4.50
   3   1  15   11.80    5.40
  -3   1 -15   15.60    4.10
  -3   1 -15   17.40    5.00
  -3   1 -15   13.60    3.70
  -4  -1 -15    4.40    6.00
  -4  -1 -15    1.00    7.40
   4  -1  15   -4.40    8.00
  -4   1 -15   14.60    6.00
   4   1  15   13.60    7.70
  -4   1 -15    6.30    7.40
   4  -2 -15   13.30    4.80
   4  -2 -15    5.60    4.20
  -4   2  15   12.50    5.90
   4   2 -15    6.90    3.50
   4   2 -15    6.80    4.40
   3  -2 -15   41.10    6.30
   3  -2 -15   36.30    4.80
   3  -2 -15   33.50    4.40
  -3  -2  15   35.10    4.00
   3   2 -15   31.40    3.90
   3   2 -15   34.60    4.60
   3   2 -15   31.00    3.30
  -3   2  15   35.00    4.90
  -2  -2  15  812.32   27.70
   2  -2 -15  823.12   27.80
  -2  -2  15  768.42   27.80
   2  -2 -15  822.82   27.30
   2  -2 -15  786.52   28.50
   2   2 -15  815.42   27.00
   2   2 -15  820.42   27.60
  -2   2  15  767.82   28.50
   2   2 -15  794.82   29.20
  -2   2  15  813.62   27.70
   2   2 -15  806.02   27.60
   1  -2 -15   50.29    2.70
  -1  -2  15   43.70    4.00
  -1  -2  15   46.90    2.80
   1  -2 -15   48.60    3.80
   1  -2 -15   49.80    3.20
  -1  -2  15   49.70    3.20
  -1   2  15   49.70    4.30
  -1   2  15   44.80    3.10
   1   2 -15   48.90    2.80
   1   2 -15   50.79    2.80
   1   2 -15   49.10    2.60
  -1   2  15   48.20    3.30
   0  -2  15  100.89    4.30
   0  -2 -15  100.19    4.30
   0  -2  15   99.79    4.60
   0  -2 -15   99.19    4.50
   0  -2  15   93.69    4.60
   0  -2 -15   96.69    4.50
   0   2  15   97.99    4.80
   0   2 -15   96.89    4.00
   0   2  15  100.69    4.30
   0   2  15   96.99    4.50
   0   2 -15   96.49    4.60
   0   2 -15   97.39    4.10
   1  -2  15   32.10    4.30
  -1  -2 -15   27.90    2.80
  -1  -2 -15   24.60    3.40
   1  -2  15   26.80    3.00
  -1  -2 -15   27.30    3.30
   1  -2  15   26.90    2.80
  -1   2 -15   29.50    3.70
   1   2  15   29.10    3.20
  -1   2 -15   26.70    2.70
   1   2  15   28.70    3.20
   1   2  15   23.20    2.80
  -1   2 -15   24.70    2.50
   2  -2  15   52.79    6.80
   2  -2  15   57.79    4.30
  -2  -2 -15   51.89    4.20
  -2  -2 -15   60.99    5.40
   2   2  15   58.19    4.60
  -2   2 -15   48.40    4.40
  -2   2 -15   45.40    4.50
  -2   2 -15   45.30    5.30
   2   2  15   59.09    4.80
   2   2  15   41.80    5.40
   3  -2  15   87.49    9.80
  -3  -2 -15   96.39    9.20
  -3  -2 -15  110.29    9.10
  -3   2 -15  109.59    8.80
  -3   2 -15  105.39    6.20
   3   2  15   98.99    7.60
   3   2  15   84.69    8.90
  -3   2 -15   94.99    7.30
   4  -3 -15    2.60    5.40
   4  -3 -15   -4.20    4.20
   4   3 -15    4.90    6.20
  -4   3  15   -6.30    6.00
   4   3 -15    0.40    3.20
   3  -3 -15   41.80    4.00
  -3  -3  15   32.40    3.70
  -3  -3  15   39.60    6.40
   3  -3 -15   44.20    5.60
   3   3 -15   35.60    5.00
   3   3 -15   36.70    3.10
   3   3 -15   33.70    4.70
  -3   3  15   45.40    5.50
  -2  -3  15  144.69    7.30
   2  -3 -15  144.59    8.50
   2  -3 -15  149.09    6.00
   2   3 -15  147.29    6.80
  -2   3  15  143.99    9.00
   2   3 -15  149.19    5.40
  -2   3  15  152.18    7.20
   2   3 -15  139.99    9.60
   1  -3 -15  121.39    5.50
  -1  -3  15  120.39    5.00
   1  -3 -15  110.09    6.20
   1  -3 -15  119.09    4.90
  -1   3  15  109.69    5.20
   1   3 -15  121.39    4.70
   1   3 -15  113.79    7.60
  -1   3  15  121.19    5.40
  -1   3  15  117.39    6.70
   1   3 -15  108.49    4.70
   1   3 -15  124.19    5.10
   0  -3 -15   43.00    3.50
   0  -3  15   43.80    3.80
   0  -3 -15   48.60    3.30
   0  -3  15   40.00    3.90
   0  -3 -15   41.30    3.30
   0  -3  15   46.50    3.10
   0   3 -15   48.80    3.50
   0   3  15   39.30    4.00
   0   3 -15   46.60    2.70
   0   3  15   40.10    3.10
   0   3  15   46.30    2.90
   0   3 -15   44.40    2.40
  -1  -3 -15    2.50    1.90
  -1  -3 -15    0.80    2.50
  -1  -3 -15   -0.90    2.90
   1  -3  15    1.00    3.70
   1  -3  15   -2.50    2.90
   1  -3  15    0.90    2.20
  -1   3 -15    0.20    1.70
   1   3  15    3.60    2.40
  -1   3 -15   -0.40    2.60
   1   3  15    1.40    2.30
  -1   3 -15    1.80    2.00
   1   3  15   -2.50    2.00
  -2  -3 -15    9.30    4.40
   2  -3  15   10.80    3.00
   2  -3  15   17.60    5.40
  -2  -3 -15    4.80    3.70
  -2   3 -15   12.70    4.20
  -2   3 -15   12.50    3.20
   2   3  15    8.00    4.00
   2   3  15   12.10    3.40
  -2   3 -15    8.60    3.30
   2   3  15    8.40    3.10
  -3  -3 -15   83.79   10.10
  -3  -3 -15   81.19    8.30
   3  -3  15   78.59   10.20
   3   3  15   72.99    7.10
  -3   3 -15   69.79    7.40
  -3   3 -15   86.99    8.80
   3   3  15   70.69    8.70
   3  -4 -15   24.90    4.90
   3  -4 -15   23.80    3.40
  -3  -4  15   10.50    5.10
   3   4 -15   31.20    4.60
  -3   4  15   20.40    5.00
   2  -4 -15  288.07   10.40
   2  -4 -15  298.57   11.80
  -2   4  15  295.67   11.50
   2   4 -15  277.47   11.20
  -2   4  15  269.37   13.70
   1  -4 -15   32.70    2.90
   1  -4 -15   30.70    3.70
   1   4 -15   29.70    5.50
  -1   4  15   32.50    3.30
   1   4 -15   29.10    2.70
  -1   4  15   27.10    3.50
  -1   4  15   42.10    5.80
   0  -4  15   60.19    7.20
   0  -4  15   58.49    5.30
   0  -4 -15   61.69    4.30
   0  -4  15   58.59    3.60
   0  -4 -15   54.29    4.40
   0   4 -15   54.69    3.90
   0   4 -15   58.39    3.30
   0   4  15   59.79    4.10
   0   4  15   63.39    3.60
   0   4 -15   56.69    6.30
   0   4 -15   54.79    2.60
   0   4  15   58.69    5.20
   1  -4  15  265.07   10.00
   1  -4  15  270.57   10.90
  -1  -4 -15  260.67   12.20
   1  -4  15  268.57   11.90
  -1  -4 -15  265.87   10.70
   1   4  15  255.37    9.80
   1   4  15  250.87   10.60
  -1   4 -15  272.57   11.00
  -1   4 -15  271.97    9.90
   1   4  15  257.27   10.50
  -1   4 -15  250.87   10.60
  -1   4 -15  253.47   10.00
   2  -4  15   99.69    9.80
  -2  -4 -15   90.19    7.50
  -2  -4 -15  103.69    9.90
   2  -4  15  100.29    5.80
  -2   4 -15   89.09    5.90
  -2   4 -15  102.39    6.20
   2   4  15   86.59    6.50
   2   4  15   80.99    7.80
  -2   4 -15  106.39    7.70
   2   4  15   89.39    6.90
  -3  -4 -15   14.20    7.60
  -3  -4 -15   -3.60    7.50
   3   4  15  -14.50    6.00
  -3   4 -15    0.80    5.70
   3  -5 -15   57.29    8.20
  -3   5  15   65.99    7.30
   3   5 -15   52.39    6.70
   2  -5 -15   14.10    4.10
   2  -5 -15   10.00    2.30
   2   5 -15   10.90    3.30
  -2   5  15   12.70    7.40
  -2   5  15   10.70    3.70
   1  -5 -15   38.90    3.80
   1  -5 -15   37.50    4.70
   1   5 -15   34.50    6.50
   1   5 -15   30.40    3.20
  -1   5  15   28.10    3.50
  -1   5  15   35.90    6.20
   0  -5 -15   83.29    8.10
   0  -5 -15   83.49    6.10
   0  -5  15   80.99    6.60
   0  -5 -15   85.79    5.60
   0  -5  15   90.39    4.50
   0   5  15   91.79    5.60
   0   5  15   84.29    4.40
   0   5 -15   89.49    8.30
   0   5 -15   77.29    4.30
   0   5  15   91.49    7.00
   1  -5  15  548.05   20.60
  -1  -5 -15  510.95   22.20
   1  -5  15  531.75   19.20
  -1  -5 -15  539.35   19.70
  -1   5 -15  541.55   18.90
  -1   5 -15  548.35   19.40
   1   5  15  509.55   18.80
  -1   5 -15  557.34   18.60
  -1   5 -15  505.75   19.20
   1   5  15  500.85   19.70
   1   5  15  550.94   19.60
  -2  -5 -15   21.60    6.00
   2  -5  15   43.00    8.50
  -2  -5 -15   39.10    8.10
   2   5  15   29.60    5.90
  -2   5 -15   27.20    5.70
   2  -6 -15   -3.90    5.00
  -2   6  15   -4.20    4.10
   2   6 -15    1.50    3.60
   1  -6 -15   15.00    4.40
   1  -6 -15   17.00    6.40
  -1   6  15   20.70    9.00
  -1   6  15   14.40    3.50
   0  -6 -15   49.00    7.70
   0  -6 -15   56.99    6.10
   0   6 -15   57.19    7.30
   0   6 -15   48.30    4.10
   0   6  15   61.89    5.70
  -1  -6 -15   46.60    7.30
  -1  -6 -15   40.10    8.70
   1   6  15   50.99    6.50
  -1   6 -15   43.50    5.00
  -1   6 -15   47.80    4.80
   4   0 -16  932.01   33.70
  -4   0  16  969.60   34.40
   4   0 -16  951.70   33.40
   3   0 -16    0.90    2.70
  -3   0  16   -0.50    3.10
   3   0 -16    3.60    2.60
   3   0 -16    0.30    4.60
  -2   0  16   35.40    4.80
   2   0 -16   38.20    4.30
   2   0 -16   35.50    2.90
  -2   0  16   32.00    3.10
   2   0 -16   32.30    2.90
  -1   0  16    2.30    2.20
  -1   0  16    3.60    2.10
   1   0 -16    2.10    1.30
   1   0 -16    2.50    1.70
   1   0 -16    2.80    1.30
  -1   0  16    1.50    1.40
   0   0 -16  567.54   19.50
   0   0  16  564.44   19.60
   0   0  16  576.74   19.50
   0   0 -16  586.44   19.50
   0   0  16  572.84   19.60
   0   0 -16  551.34   19.60
  -1   0 -16    1.10    1.80
   1   0  16    4.80    2.20
   1   0  16    2.20    1.90
   1   0  16    4.30    2.20
  -1   0 -16    4.10    1.60
  -1   0 -16    4.20    2.00
   2   0  16   37.10    4.70
  -2   0 -16   42.40    4.20
  -2   0 -16   36.60    3.90
   2   0  16   34.90    4.60
   2   0  16   36.30    3.80
  -2   0 -16   46.90    5.10
   3   0  16    3.50    5.60
  -3   0 -16   -0.80    3.80
  -3   0 -16    0.40    4.80
   4   0  16  -11.50    8.20
  -4   0 -16    6.10    7.60
  -4   0 -16   -1.30    5.90
   4  -1 -16    5.80    4.30
   4  -1 -16   13.60    4.40
  -4  -1  16   12.60    5.20
   4  -1 -16    8.60    7.80
   4   1 -16   10.80    4.50
  -4   1  16    8.00    5.50
   4   1 -16   12.10    3.80
  -3  -1  16   30.10    4.30
   3  -1 -16   19.90    3.40
   3  -1 -16   33.50    3.90
   3  -1 -16   19.50    5.50
  -3   1  16   38.20    4.80
   3   1 -16   25.00    3.70
   3   1 -16   22.00    4.80
   3   1 -16   33.80    4.20
   2  -1 -16  702.43   25.00
   2  -1 -16  721.83   24.00
  -2  -1  16  696.53   23.80
  -2  -1  16  666.53   24.60
   2  -1 -16  701.73   24.20
  -2   1  16  687.53   24.10
   2   1 -16  698.43   24.10
   2   1 -16  714.03   23.80
   2   1 -16  722.93   24.60
  -2   1  16  683.33   25.00
   1  -1 -16  108.29    5.20
  -1  -1  16  109.29    5.00
   1  -1 -16  106.29    4.80
  -1  -1  16  108.09    4.60
   1  -1 -16  110.99    4.50
  -1  -1  16  108.99    5.40
   1   1 -16  107.89    4.50
   1   1 -16  107.29    4.50
  -1   1  16  110.19    5.50
  -1   1  16  102.39    4.80
   1   1 -16  107.99    4.70
  -1   1  16  114.59    5.10
   0  -1  16    6.10    1.70
   0  -1  16    7.00    1.80
   0  -1 -16    7.20    1.60
   0  -1  16    5.70    1.90
   0  -1 -16    8.00    1.50
   0  -1 -16    5.60    1.50
   0   1  16    8.40    1.70
   0   1  16    6.10    1.80
   0   1 -16    5.10    1.70
   0   1 -16    6.10    1.30
   0   1  16    7.40    1.80
   0   1 -16    7.00    1.40
   1  -1  16  410.16   14.40
  -1  -1 -16  406.46   15.00
   1  -1  16  405.86   14.70
   1  -1  16  434.96   15.40
  -1  -1 -16  403.06   14.50
  -1  -1 -16  397.96   14.80
  -1   1 -16  398.76   14.90
  -1   1 -16  393.86   15.00
   1   1  16  410.96   14.60
   1   1  16  409.56   14.40
   1   1  16  412.86   15.00
  -1   1 -16  413.16   14.60
  -2  -1 -16    6.80    2.50
  -2  -1 -16   13.50    3.40
   2  -1  16   13.20    4.20
   2  -1  16    8.90    2.80
   2  -1  16   14.40    3.80
  -2  -1 -16   11.80    3.50
  -2  -1 -16   10.50    3.20
  -2   1 -16   11.80    2.90
   2   1  16    8.40    3.10
  -2   1 -16    7.80    3.90
  -2   1 -16   10.10    3.60
   2   1  16    1.40    2.70
   2   1  16   14.20    5.00
  -3  -1 -16   42.20    6.60
  -3  -1 -16   50.49    6.60
   3  -1  16   55.39    7.20
  -3   1 -16   50.49    5.90
   3   1  16   43.10    7.00
   3   1  16   55.89    8.10
  -3   1 -16   43.80    6.30
  -4  -1 -16   16.40    6.50
  -4  -1 -16   12.10    7.90
   4  -1  16   26.60    9.50
  -4   1 -16   11.20    7.90
   4  -2 -16   35.00    4.90
   4  -2 -16   24.60    5.00
   4   2 -16   27.00    4.00
   4   2 -16   33.10    5.00
  -4   2  16   46.00    6.20
   3  -2 -16   40.10    4.80
   3  -2 -16   26.60    6.30
  -3  -2  16   32.00    4.10
   3  -2 -16   34.70    3.90
   3   2 -16   41.50    5.80
  -3   2  16   25.70    3.90
   3   2 -16   30.90    3.30
   3   2 -16   32.30    4.40
  -2  -2  16 1062.39   34.50
   2  -2 -16 1060.59   36.00
  -2  -2  16 1016.40   35.20
   2  -2 -16 1062.89   34.60
  -2   2  16 1039.90   35.00
   2   2 -16 1056.89   34.40
   2   2 -16  875.21   36.40
   2   2 -16 1045.10   35.00
  -1  -2  16  741.03   24.80
  -1  -2  16  697.23   25.30
   1  -2 -16  741.23   25.40
   1  -2 -16  728.33   24.70
   1  -2 -16  737.63   25.10
  -1   2  16  737.23   25.00
   1   2 -16  732.23   24.80
  -1   2  16  734.23   25.50
  -1   2  16  732.23   24.90
   1   2 -16  728.33   24.70
   1   2 -16  725.33   24.60
   0  -2  16  225.08    8.30
   0  -2 -16  216.08    8.50
   0  -2  16  221.08    8.50
   0  -2 -16  221.38    8.50
   0  -2 -16  223.78    8.30
   0  -2  16  225.68    8.50
   0   2  16  221.38    8.70
   0   2 -16  220.98    8.20
   0   2  16  221.78    8.50
   0   2  16  224.88    8.20
   0   2 -16  217.38    8.50
   0   2 -16  223.08    8.00
  -1  -2 -16   69.19    4.40
   1  -2  16   67.79    4.60
  -1  -2 -16   64.49    4.50
  -1  -2 -16   68.59    3.90
   1  -2  16   72.49    3.90
   1  -2  16   71.79    5.30
  -1   2 -16   62.19    3.70
   1   2  16   69.39    4.30
  -1   2 -16   70.29    4.90
   1   2  16   63.79    3.90
  -1   2 -16   67.49    3.90
   1   2  16   67.49    4.40
  -2  -2 -16    6.90    3.60
   2  -2  16    6.90    3.00
  -2  -2 -16    1.10    3.30
  -2  -2 -16    4.30    2.50
   2  -2  16    4.40    4.60
  -2   2 -16    6.40    2.80
   2   2  16    3.40    2.90
   2   2  16    3.50    3.70
  -2   2 -16    4.30    3.20
   2   2  16    9.70    3.10
  -2   2 -16    5.20    3.70
  -3  -2 -16    9.80    5.80
   3  -2  16    6.20    6.50
  -3  -2 -16    4.10    5.40
   3   2  16   -5.50    5.50
  -3   2 -16    0.60    3.30
  -3   2 -16    9.10    5.50
   3   2  16   -1.90    4.50
  -3   2 -16    7.10    4.20
  -3  -3  16    4.30    2.60
  -3  -3  16   -9.20    6.20
   3  -3 -16   13.10    3.80
   3   3 -16    7.40    3.40
  -3   3  16    3.40    3.80
   3   3 -16    1.00    2.00
   3   3 -16    2.20    3.30
   2  -3 -16   24.20    3.80
  -2  -3  16   24.20    4.10
   2  -3 -16   23.80    4.60
   2  -3 -16   28.70    2.90
   2   3 -16   28.10    5.80
  -2   3  16   24.80    5.30
   2   3 -16   24.10    2.10
   2   3 -16   28.30    3.20
  -2   3  16   29.10    3.80
   1  -3 -16 3116.89  105.69
  -1  -3  16 3190.18  104.69
   1  -3 -16 3214.98  104.79
   1  -3 -16 3188.58  105.39
   1   3 -16 3221.38  106.49
  -1   3  16 3185.58  104.99
   1   3 -16 3221.88  104.69
  -1   3  16 3112.59  105.79
  -1   3  16 3178.08  105.19
   1   3 -16 3207.48  104.69
   1   3 -16 3120.69  104.99
   0  -3 -16   66.89    4.30
   0  -3  16   71.99    3.80
   0  -3 -16   65.59    4.00
   0  -3 -16   66.39    4.10
   0  -3  16   71.19    4.60
   0   3  16   67.39    3.70
   0   3 -16   73.99    3.50
   0   3  16   64.09    4.00
   0   3 -16   70.79    4.20
   0   3 -16   67.99    3.20
   0   3  16   62.19    4.70
   1  -3  16  127.09    6.60
  -1  -3 -16  130.69    6.70
   1  -3  16  129.69    5.90
   1  -3  16  138.09    8.00
  -1  -3 -16  127.39    6.50
   1   3  16  125.69    5.70
   1   3  16  122.99    7.10
  -1   3 -16  137.59    6.90
  -1   3 -16  132.49    5.90
   1   3  16  128.59    6.30
  -1   3 -16  131.19    5.60
   2  -3  16    4.70    3.10
  -2  -3 -16   -1.60    4.50
   2  -3  16    2.70    5.40
  -2  -3 -16   -0.40    3.70
   2   3  16    5.70    4.00
   2   3  16   -1.20    3.10
  -2   3 -16   -1.80    4.00
  -2   3 -16   -0.70    3.40
   2   3  16    5.50    3.50
  -2   3 -16   -1.00    2.90
  -3  -3 -16   85.69   11.00
   3  -3  16  106.99   11.20
  -3  -3 -16   67.59   10.20
  -3   3 -16   76.99    8.70
   3   3  16   97.89    9.20
   3   3  16   85.69    7.60
  -3   3 -16   79.39    7.90
   3  -4 -16  163.08    7.50
   3  -4 -16  179.98    9.80
  -3  -4  16  149.49   10.50
   3   4 -16  171.78    8.60
  -3   4  16  176.18    9.40
   2  -4 -16    7.20    2.30
   2  -4 -16    8.70    3.40
  -2   4  16    4.00    5.60
   2   4 -16   10.40    2.90
  -2   4  16    4.90    3.10
  -1  -4  16    3.30    2.10
   1  -4 -16    5.20    2.50
   1  -4 -16    4.60    2.10
  -1  -4  16    1.70    2.80
   1  -4 -16    5.20    3.80
  -1   4  16    3.50    4.20
   1   4 -16    3.90    1.90
  -1   4  16    4.00    2.50
   1   4 -16    7.50    4.90
  -1   4  16    1.50    2.30
   0  -4  16  365.16   12.70
   0  -4  16  358.36   13.70
   0  -4 -16  365.46   13.40
   0  -4  16  360.26   13.70
   0  -4 -16  335.07   13.30
   0   4  16  360.86   12.70
   0   4 -16  356.16   12.70
   0   4 -16  347.07   12.20
   0   4  16  353.66   13.30
   0   4 -16  368.46   13.00
   0   4  16  351.06   13.90
   0   4 -16  360.46   14.70
   1  -4  16   56.89    4.60
  -1  -4 -16   70.29    6.90
   1  -4  16   45.30    5.50
   1  -4  16   45.30    6.80
  -1  -4 -16   47.90    5.60
  -1  -4 -16   59.39    5.10
   1   4  16   59.89    5.10
   1   4  16   61.09    5.10
  -1   4 -16   47.70    5.50
  -1   4 -16   39.70    6.00
   1   4  16   47.00    4.10
  -1   4 -16   52.59    3.60
  -1   4 -16   51.29    4.00
  -2  -4 -16  207.68   10.90
  -2  -4 -16  236.98   13.00
   2  -4  16  213.58   12.90
   2  -4  16  212.98    9.10
  -2   4 -16  226.88    9.60
  -2   4 -16  231.18   11.40
   2   4  16  215.98   11.20
  -2   4 -16  194.28   10.20
   2   4  16  192.28    9.80
  -3  -4 -16    1.50    7.70
  -3  -4 -16   16.40    8.10
   3  -4  16   -9.90    8.70
   3   4  16   11.10    6.80
  -3   4 -16   -6.70    5.90
   3  -5 -16   35.80    6.30
   3   5 -16   43.60    5.60
   2  -5 -16   43.40    3.70
   2  -5 -16   43.10    5.90
   2   5 -16   42.00    4.50
  -2   5  16   41.20    4.50
   1  -5 -16   10.20    3.00
  -1   5  16    5.70    5.90
  -1   5  16    5.00    2.90
   1   5 -16   -1.90    6.50
   0  -5  16    7.30    4.80
   0  -5 -16    6.90    4.00
   0  -5 -16   17.20    3.30
   0  -5  16   10.00    2.60
   0  -5 -16    2.60    5.00
   0   5  16   10.20    4.50
   0   5  16   11.70    2.50
   0   5  16   13.90    3.30
   0   5 -16   10.70    5.50
   0   5 -16    6.20    2.20
  -1  -5 -16  260.37   14.70
   1  -5  16  271.47   13.20
  -1  -5 -16  288.37   12.10
   1  -5  16  268.07   11.70
  -1   5 -16  266.97   11.50
  -1   5 -16  274.47   11.00
   1   5  16  281.77   12.00
   1   5  16  266.67   10.80
  -1   5 -16  293.77   10.40
  -1   5 -16  290.37   11.60
   1   5  16  282.87   11.90
  -2  -5 -16  170.98   11.30
  -2  -5 -16  208.58   14.60
  -2   5 -16  200.88   11.00
   2   5  16  178.18   11.20
   2  -6 -16   -4.00    5.00
   2   6 -16    0.60    4.10
   1  -6 -16    1.80    4.10
   1  -6 -16    8.30    6.70
  -1   6  16    6.50    3.60
   1   6 -16    5.60    2.90
   0  -6 -16   17.40    7.40
   0  -6 -16   16.40    4.40
   0   6  16   14.80    4.00
   0   6 -16   18.60    3.00
  -1  -6 -16   17.90    5.50
  -1  -6 -16   18.10    8.00
   1   6  16   24.00    5.00
  -1   6 -16   17.60    4.50
  -1   6 -16   17.90    3.60
   4   0 -17    3.30    3.90
   4   0 -17    9.70    4.40
   3   0 -17   18.90    3.10
  -3   0  17   17.00    3.40
   3   0 -17   23.80    5.20
   3   0 -17   23.80    3.40
  -2   0  17    0.70    3.30
   2   0 -17   -0.30    1.70
   2   0 -17   -0.90    1.70
   2   0 -17    0.90    2.90
  -2   0  17   -0.60    2.00
  -1   0  17 1110.79   37.60
   1   0 -17 1117.49   37.60
  -1   0  17 1126.39   37.90
   1   0 -17 1110.69   37.60
  -1   0  17 1105.59   37.90
   1   0 -17 1162.68   37.90
   0   0  17    6.70    1.90
   0   0  17    7.60    1.90
   0   0 -17    5.70    1.50
   0   0  17    6.00    1.70
   0   0 -17    9.70    1.70
  -1   0 -17   87.59    5.00
  -1   0 -17   88.39    4.50
   1   0  17   84.69    4.30
   1   0  17   82.99    5.10
  -1   0 -17   85.19    4.30
   1   0  17   84.59    4.80
   2   0  17    3.60    3.30
  -2   0 -17    1.90    3.00
  -2   0 -17   12.90    4.40
  -2   0 -17    3.70    2.50
   2   0  17   12.80    4.10
  -3   0 -17   10.00    5.40
   3   0  17    2.30    6.00
   4  -1 -17   41.90    6.20
   4  -1 -17   46.40    6.50
   4   1 -17   53.59    6.70
   4   1 -17   51.79    5.60
  -4   1  17   60.19    7.80
   3  -1 -17  313.07   14.70
   3  -1 -17  318.07   12.20
   3  -1 -17  309.97   12.50
  -3  -1  17  325.97   12.30
   3   1 -17  303.57   13.70
   3   1 -17  319.17   12.40
  -3   1  17  320.07   12.50
   3   1 -17  318.27   12.00
   2  -1 -17    5.00    2.40
  -2  -1  17    5.50    2.00
  -2  -1  17   -1.60    3.40
   2  -1 -17    5.90    1.80
   2  -1 -17    3.80    3.30
   2   1 -17    7.40    2.70
   2   1 -17    6.30    1.70
   2   1 -17    1.10    2.80
  -2   1  17   -0.10    3.50
  -2   1  17    0.60    2.30
  -1  -1  17    4.20    2.10
  -1  -1  17    4.70    1.70
  -1  -1  17    6.30    2.60
   1  -1 -17    4.90    1.60
   1  -1 -17    6.60    1.50
   1  -1 -17    2.80    2.10
   1   1 -17    4.80    1.40
  -1   1  17    5.20    1.70
   1   1 -17    7.00    1.50
  -1   1  17    4.70    2.60
  -1   1  17    5.70    2.30
   1   1 -17    5.20    1.80
   0  -1  17  194.28    7.50
   0  -1 -17  191.78    7.30
   0  -1 -17  185.18    7.40
   0  -1  17  191.98    7.30
   0  -1  17  188.48    7.30
   0  -1 -17  186.48    7.10
   0   1 -17  177.28    7.30
   0   1  17  180.88    7.40
   0   1  17  186.08    7.20
   0   1  17  184.58    7.40
   0   1 -17  186.78    7.00
   0   1 -17  182.58    7.10
   1  -1  17  356.76   12.70
  -1  -1 -17  347.87   12.80
   1  -1  17  369.26   13.70
   1  -1  17  362.46   13.00
  -1  -1 -17  341.47   13.10
  -1  -1 -17  352.76   13.30
   1   1  17  364.96   13.40
  -1   1 -17  338.27   12.70
  -1   1 -17  335.87   12.80
   1   1  17  349.07   13.00
   1   1  17  358.86   12.70
  -1   1 -17  356.96   13.40
   2  -1  17  310.67   11.50
  -2  -1 -17  292.67   13.40
   2  -1  17  294.27   12.20
  -2  -1 -17  306.37   11.70
  -2  -1 -17  292.77   12.40
  -2  -1 -17  290.47   12.40
   2  -1  17  305.37   13.30
  -2   1 -17  290.67   12.10
  -2   1 -17  301.07   12.90
  -2   1 -17  307.77   11.80
   2   1  17  315.67   12.10
   2   1  17  302.17   12.90
   3  -1  17   13.80    6.60
  -3  -1 -17   18.10    4.80
  -3  -1 -17   12.50    5.70
  -3   1 -17   11.30    5.50
  -3   1 -17   15.60    4.10
   3   1  17   23.30    6.40
   4  -2 -17   24.30    5.50
   4  -2 -17   18.60    4.60
   4   2 -17   23.30    5.50
   4   2 -17   19.30    3.80
  -4   2  17   12.90    6.00
   3  -2 -17   29.90    3.50
   3  -2 -17   26.10    6.50
   3  -2 -17   25.60    4.00
  -3  -2  17   30.10    3.90
  -3   2  17   33.80    4.50
   3   2 -17   31.70    4.60
   3   2 -17   40.00    4.90
   3   2 -17   34.70    3.40
  -2  -2  17   22.30    2.80
   2  -2 -17   23.00    3.40
  -2  -2  17   15.40    4.00
   2  -2 -17   22.70    2.80
   2  -2 -17   22.40    4.20
   2   2 -17   24.00    3.30
   2   2 -17   22.90    3.00
  -2   2  17   20.00    2.90
  -2   2  17   18.90    4.60
   2   2 -17   25.60    2.50
   2   2 -17   12.30    4.90
   1  -2 -17  488.25   17.20
  -1  -2  17  500.55   16.80
  -1  -2  17  462.75   17.50
   1  -2 -17  490.15   16.80
   1  -2 -17  486.95   17.50
  -1  -2  17  485.45   16.90
   1   2 -17  493.05   16.70
  -1   2  17  491.55   17.10
  -1   2  17  492.25   17.10
   1   2 -17  481.45   16.80
  -1   2  17  478.85   17.70
   1   2 -17  473.85   16.90
   0  -2 -17  241.58    9.30
   0  -2  17  240.98    9.20
   0  -2 -17  244.38    9.00
   0  -2  17  241.48    9.30
   0  -2  17  245.78    9.00
   0  -2 -17  236.88    9.20
   0   2  17  234.28    9.40
   0   2 -17  237.88    8.70
   0   2 -17  239.28    8.90
   0   2 -17  242.68    9.30
   0   2  17  246.18    9.30
   0   2  17  245.28    9.00
   1  -2  17   63.79    4.00
  -1  -2 -17   62.99    4.00
  -1  -2 -17   64.69    4.60
  -1  -2 -17   62.29    4.60
   1  -2  17   64.69    5.50
   1  -2  17   73.59    4.70
  -1   2 -17   67.09    3.80
   1   2  17   67.59    4.50
   1   2  17   61.09    4.50
   1   2  17   71.49    4.10
  -1   2 -17   66.69    5.00
  -1   2 -17   60.19    3.90
  -2  -2 -17   24.30    4.60
  -2  -2 -17   27.40    4.40
  -2  -2 -17   26.00    4.30
   2  -2  17   40.50    5.80
   2  -2  17   32.40    3.70
  -2  -2 -17   25.10    3.90
   2   2  17   31.20    3.90
   2   2  17   36.20    4.80
  -2   2 -17   27.90    3.70
  -2   2 -17   37.20    4.80
  -2   2 -17   32.80    4.40
   2   2  17   27.50    3.80
   3  -2  17    6.70    6.90
  -3  -2 -17    5.80    6.00
  -3  -2 -17   16.90    5.70
   3   2  17   -5.10    6.00
  -3   2 -17    8.80    3.70
  -3   2 -17    9.90    5.80
   3  -3 -17   52.19    4.30
   3  -3 -17   42.50    5.90
   3   3 -17   47.10    7.00
   3   3 -17   36.30    5.20
  -3   3  17   45.40    6.00
   2  -3 -17  219.78   11.20
   2  -3 -17  249.28    9.80
   2  -3 -17  244.78    8.90
  -2  -3  17  219.28    9.90
  -2   3  17  231.68   11.70
   2   3 -17  228.08    9.70
   2   3 -17  224.58    8.30
   2   3 -17  234.68    9.40
  -2   3  17  242.98    9.60
   2   3 -17  205.78   16.30
  -1  -3  17  861.71   28.90
   1  -3 -17  888.91   28.80
   1  -3 -17  845.32   29.80
  -1  -3  17  862.11   28.80
   1  -3 -17  880.61   29.40
  -1  -3  17  749.42   29.50
   1   3 -17  874.51   30.90
   1   3 -17  844.72   29.00
  -1   3  17  859.31   30.00
   1   3 -17  869.01   28.70
  -1   3  17  858.41   29.00
  -1   3  17  846.32   29.60
   1   3 -17  846.52   28.70
   0  -3 -17  693.93   24.40
   0  -3 -17  682.13   24.20
   0  -3  17  702.73   24.30
   0  -3  17  677.63   24.40
   0  -3  17  706.83   23.80
   0  -3 -17  692.53   24.40
   0   3  17  715.43   24.60
   0   3  17  701.63   24.40
   0   3  17  711.63   23.90
   0   3 -17  713.43   23.60
   0   3 -17  721.33   24.30
   0   3 -17  692.53   23.90
   1  -3  17   43.40    4.60
   1  -3  17   45.80    6.30
   1  -3  17   33.20    3.80
  -1  -3 -17   29.10    3.60
  -1  -3 -17   43.10    4.40
  -1  -3 -17   34.80    4.70
   1   3  17   41.80    4.30
  -1   3 -17   40.00    3.60
  -1   3 -17   39.90    3.20
   1   3  17   40.60    3.70
  -1   3 -17   39.20    5.80
   1   3  17   39.00    4.20
  -2  -3 -17    3.60    4.10
   2  -3  17   10.70    3.40
  -2  -3 -17   11.30    5.00
   2  -3  17   12.50    5.90
  -2   3 -17   13.40    3.30
  -2   3 -17    8.10    4.30
  -2   3 -17    9.50    3.70
   2   3  17    9.90    3.60
   2   3  17    4.20    4.40
  -3  -3 -17  109.09   11.60
  -3  -3 -17  116.49   11.40
   3  -3  17  139.79   13.10
  -3   3 -17  117.19    9.80
  -3   3 -17  113.49    8.40
   3   3  17  113.79    9.10
   3   3  17  127.19   10.20
   3  -4 -17  292.67   13.10
   3   4 -17  276.27   12.40
  -3   4  17  295.47   12.90
   2  -4 -17  344.37   13.90
   2  -4 -17  331.27   12.50
  -2   4  17  349.77   13.50
   2   4 -17  358.16   13.30
   1  -4 -17   16.50    3.40
  -1  -4  17   15.30    3.20
  -1  -4  17   17.80    2.60
   1  -4 -17   15.20    2.50
  -1   4  17   12.00    3.00
  -1   4  17   14.10    2.80
   1   4 -17   21.90    5.40
  -1   4  17   17.80    4.70
   1   4 -17   17.70    2.80
   0  -4 -17  809.82   29.70
   0  -4  17  903.01   30.10
   0  -4  17  849.32   30.00
   0  -4  17  875.11   29.10
   0  -4 -17  861.71   29.90
   0   4  17  851.61   30.20
   0   4 -17  878.51   31.00
   0   4  17  854.61   29.80
   0   4  17  873.31   29.30
   0   4 -17  874.21   29.60
   0   4 -17  867.11   29.30
   0   4 -17  862.01   28.80
  -1  -4 -17  271.87   11.30
  -1  -4 -17  273.17   13.00
  -1  -4 -17  258.77   11.70
   1  -4  17  279.67   12.40
   1  -4  17  271.07   10.70
  -1   4 -17  267.67   11.50
  -1   4 -17  266.87   10.10
   1   4  17  269.77   11.20
  -1   4 -17  269.57   10.40
   1   4  17  266.77   10.40
   1   4  17  262.97   11.30
  -2  -4 -17  326.87   15.30
  -2  -4 -17  355.06   17.30
   2  -4  17  389.56   17.00
   2  -4  17  349.27   13.50
  -2   4 -17  324.37   14.10
  -2   4 -17  378.36   15.70
   2   4  17  354.66   15.60
   2   4  17  336.87   14.30
  -2   4 -17  382.86   14.00
   3  -4  17   23.10    9.70
  -3  -4 -17   17.10    8.20
  -3  -4 -17   26.60    9.30
   3   4  17   14.20    8.30
  -3   4 -17   27.80    8.10
   2  -5 -17    8.30    2.80
   2  -5 -17    8.50    4.20
   2   5 -17    6.90    3.10
  -2   5  17    1.40    3.60
   1  -5 -17    7.10    3.30
   1  -5 -17   -2.50    3.20
  -1   5  17    1.10    2.80
  -1   5  17    3.20    5.80
  -1   5  17    8.80    3.10
   1   5 -17    2.40    2.40
   1   5 -17   11.90    6.70
   0  -5 -17   -3.20    4.90
   0  -5  17   -1.20    2.70
   0  -5 -17   -1.10    4.00
   0  -5  17    4.30    5.10
   0  -5 -17    2.50    3.30
   0   5  17    3.20    3.30
   0   5  17    8.10    4.60
   0   5  17    6.90    2.70
   0   5 -17   -2.90    2.10
   0   5 -17    6.40    5.30
   1  -5  17  164.58    9.00
  -1  -5 -17  168.88    9.20
  -1  -5 -17  155.38   11.90
   1  -5  17  170.88   10.90
   1   5  17  176.68    9.00
  -1   5 -17  149.49    9.90
   1   5  17  176.98    9.00
  -1   5 -17  169.28    7.70
  -1   5 -17  167.28    8.50
   1   5  17  142.49    7.50
  -2  -5 -17    3.90    7.70
  -2   5 -17   -2.50    4.50
   2   5  17    6.80    6.00
  -2   5 -17    4.20    5.40
   1  -6 -17   36.60    5.20
   1  -6 -17   43.30    8.00
  -1   6  17   35.50    4.60
   1   6 -17   34.80    4.20
   0  -6 -17   30.30    7.60
   0   6 -17   29.90    4.10
   0   6  17   23.60    4.40
  -1  -6 -17    2.10    7.90
  -1  -6 -17    2.40    6.50
  -1   6 -17   -2.90    3.60
   1   6  17   -1.10    4.90
   4   0 -18  162.78    9.00
   4   0 -18  150.78    8.70
  -4   0  18  167.68   14.10
   3   0 -18   -2.00    2.90
   3   0 -18    2.80    2.70
   3   0 -18    2.00    5.00
  -3   0  18    2.10    3.30
  -2   0  18   41.40    3.50
   2   0 -18   36.10    3.70
  -2   0  18   29.30    4.20
  -1   0  18    4.30    2.40
   1   0 -18    4.40    2.00
   0   0  18    3.40    1.90
   0   0 -18    2.20    1.60
   0   0 -18    3.00    1.50
   0   0  18    0.80    1.90
   0   0  18    7.30    2.00
  -1   0 -18    4.40    2.30
   1   0  18    2.30    2.70
  -1   0 -18    4.50    1.90
   1   0  18    4.60    2.50
   1   0  18    4.90    2.20
  -1   0 -18    0.10    2.10
   2   0  18 1405.26   49.40
  -2   0 -18 1407.16   48.20
  -2   0 -18 1336.17   47.70
   2   0  18 1405.16   47.40
  -2   0 -18 1410.46   47.20
  -3   0 -18    3.00    5.50
  -3   0 -18   10.50    4.70
   3   0  18  -12.00    6.10
   4  -1 -18    6.60    4.50
   4  -1 -18   10.60    4.30
  -4   1  18   15.30    5.80
   4   1 -18    7.30    4.50
   4   1 -18    4.10    3.80
  -3  -1  18  598.44   20.70
   3  -1 -18  583.64   20.80
   3  -1 -18  567.84   22.90
   3  -1 -18  578.84   21.00
  -3   1  18  589.64   21.10
   3   1 -18  578.04   21.10
   3   1 -18  581.34   20.50
   3   1 -18  567.84   21.90
   2  -1 -18    4.60    2.00
   2  -1 -18   -1.30    3.30
  -2  -1  18   -4.00    3.50
   2  -1 -18    4.70    1.90
  -2  -1  18    2.70    2.10
   2   1 -18    5.80    2.10
  -2   1  18    3.70    2.40
   2   1 -18    1.10    1.80
   2   1 -18    4.70    3.00
   1  -1 -18   26.90    3.30
  -1  -1  18   27.60    2.70
  -1  -1  18   29.70    3.40
   1  -1 -18   28.10    2.40
  -1  -1  18   25.10    3.30
   1  -1 -18   30.00    2.70
   1   1 -18   30.80    2.50
  -1   1  18   27.30    2.70
  -1   1  18   31.80    3.90
  -1   1  18   29.60    3.40
   1   1 -18   25.20    2.30
   1   1 -18   28.20    2.80
   0  -1  18  429.16   14.90
   0  -1  18  411.86   14.60
   0  -1 -18  414.86   14.60
   0  -1 -18  422.06   14.50
   0  -1 -18  401.66   14.70
   0  -1  18  421.86   14.60
   0   1  18  407.16   14.70
   0   1 -18  401.16   14.40
   0   1  18  405.26   14.70
   0   1  18  414.06   14.50
   0   1 -18  407.56   14.40
   0   1 -18  406.16   14.70
  -1  -1 -18   24.30    3.30
   1  -1  18   22.00    3.20
   1  -1  18   31.20    4.60
  -1  -1 -18   26.20    3.80
  -1  -1 -18   21.00    3.00
   1  -1  18   21.10    3.10
   1   1  18   20.20    2.90
   1   1  18   21.70    3.10
   1   1  18   30.40    3.80
  -1   1 -18   23.00    2.80
  -1   1 -18   26.90    3.10
  -1   1 -18   25.40    3.70
  -2  -1 -18   77.39    6.10
   2  -1  18   83.89    7.40
   2  -1  18   62.49    6.10
  -2  -1 -18   78.99    5.20
  -2  -1 -18   79.69    6.20
  -2   1 -18   73.49    5.60
  -2   1 -18   82.39    6.70
   2   1  18   78.19    5.90
   2   1  18   80.49    6.60
  -2   1 -18   80.59    5.20
  -3  -1 -18  211.78   11.30
  -3  -1 -18  222.18   12.60
   3  -1  18  199.48   12.80
   3   1  18  216.28   12.60
  -3   1 -18  208.58   12.20
  -3   1 -18  209.88   10.30
   4  -2 -18   55.19    6.30
   4   2 -18   51.49    5.40
  -4   2  18   56.69    7.10
   3  -2 -18    8.50    6.20
   3  -2 -18   14.50    3.90
   3  -2 -18   19.30    3.30
  -3  -2  18   16.50    3.10
  -3   2  18   20.30    3.90
   3   2 -18   22.00    4.60
   3   2 -18   17.00    2.60
   3   2 -18   13.30    3.40
   2  -2 -18  113.99    7.60
  -2  -2  18  116.19    5.30
   2  -2 -18  124.39    6.10
  -2  -2  18  115.39    7.10
   2  -2 -18  117.09    5.30
  -2   2  18  113.79    7.90
   2   2 -18  126.49    6.40
   2   2 -18  120.99    5.60
   2   2 -18  114.49    5.10
  -2   2  18  117.39    5.90
   1  -2 -18   89.19    5.30
  -1  -2  18   85.69    4.30
   1  -2 -18   89.49    4.70
   1  -2 -18   95.59    4.20
  -1  -2  18   82.89    5.70
  -1  -2  18   87.09    4.80
   1   2 -18   83.59    4.20
   1   2 -18   90.89    4.20
  -1   2  18   89.49    4.50
  -1   2  18   90.39    5.90
  -1   2  18   85.49    4.90
   1   2 -18   79.99    4.30
   0  -2 -18  445.96   15.40
   0  -2 -18  431.16   15.60
   0  -2  18  431.16   15.60
   0  -2  18  434.96   15.20
   0  -2  18  427.86   15.40
   0  -2 -18  420.96   15.50
   0   2  18  435.56   15.60
   0   2 -18  431.36   15.60
   0   2 -18  435.86   15.00
   0   2  18  427.56   15.70
   0   2 -18  432.96   15.20
   0   2  18  441.26   15.20
   1  -2  18  314.37   11.70
  -1  -2 -18  295.47   11.90
  -1  -2 -18  299.97   11.40
   1  -2  18  295.07   11.20
  -1  -2 -18  291.97   11.80
   1  -2  18  305.77   12.50
   1   2  18  315.77   11.70
   1   2  18  297.37   11.90
  -1   2 -18  306.77   12.30
   1   2  18  300.37   11.20
  -1   2 -18  312.67   11.20
  -1   2 -18  288.17   11.30
  -2  -2 -18    2.90    4.10
  -2  -2 -18    0.00    3.80
   2  -2  18    2.70    3.00
   2  -2  18   -6.30    5.30
  -2  -2 -18    4.00    4.20
   2   2  18    0.40    3.90
  -2   2 -18    5.50    3.90
  -2   2 -18   10.50    3.50
  -2   2 -18    0.60    2.90
   2   2  18    4.80    3.60
  -3  -2 -18   65.79    8.80
   3  -2  18   79.89   10.50
  -3  -2 -18   55.89    7.90
   3   2  18   67.89    9.10
  -3   2 -18   55.09    6.20
  -3   2 -18   50.49    7.20
   3  -3 -18   40.40    5.00
   3  -3 -18   37.40    4.20
   3   3 -18   42.90    5.40
   3   3 -18   31.30    3.40
  -3   3  18   40.50    5.90
  -2  -3  18   39.60    3.70
  -2  -3  18   38.70    5.80
   2  -3 -18   42.50    3.50
   2  -3 -18   48.30    4.60
   2  -3 -18   60.09    6.80
   2   3 -18   44.00    4.00
  -2   3  18   56.79    8.20
  -2   3  18   48.40    4.50
   2   3 -18   45.80    3.00
   2   3 -18   45.10    4.00
  -1  -3  18 1264.37   42.30
   1  -3 -18 1251.97   43.40
  -1  -3  18 1320.37   42.50
   1  -3 -18 1297.17   43.00
   1  -3 -18 1333.07   42.40
  -1  -3  18 1117.69   43.00
   1   3 -18 1258.97   42.20
  -1   3  18 1271.07   43.50
  -1   3  18 1234.08   43.10
  -1   3  18 1267.07   42.60
   1   3 -18 1299.47   42.40
   1   3 -18 1283.77   42.80
   0  -3 -18  290.87   10.80
   0  -3  18  283.27   11.20
   0  -3  18  291.57   11.30
   0  -3 -18  280.07   11.00
   0  -3 -18  276.07   11.10
   0  -3  18  281.47   10.50
   0   3  18  295.37   10.60
   0   3 -18  286.47   10.10
   0   3  18  262.07   11.60
   0   3 -18  286.27   11.00
   0   3  18  292.27   11.40
   0   3 -18  289.97   10.50
  -1  -3 -18   47.70    4.80
   1  -3  18   45.50    4.20
   1  -3  18   44.30    4.70
   1  -3  18   49.00    6.50
  -1  -3 -18   49.70    5.20
  -1  -3 -18   42.10    4.00
  -1   3 -18   47.40    3.90
  -1   3 -18   46.20    5.00
  -1   3 -18   46.70    3.50
   1   3  18   44.70    3.90
   1   3  18   44.60    4.70
   1   3  18   50.09    4.70
   2  -3  18    2.00    3.40
  -2  -3 -18    8.70    5.20
   2  -3  18   11.10    6.00
  -2  -3 -18   -5.10    5.00
  -2   3 -18    3.50    3.20
  -2   3 -18    3.30    4.40
  -2   3 -18    9.10    3.80
   2   3  18    1.60    4.70
   2   3  18    6.90    3.70
  -3  -3 -18  150.68   12.30
  -3  -3 -18  136.69   12.00
   3  -3  18  149.09   13.90
  -3   3 -18  141.09   10.60
   3   3  18  128.59   11.50
  -3   3 -18  138.99   11.20
   3  -4 -18   25.30    5.10
   3  -4 -18    9.80    3.60
   3   4 -18   20.00    4.50
  -3   4  18   16.00    5.10
  -2  -4  18  454.75   15.70
   2  -4 -18  464.05   15.90
  -2  -4  18  395.06   16.30
   2  -4 -18  464.45   17.30
  -2   4  18  451.65   16.90
   2   4 -18  460.95   16.60
   1  -4 -18   40.80    4.30
  -1  -4  18   41.30    3.90
   1  -4 -18   45.50    3.70
  -1  -4  18   41.50    4.60
  -1   4  18   39.30    5.60
   1   4 -18   34.60    6.40
  -1   4  18   33.30    4.10
  -1   4  18   41.10    4.10
   1   4 -18   39.10    3.30
   0  -4  18   89.39    6.70
   0  -4  18   76.09    6.60
   0  -4 -18   98.29    5.80
   0  -4 -18   92.29    5.50
   0  -4  18   85.59    4.90
   0   4  18   88.99    5.40
   0   4 -18   89.69    4.50
   0   4 -18   90.99    7.90
   0   4  18   86.69    4.90
   0   4 -18   86.59    5.30
   0   4 -18   81.89    3.80
   0   4  18   83.89    6.70
  -1  -4 -18  350.26   16.00
  -1  -4 -18  345.67   14.40
   1  -4  18  360.06   15.40
   1  -4  18  374.66   13.80
   1   4  18  357.76   13.50
  -1   4 -18  364.66   14.60
   1   4  18  371.46   14.50
  -1   4 -18  385.26   13.30
   1   4  18  358.76   14.40
  -1   4 -18  361.16   13.60
  -1   4 -18  368.16   14.60
   2  -4  18   25.90    8.30
  -2  -4 -18   42.70    7.10
  -2  -4 -18   26.70    5.90
  -2   4 -18   27.40    5.00
   2   4  18   28.80    4.90
  -2   4 -18   31.10    5.70
   2  -5 -18  134.99    8.80
   2  -5 -18  148.69    6.70
  -2   5  18  158.88    8.20
   2   5 -18  136.89    7.30
   1  -5 -18    7.00    3.50
   1  -5 -18    4.40    3.50
  -1   5  18    3.80    6.10
   1   5 -18    8.50    2.60
  -1   5  18    7.60    3.30
  -1   5  18    5.40    3.30
   0  -5 -18   29.20    4.90
   0  -5  18   32.30    5.80
   0  -5 -18   30.50    6.10
   0  -5  18   28.00    4.10
   0   5 -18   34.50    6.40
   0   5 -18   29.10    3.50
   0   5  18   30.20    4.00
   0   5  18   31.50    4.20
   0   5  18   42.50    5.70
   1  -5  18   71.69    7.50
  -1  -5 -18   86.99   10.40
   1   5  18   74.39    7.40
   1   5  18   65.29    5.60
  -1   5 -18   79.29    6.40
   1   5  18   88.79    7.00
  -1   5 -18   79.79    6.60
  -2  -5 -18  165.78   12.10
  -2  -5 -18  181.48   14.50
  -2   5 -18  197.38   11.20
  -2   5 -18  171.48    9.50
   2   5  18  188.08   11.70
   1  -6 -18   24.30    5.10
   1  -6 -18   28.10    7.50
   1   6 -18   21.70    3.50
  -1   6  18   15.50    4.30
   0  -6 -18   32.40    8.00
   0  -6 -18   28.70    5.40
   0   6 -18   35.20    4.60
   0   6  18   33.20    4.80
  -1  -6 -18   71.39   10.20
  -1   6 -18   66.29    6.10
   1   6  18   67.49    8.00
  -4   0  19    8.70    5.50
   4   0 -19    0.70    4.60
   4   0 -19    0.70    4.30
  -3   0  19    0.60    3.40
   3   0 -19   -1.10    2.80
   3   0 -19   -2.50    5.30
   3   0 -19    0.60    2.80
  -2   0  19    1.40    3.60
   2   0 -19    0.50    2.00
  -2   0  19    2.00    2.30
   2   0 -19    2.10    1.90
   2   0 -19   -2.40    3.30
   1   0 -19  367.96   12.90
  -1   0  19  352.16   13.30
  -1   0  19  371.96   13.00
   1   0 -19  347.77   13.60
   1   0 -19  361.06   12.80
  -1   0  19  356.96   13.40
   0   0 -19   -0.50    1.70
   0   0  19   -0.20    1.90
   0   0 -19   -0.40    1.50
   0   0  19   -0.60    2.00
   0   0  19   -0.60    2.00
   0   0 -19    3.30    1.50
  -1   0 -19  206.78    8.00
   1   0  19  208.48    8.90
   1   0  19  165.08    7.80
  -1   0 -19  200.38    8.20
   1   0  19  195.58    8.30
  -1   0 -19  207.68    8.70
  -2   0 -19   14.10    3.10
  -2   0 -19   11.30    3.90
  -2   0 -19   19.20    4.30
   2   0  19   17.50    4.00
   2   0  19   18.20    5.00
   3   0  19 1053.09   39.00
  -3   0 -19 1052.29   37.60
  -3   0 -19 1063.49   38.80
   4  -1 -19   41.60    6.20
   4  -1 -19   36.00    5.10
   4   1 -19   33.70    5.40
  -4   1  19   40.10    6.10
   4   1 -19   35.00    4.50
   3  -1 -19   33.50    6.50
   3  -1 -19   28.50    3.70
   3  -1 -19   28.10    3.80
  -3  -1  19   22.90    3.80
   3   1 -19   37.80    5.60
   3   1 -19   27.00    3.90
  -3   1  19   20.70    4.10
   3   1 -19   35.20    4.50
   2  -1 -19  152.28    8.10
  -2  -1  19  129.29    7.80
  -2  -1  19  150.48    6.40
   2  -1 -19  153.48    6.60
  -2   1  19  146.19    6.60
   2   1 -19  134.19    7.40
   2   1 -19  138.19    6.30
  -1  -1  19  134.89    5.80
   1  -1 -19  133.09    5.80
   1  -1 -19  134.19    5.60
   1  -1 -19  134.59    6.30
  -1  -1  19  131.09    6.60
  -1  -1  19  127.09    6.20
  -1   1  19  131.89    5.80
   1   1 -19  131.99    5.60
  -1   1  19  135.59    6.30
  -1   1  19  129.39    6.70
   1   1 -19  129.49    5.80
   1   1 -19  141.79    5.70
   0  -1 -19   38.20    3.20
   0  -1 -19   37.60    2.90
   0  -1  19   37.20    3.50
   0  -1  19   38.00    3.60
   0  -1 -19   33.40    3.10
   0  -1  19   28.30    3.20
   0   1  19   36.80    3.30
   0   1 -19   38.00    2.70
   0   1 -19   32.50    3.20
   0   1  19   33.00    3.60
   0   1 -19   36.00    2.70
   0   1  19   38.70    3.30
  -1  -1 -19  529.15   19.00
  -1  -1 -19  516.95   18.30
  -1  -1 -19  513.75   18.70
   1  -1  19  525.85   18.30
  -1   1 -19  507.35   18.50
   1   1  19  531.65   18.60
  -1   1 -19  521.55   18.30
  -1   1 -19  506.65   19.90
   1   1  19  521.95   18.20
   1   1  19  523.75   19.00
   2  -1  19  345.67   15.00
  -2  -1 -19  337.27   13.90
  -2  -1 -19  323.87   13.00
  -2  -1 -19  334.27   13.80
  -2  -1 -19  340.27   14.30
  -2   1 -19  343.17   14.50
  -2   1 -19  346.37   13.80
   2   1  19  338.17   13.60
   2   1  19  350.96   14.50
  -2   1 -19  346.67   13.10
   3  -1  19  154.88   12.00
  -3  -1 -19  152.58   10.10
  -3  -1 -19  161.38   11.50
  -3   1 -19  163.48   11.20
  -3   1 -19  154.68    9.50
   3   1  19  157.28   11.60
   3  -2 -19   41.20    5.30
  -3  -2  19   43.10    4.40
   3  -2 -19   35.90    6.90
   3  -2 -19   34.70    4.10
  -3   2  19   36.30    4.80
   3   2 -19   37.10    5.10
   3   2 -19   42.20    3.80
   2  -2 -19  246.58    9.60
   2  -2 -19  246.88   11.40
  -2  -2  19  242.08   10.80
   2  -2 -19  254.47   10.10
  -2  -2  19  254.27    9.40
  -2   2  19  240.68   12.90
   2   2 -19  254.67   10.30
   2   2 -19  252.97    9.30
  -2   2  19  245.18   10.40
   2   2 -19  248.28    9.80
  -1  -2  19  150.68    6.90
   1  -2 -19  161.58    6.90
  -1  -2  19  162.68    6.50
   1  -2 -19  155.88    6.40
   1  -2 -19  163.48    7.50
  -1  -2  19  155.58    7.80
  -1   2  19  154.18    7.90
   1   2 -19  157.18    6.40
   1   2 -19  156.48    6.50
  -1   2  19  160.78    6.70
   1   2 -19  161.18    6.60
  -1   2  19  156.88    7.00
   0  -2  19 1254.57   41.60
   0  -2  19 1242.08   41.80
   0  -2  19 1240.48   41.90
   0  -2 -19 1219.98   41.90
   0  -2 -19 1208.88   41.80
   0  -2 -19 1260.47   41.70
   0   2  19 1258.47   41.60
   0   2 -19 1233.18   41.60
   0   2  19 1232.88   42.00
   0   2 -19 1230.38   41.90
   0   2 -19 1250.37   41.40
   0   2  19 1234.98   41.90
   1  -2  19   69.69    5.10
  -1  -2 -19   65.09    4.40
   1  -2  19   67.79    4.50
   1  -2  19   57.19    6.10
  -1  -2 -19   64.29    5.10
   1   2  19   67.89    4.90
   1   2  19   74.59    4.50
   1   2  19   65.69    6.00
  -1   2 -19   70.29    5.50
  -1   2 -19   59.19    4.30
  -1   2 -19   65.39    5.60
   2  -2  19   27.90    6.20
  -2  -2 -19   20.90    4.80
  -2  -2 -19   26.50    4.70
  -2  -2 -19   24.70    4.60
   2   2  19   21.20    5.10
  -2   2 -19   24.80    3.60
  -2   2 -19   29.30    4.50
   2   2  19   26.90    4.00
  -2   2 -19   20.90    4.70
  -3  -2 -19   31.40    6.70
  -3  -2 -19   28.60    7.40
   3  -2  19   27.60    8.50
   3   2  19   31.90    7.20
  -3   2 -19   20.20    6.30
  -3   2 -19   24.80    4.60
   3  -3 -19   16.20    3.50
   3  -3 -19   20.30    4.40
   3   3 -19   15.40    3.80
   3   3 -19   18.80    2.70
  -3   3  19   19.10    4.80
   2  -3 -19    1.00    2.40
  -2  -3  19    6.30    2.60
   2  -3 -19    5.40    3.00
  -2  -3  19   10.70    4.40
   2   3 -19    5.30    2.00
   2   3 -19    3.10    2.70
   2   3 -19    3.20    2.60
  -2   3  19   -3.20    2.90
   1  -3 -19  299.37   10.20
   1  -3 -19  275.67   11.10
   1  -3 -19  268.97   11.50
  -1  -3  19  290.47   10.40
  -1  -3  19  274.27   10.40
  -1  -3  19  236.18   11.50
  -1   3  19  280.47   12.00
   1   3 -19  279.57   10.20
  -1   3  19  272.37   10.60
  -1   3  19  267.67   10.70
   1   3 -19  265.97   10.00
   1   3 -19  274.77   10.30
   0  -3  19  401.46   14.90
   0  -3 -19  390.96   14.70
   0  -3  19  401.66   14.90
   0  -3 -19  389.56   14.50
   0  -3 -19  387.46   14.70
   0  -3  19  399.06   14.20
   0   3  19  403.16   14.70
   0   3 -19  400.26   14.20
   0   3  19  408.46   14.30
   0   3 -19  395.66   13.80
   0   3  19  387.06   15.00
   0   3 -19  393.56   14.70
   1  -3  19   76.79    7.40
   1  -3  19   66.49    4.80
  -1  -3 -19   61.09    5.40
  -1  -3 -19   61.19    5.90
   1   3  19   67.59    5.40
  -1   3 -19   63.49    4.00
   1   3  19   59.49    4.40
   1   3  19   58.39    5.40
  -1   3 -19   53.29    5.50
  -2  -3 -19   -9.10    4.50
  -2  -3 -19   -2.50    5.10
   2  -3  19   -3.40    6.30
  -2   3 -19    7.20    4.00
   2   3  19   -0.80    4.90
  -2   3 -19    1.90    4.70
   2   3  19    0.30    4.00
  -2   3 -19   -2.50    3.10
  -3  -3 -19    1.40    7.60
  -3  -3 -19    8.80    7.40
   3  -3  19   -4.80    9.60
  -3   3 -19   -0.90    6.10
   3   3  19   -1.60    6.90
   3  -4 -19  123.79    6.90
   3  -4 -19  134.39    8.90
   3   4 -19  125.09    8.10
  -3   4  19  121.59    8.60
   2  -4 -19  136.59    7.70
  -2  -4  19  107.79    7.70
   2  -4 -19  143.49    6.20
  -2   4  19  130.79    7.30
   2   4 -19  129.49    6.60
   1  -4 -19  201.98    8.90
  -1  -4  19  188.78    8.50
   1  -4 -19  216.18    8.10
  -1  -4  19  188.68    8.00
   1   4 -19  198.28    7.90
  -1   4  19  181.88   10.50
  -1   4  19  197.48    8.60
  -1   4  19  192.88    8.40
   1   4 -19  196.18   12.20
   0  -4  19   55.59    6.30
   0  -4  19   45.10    4.20
   0  -4 -19   57.39    5.20
   0  -4  19   47.60    6.30
   0   4 -19   49.80    4.80
   0   4 -19   49.80    2.90
   0   4  19   49.40    4.20
   0   4  19   43.90    6.20
   0   4  19   59.69    4.90
   0   4 -19   47.90    6.10
   1  -4  19  154.68    7.80
  -1  -4 -19  156.68   10.40
  -1  -4 -19  154.08    9.00
   1  -4  19  154.38   10.00
  -1   4 -19  151.48    8.40
   1   4  19  144.99    7.20
  -1   4 -19  155.58    9.00
   1   4  19  149.88    8.40
  -1   4 -19  140.49    7.60
   1   4  19  154.28    8.40
  -1   4 -19  153.18    6.60
  -2  -4 -19   39.10    6.50
  -2  -4 -19   43.00    7.30
   2  -4  19   50.29    9.50
  -2   4 -19   59.19    7.80
  -2   4 -19   43.30    5.50
   2   4  19   42.90    6.60
   2  -5 -19   81.89    7.60
   2   5 -19   71.49    5.90
  -2   5  19   82.59    6.70
   1  -5 -19   48.10    5.60
   1  -5 -19   48.50    5.40
  -1   5  19   54.19    8.40
  -1   5  19   46.00    5.50
   1   5 -19   50.99    4.20
  -1   5  19   54.39    4.90
   0  -5  19   -0.80    3.10
   0  -5 -19    2.90    3.70
   0  -5 -19    3.20    4.60
   0  -5  19    4.20    5.90
   0   5  19   10.20    5.50
   0   5  19   -1.60    3.20
   0   5 -19    1.80    2.50
   0   5 -19    1.80    6.20
   0   5  19    1.50    3.60
  -1  -5 -19    8.40    6.90
   1  -5  19   16.30    5.90
  -1  -5 -19   16.80    5.10
  -1   5 -19   17.80    4.70
   1   5  19    6.50    3.90
  -1   5 -19   14.40    3.80
   1   5  19   13.50    4.70
   1   5  19   12.80    5.00
  -2  -5 -19  468.95   21.00
  -2   5 -19  530.25   20.40
  -2   5 -19  474.75   19.10
   2   5  19  508.95   22.90
   1  -6 -19   45.10    8.20
   1  -6 -19   33.80    5.80
   1   6 -19   31.10    4.50
   0  -6 -19   30.00    8.00
   0  -6 -19   25.00    5.50
   0   6 -19   29.40    3.90
   0   6  19   22.50    4.80
   4   0 -20   45.60    6.80
   4   0 -20   50.59    7.50
  -4   0  20   65.09   10.00
  -3   0  20   -0.50    3.60
   3   0 -20    1.90    2.90
   3   0 -20   -4.60    5.50
   3   0 -20    2.80    3.30
  -2   0  20   76.09    4.70
   2   0 -20   74.69    4.40
   2   0 -20   76.29    6.10
   2   0 -20   73.79    4.50
   1   0 -20    2.80    2.30
  -1   0  20    4.80    2.90
   1   0 -20    4.00    1.90
   1   0 -20    1.80    1.70
  -1   0  20    4.30    2.20
  -1   0  20    1.10    2.70
   0   0 -20    3.60    1.80
   0   0 -20    7.70    2.10
   0   0 -20    2.50    1.80
   0   0  20    5.30    2.40
   0   0  20    7.20    2.60
   0   0  20    6.80    2.30
  -1   0 -20    2.00    3.70
   1   0  20    1.90    3.20
  -1   0 -20    2.80    2.20
  -1   0 -20   -0.50    2.60
   1   0  20    5.80    2.80
  -2   0 -20 1195.98   42.90
   2   0  20 1282.27   43.60
  -2   0 -20 1247.68   43.50
  -2   0 -20 1233.98   42.30
   3   0  20   -3.90    7.20
  -3   0 -20    5.30    6.50
  -3   0 -20   10.40    5.20
   3  -1 -20  148.89    7.60
   3  -1 -20  158.18   11.00
   3  -1 -20  147.89    7.20
  -3  -1  20  127.89    7.30
   3   1 -20  150.18    7.00
   3   1 -20  142.09    9.50
  -3   1  20  148.49   11.00
   3   1 -20  148.29    7.70
   2  -1 -20    5.40    2.40
   2  -1 -20   -1.00    3.70
   2  -1 -20    3.60    2.20
  -2  -1  20    4.30    2.40
  -2  -1  20    0.80    3.90
   2   1 -20    5.50    2.10
   2   1 -20    2.30    3.40
  -2   1  20    3.30    2.50
   2   1 -20    6.40    2.30
   1  -1 -20   71.49    5.00
   1  -1 -20   75.39    3.90
  -1  -1  20   75.79    4.90
   1  -1 -20   76.99    4.90
  -1  -1  20   78.89    4.30
  -1   1  20   72.19    4.30
   1   1 -20   67.29    4.70
   1   1 -20   71.19    4.30
   1   1 -20   77.89    4.10
  -1   1  20   71.29    4.80
  -1   1  20   72.49    5.40
   0  -1  20  156.68    6.80
   0  -1 -20  154.48    6.70
   0  -1  20  156.38    7.00
   0  -1 -20  160.88    6.50
   0  -1 -20  152.98    6.50
   0  -1  20  146.39    6.50
   0   1  20  149.39    6.70
   0   1 -20  149.39    6.70
   0   1 -20  151.38    6.20
   0   1  20  144.89    6.90
   0   1 -20  146.79    6.30
   0   1  20  148.79    6.50
   1  -1  20  872.21   29.70
  -1  -1 -20  853.11   30.20
  -1  -1 -20  851.51   29.80
   1   1  20  886.51   30.10
   1   1  20  852.51   29.60
  -1   1 -20  879.61   30.20
  -1   1 -20  868.01   30.50
   1   1  20  859.01   30.40
  -1   1 -20  897.41   29.70
  -2  -1 -20  173.28    9.10
  -2  -1 -20  171.78    9.20
  -2  -1 -20  180.28    9.60
   2   1  20  187.98   11.10
   2   1  20  184.48   10.00
  -2   1 -20  183.68   10.00
  -2   1 -20  170.68    8.90
  -2   1 -20  187.98    8.40
  -3  -1 -20   16.10    6.60
  -3  -1 -20   13.70    5.80
   3  -1  20   12.00    7.60
  -3   1 -20   14.00    6.30
   3   1  20   17.30    7.10
  -3  -2  20   90.69    5.80
   3  -2 -20   88.89    6.80
   3  -2 -20   99.79    5.70
  -3   2  20  101.39    7.00
   3   2 -20  102.79    6.30
   3   2 -20   89.59    5.30
   2  -2 -20   77.59    4.70
  -2  -2  20   71.19    6.70
  -2  -2  20   82.99    4.60
   2  -2 -20   81.79    7.00
   2  -2 -20   74.59    5.10
  -2   2  20   78.99    6.30
   2   2 -20   81.79    5.80
   2   2 -20   76.49    4.70
   1  -2 -20  187.68    8.60
  -1  -2  20  195.58    7.70
  -1  -2  20  177.88    7.90
   1  -2 -20  189.78    8.00
  -1  -2  20  193.88    8.80
   1  -2 -20  188.98    7.50
  -1   2  20  186.78    8.10
   1   2 -20  186.08    7.50
   1   2 -20  187.88    7.60
  -1   2  20  180.38    9.00
  -1   2  20  194.68    7.80
   1   2 -20  186.58    7.60
   0  -2 -20 1425.66   47.80
   0  -2 -20 1431.26   47.50
   0  -2  20 1423.06   47.30
   0  -2 -20 1377.16   47.60
   0  -2  20 1418.86   47.60
   0  -2  20 1406.26   47.70
   0   2  20 1428.96   47.30
   0   2  20 1416.46   47.80
   0   2 -20 1430.56   47.70
   0   2  20 1406.16   47.70
   0   2 -20 1380.26   47.60
   0   2 -20 1403.06   47.10
  -1  -2 -20  155.28    7.70
  -1  -2 -20  149.39    7.00
   1  -2  20  160.88    7.10
   1  -2  20  165.08    8.70
   1   2  20  159.88    7.50
   1   2  20  154.88    7.80
  -1   2 -20  151.18    8.10
  -1   2 -20  155.48    7.10
  -1   2 -20  147.89    6.80
   1   2  20  157.68    6.90
  -2  -2 -20   55.49    6.90
   2  -2  20   63.69    7.60
  -2  -2 -20   54.39    7.00
  -2  -2 -20   70.79    7.20
   2   2  20   62.79    6.00
   2   2  20   56.89    7.30
  -2   2 -20   61.79    7.00
  -2   2 -20   50.69    5.20
  -2   2 -20   61.29    5.80
   3  -2  20   38.30    8.80
  -3  -2 -20   44.50    7.40
  -3  -2 -20   27.80    7.80
  -3   2 -20   38.00    5.10
   3   2  20   41.50    7.90
  -3   2 -20   37.20    6.90
   3  -3 -20   18.80    3.60
   3  -3 -20   25.50    4.70
   3   3 -20   14.70    3.90
   3   3 -20   17.10    2.80
  -3   3  20   20.00    5.00
  -2  -3  20   99.19    5.50
   2  -3 -20  108.49    6.50
  -2  -3  20   98.99    7.40
  -2   3  20  114.19    6.30
   2   3 -20  102.69    4.90
   2   3 -20  107.99    5.70
   2   3 -20  109.49    5.80
  -1  -3  20   94.09    5.20
   1  -3 -20   92.99    5.40
   1  -3 -20   97.19    4.90
   1  -3 -20   81.39    6.30
  -1  -3  20   85.19    5.30
  -1   3  20   88.79    5.40
   1   3 -20   89.09    4.50
  -1   3  20   92.49    5.40
   1   3 -20   88.59    4.70
  -1   3  20   82.49    7.10
   1   3 -20   91.99    4.80
   0  -3  20   39.90    3.90
   0  -3  20   40.00    5.10
   0  -3  20   36.70    5.00
   0  -3 -20   44.00    4.20
   0  -3 -20   34.40    4.50
   0   3  20   36.80    3.80
   0   3  20   37.10    4.10
   0   3 -20   29.70    3.50
   0   3 -20   35.60    2.80
   0   3 -20   41.60    4.40
   0   3  20   42.70    5.30
   1  -3  20   24.60    5.60
   1  -3  20   17.60    3.60
  -1  -3 -20   17.50    3.80
  -1  -3 -20   19.20    4.40
   1   3  20   14.10    3.90
  -1   3 -20   14.30    2.60
  -1   3 -20   13.60    4.00
  -1   3 -20   18.10    3.10
   1   3  20   17.20    3.20
   1   3  20   17.10    3.70
  -2  -3 -20    2.20    5.50
   2  -3  20    3.20    6.80
  -2  -3 -20   -7.60    4.80
   2   3  20   -0.60    4.20
  -2   3 -20   -6.00    3.20
   2   3  20    3.40    5.30
  -2   3 -20  -10.40    4.70
  -2   3 -20    6.60    4.20
   3  -3  20   -3.10   10.20
  -3  -3 -20   -1.80    8.20
  -3  -3 -20   24.70    8.10
   3  -4 -20   10.80    5.30
   3  -4 -20   14.10    4.00
  -3   4  20    1.50    5.10
   3   4 -20   12.00    4.80
  -2  -4  20  156.58    9.40
   2  -4 -20  201.68    9.60
   2  -4 -20  199.58    8.20
  -2   4  20  203.78    9.40
   2   4 -20  198.08    8.60
  -1  -4  20   47.00    5.30
  -1  -4  20   50.79    4.60
   1  -4 -20   43.70    4.80
   1  -4 -20   55.79    4.30
  -1   4  20   48.30    6.50
  -1   4  20   36.10    4.80
   1   4 -20   48.60    3.70
  -1   4  20   48.20    4.80
   0  -4  20  160.48    9.40
   0  -4  20  163.38   12.10
   0  -4 -20  184.68    8.40
   0  -4  20  175.38    7.60
   0  -4 -20  169.98    8.40
   0   4 -20  178.28    7.40
   0   4 -20  177.98    6.80
   0   4  20  184.78    9.50
   0   4 -20  176.18    8.20
   0   4  20  182.98    8.40
   0   4  20  187.48    7.80
   0   4 -20  179.58   10.80
   1  -4  20  238.98   12.50
  -1  -4 -20  235.68   12.60
  -1  -4 -20  240.18   10.90
  -1  -4 -20  217.58   11.30
  -1   4 -20  221.48    9.70
   1   4  20  243.58   10.00
  -1   4 -20  246.08    9.30
   1   4  20  221.88   11.00
  -1   4 -20  245.18   11.00
   1   4  20  225.48   10.90
  -2  -4 -20   24.90    7.20
  -2  -4 -20   41.20    6.90
   2  -4  20   28.70    9.10
  -2   4 -20   37.00    5.70
   2   4  20   22.40    5.30
  -2   4 -20   37.90    6.30
   2  -5 -20   30.10    5.30
  -2   5  20   20.60    4.80
   2   5 -20   30.80    4.50
   1  -5 -20    3.90    4.00
   1  -5 -20    0.70    3.90
  -1   5  20    3.40    3.70
   1   5 -20    0.10    2.90
   0  -5 -20   96.19    7.10
   0  -5 -20   96.89    8.00
   0   5  20  106.79    7.10
   0   5 -20  109.19   10.50
   0   5  20  106.29    9.40
   0   5 -20  117.99    5.70
   0   5  20  100.09    6.10
  -1  -5 -20   70.79    8.80
  -1  -5 -20   75.59    8.00
   1   5  20   75.89   10.00
   1   5  20   73.59    7.40
  -1   5 -20   70.49    6.00
  -1   5 -20   92.49    7.80
   0  -6 -20    2.20    7.60
   0   6 -20    5.10    3.80
   3   0 -21   29.10    6.40
   3   0 -21   32.70    4.50
  -3   0  21   30.20    4.40
   3   0 -21   31.80    4.60
   2   0 -21   41.60    3.60
   2   0 -21   36.70    5.60
  -2   0  21   47.10    4.20
   1   0 -21  324.67   12.20
   1   0 -21  320.77   12.60
  -1   0  21  335.27   12.00
   1   0 -21  320.87   12.80
  -1   0  21  309.47   12.40
   0   0  21    1.00    2.60
   0   0 -21   -1.60    1.90
   0   0  21   -1.50    2.50
   0   0  21    2.50    2.50
  -1   0 -21   87.49    5.40
   1   0  21   92.89    6.20
   1   0  21   80.39    5.50
  -1   0 -21   91.39    5.00
  -1   0 -21   87.99    5.90
  -2   0 -21    2.40    4.30
  -2   0 -21    2.30    3.00
   2   0  21    0.50    4.90
  -2   0 -21    7.60    4.60
  -3   0 -21  639.84   25.20
   3   0  21  666.03   27.00
  -3   0 -21  665.13   26.60
   3  -1 -21  193.58   12.30
   3  -1 -21  188.78    8.90
  -3  -1  21  199.08    8.90
   3  -1 -21  189.98    8.60
   3   1 -21  189.18    8.40
   3   1 -21  184.18    8.70
  -3   1  21  179.28    9.10
   2  -1 -21    1.10    2.40
  -2  -1  21    0.10    2.50
   2  -1 -21    0.30    3.90
   2  -1 -21    4.00    2.30
  -2   1  21    1.80    2.80
   2   1 -21    3.30    2.20
   2   1 -21    3.30    3.60
   2   1 -21    1.50    2.30
  -1  -1  21   15.30    2.80
   1  -1 -21   20.60    3.00
   1  -1 -21   13.00    3.00
  -1  -1  21   21.30    3.30
  -1   1  21    8.00    3.40
   1   1 -21   17.60    2.40
   1   1 -21   15.50    2.60
  -1   1  21   15.80    3.30
  -1   1  21   17.50    2.80
   0  -1  21   70.59    4.50
   0  -1  21   77.79    5.00
   0  -1 -21   60.49    4.80
   0  -1 -21   76.29    4.40
   0  -1  21   72.49    4.70
   0   1  21   75.79    4.70
   0   1  21   67.49    4.90
   0   1  21   71.99    4.40
   0   1 -21   69.29    4.40
  -1  -1 -21  283.37   11.30
  -1  -1 -21  293.67   11.80
  -1  -1 -21  307.27   12.10
  -1   1 -21  300.07   11.20
   1   1  21  281.47   13.30
   1   1  21  287.77   11.40
   1   1  21  302.77   11.80
  -1   1 -21  309.17   11.70
  -1   1 -21  301.67   12.30
  -2  -1 -21  225.98   11.00
  -2  -1 -21  208.38   10.30
  -2  -1 -21  204.38   10.40
   2  -1  21  221.58   11.70
  -2   1 -21  217.58   10.30
   2   1  21  210.98   11.20
  -2   1 -21  209.58    9.50
  -2   1 -21  217.38   11.30
  -3  -1 -21  326.47   15.50
  -3  -1 -21  317.47   16.40
   3  -1  21  292.47   17.60
  -3   1 -21  314.47   16.00
  -3   1 -21  327.37   14.60
   3   1  21  339.87   16.70
   3  -2 -21  146.89    8.00
   3  -2 -21  133.29    7.10
   3   2 -21  134.79    6.70
   3   2 -21  146.79    7.40
  -3   2  21  135.29    8.10
  -2  -2  21   20.30    3.20
   2  -2 -21   18.50    4.70
   2  -2 -21   21.40    3.40
   2  -2 -21   21.20    2.90
   2   2 -21   18.90    3.10
  -2   2  21   24.50    3.50
   2   2 -21   22.80    3.10
   2   2 -21   13.70    3.80
  -1  -2  21   22.60    3.40
   1  -2 -21   17.90    3.60
  -1  -2  21   23.30    3.00
   1  -2 -21   18.50    2.80
   1  -2 -21   25.00    3.20
   1   2 -21   29.10    3.20
   1   2 -21   26.00    2.80
   1   2 -21   22.80    3.30
  -1   2  21   24.50    4.40
  -1   2  21   24.00    3.50
  -1   2  21   17.00    3.30
   0  -2 -21   84.79    5.10
   0  -2  21   87.79    5.60
   0  -2 -21   97.59    6.50
   0  -2  21   82.19    5.30
   0  -2 -21   81.69    5.10
   0  -2  21   77.69    4.90
   0   2  21   92.79    5.00
   0   2 -21   85.59    4.40
   0   2 -21   82.49    4.20
   0   2  21   86.69    5.70
   1  -2  21  412.66   16.50
  -1  -2 -21  412.76   15.90
  -1  -2 -21  397.26   15.20
  -1  -2 -21  415.76   15.90
   1   2  21  415.26   15.60
  -1   2 -21  425.16   15.00
   1   2  21  402.26   15.10
  -1   2 -21  412.66   15.20
   1   2  21  420.16   16.00
  -1   2 -21  407.46   16.10
  -2  -2 -21   -1.80    4.80
  -2  -2 -21   -4.90    4.60
   2  -2  21   -3.60    6.50
  -2  -2 -21    0.50    4.50
  -2   2 -21    9.00    3.40
  -2   2 -21    2.70    4.80
  -2   2 -21   -4.90    4.00
   2   2  21    3.70    5.20
   3  -2  21   11.10    9.00
  -3  -2 -21   -9.70    7.30
  -3  -2 -21   10.90    6.60
  -3   2 -21   13.40    6.70
   3   2  21    0.80    7.40
   3  -3 -21   -4.10    4.00
   3  -3 -21    4.50    3.60
  -3   3  21    2.00    4.80
   3   3 -21   -1.40    2.70
   3   3 -21   -1.70    3.60
  -2  -3  21   38.40    4.20
   2  -3 -21   50.09    4.10
   2  -3 -21   52.69    5.30
   2   3 -21   51.39    4.70
   2   3 -21   48.60    4.40
   2   3 -21   46.60    4.00
  -2   3  21   46.90    5.30
   1  -3 -21   34.30    4.30
   1  -3 -21   42.60    3.70
  -1  -3  21   35.40    4.60
  -1   3  21   37.00    4.50
  -1   3  21   20.90    5.10
   1   3 -21   40.20    3.70
   1   3 -21   38.60    3.50
   1   3 -21   34.90    3.40
  -1   3  21   33.20    4.30
   0  -3  21  303.67   12.30
   0  -3 -21  295.87   11.80
   0   3  21  295.77   11.80
   0   3 -21  296.17   11.10
   0   3 -21  291.47   11.80
   0   3  21  287.07   12.30
   0   3  21  300.37   11.40
   0   3 -21  303.27   10.80
  -1  -3 -21   25.40    4.40
  -1  -3 -21   26.50    4.70
   1  -3  21   22.40    5.80
  -1   3 -21   29.30    4.10
  -1   3 -21   25.30    4.60
   1   3  21   27.80    4.50
  -1   3 -21   24.60    3.60
   1   3  21   28.60    4.30
   2  -3  21   12.10    7.50
  -2  -3 -21   19.10    6.10
  -2  -3 -21   -0.20    5.10
   2   3  21    7.80    5.70
  -2   3 -21    9.00    4.60
  -2   3 -21    5.70    3.50
  -2   3 -21   14.40    5.40
   2  -4 -21   66.39    6.40
   2  -4 -21   59.09    5.30
  -2  -4  21   54.59    7.10
   2   4 -21   69.79    5.20
  -2   4  21   53.49    6.20
   1  -4 -21   13.10    3.30
   1  -4 -21   11.30    3.50
  -1  -4  21    9.60    3.60
  -1   4  21    3.60    3.70
   1   4 -21    7.30    2.50
  -1   4  21    7.10    3.50
   0  -4  21   10.90    6.20
   0  -4  21    2.90    3.80
   0  -4 -21    7.30    3.40
   0   4 -21    8.70    4.00
   0   4  21   14.50    3.40
   0   4  21    9.10    4.70
   0   4 -21    3.00    6.00
   0   4  21    7.90    3.60
   0   4 -21   11.00    2.50
   0   4 -21   10.90    2.00
   1  -4  21  119.49   10.10
  -1  -4 -21  102.29    8.50
  -1  -4 -21  108.79    7.70
  -1  -4 -21  111.89   10.00
   1   4  21  103.09    8.00
  -1   4 -21   98.09    6.20
  -1   4 -21   97.09    7.80
   1   4  21  102.19    7.60
  -2  -4 -21    9.60    7.40
  -2  -4 -21    6.00    6.30
   2  -4  21    8.80   10.40
  -2   4 -21    9.20    6.10
  -2   4 -21    6.70    5.10
   2  -5 -21  106.69    8.40
   2   5 -21   95.59    6.40
  -2   5  21   78.39    8.70
   1  -5 -21   20.90    4.50
   1  -5 -21   19.20    4.50
   1   5 -21   13.60    3.40
  -1   5  21   13.20    4.00
   0  -5 -21   17.70    6.20
   0  -5 -21    8.30    4.30
   0   5  21    8.70    4.10
   0   5 -21   18.40    3.30
   0   5  21   11.50    3.80
   0   5 -21   -4.20    6.90
  -1  -5 -21   31.10    6.20
  -1  -5 -21   33.30    7.60
   1   5  21   17.50    5.40
  -1   5 -21   24.30    4.70
  -1   5 -21   28.00    5.60
   3   0 -22   -2.20    3.10
  -3   0  22    8.30    4.00
   3   0 -22   -3.40    3.20
   2   0 -22 1417.16   47.80
  -2   0  22 1446.46   47.80
   2   0 -22 1432.66   47.90
   2   0 -22 1372.06   48.60
  -1   0  22   13.40    2.80
  -1   0  22   10.50    3.30
   1   0 -22   14.90    2.90
   0   0 -22   72.39    4.40
   0   0 -22   73.39    4.80
   0   0  22   78.99    5.20
   0   0 -22   79.99    4.30
  -1   0 -22    0.90    3.20
   1   0  22   -1.60    3.60
  -1   0 -22    4.40    2.40
   1   0  22    2.90    3.80
  -1   0 -22    3.90    2.90
  -2   0 -22   87.29    7.90
   2   0  22   75.19    8.10
  -2   0 -22   72.09    6.80
  -3   0 -22   -4.40    6.60
   3   0  22    9.00    8.30
  -3   0 -22    8.50    5.80
   3  -1 -22  187.18   12.70
   3  -1 -22  198.38    9.00
  -3  -1  22  192.38    9.30
   3  -1 -22  194.18    9.20
   3   1 -22  194.48    8.70
   3   1 -22  204.18    9.00
  -3   1  22  195.28    9.50
   2  -1 -22    6.40    4.40
   2  -1 -22    0.10    2.40
  -2  -1  22    5.30    2.80
   2  -1 -22    3.70    2.80
   2   1 -22    2.10    2.30
  -2   1  22    0.00    2.80
   2   1 -22    3.10    3.90
   2   1 -22    0.40    2.30
   1  -1 -22   47.60    4.00
   1  -1 -22   47.40    4.70
  -1  -1  22   50.09    4.20
  -1  -1  22   40.10    4.70
   1  -1 -22   49.40    3.50
  -1   1  22   45.70    4.80
  -1   1  22   53.99    4.20
   1   1 -22   44.00    3.50
   1   1 -22   46.30    4.10
   1   1 -22   54.39    3.80
   0  -1 -22  196.78    8.10
   0  -1  22  168.48    8.00
   0  -1 -22  191.68    8.30
   0  -1  22  214.08    8.70
   0  -1 -22  197.18    8.00
   0   1  22  192.08    8.10
   0   1  22  193.98    8.30
   0   1 -22  192.38    7.80
   0   1  22  192.18    8.50
   0   1 -22  197.28    8.40
   0   1 -22  190.98    7.80
  -1  -1 -22    7.60    3.40
  -1  -1 -22    6.00    3.40
  -1  -1 -22    4.10    2.50
  -1   1 -22    6.20    2.50
   1   1  22    2.30    3.40
  -1   1 -22    9.30    3.00
  -1   1 -22    0.00    3.30
   1   1  22    6.80    3.60
   2  -1  22  288.17   13.70
  -2  -1 -22  248.68   12.10
  -2  -1 -22  272.77   13.00
   2   1  22  260.17   13.10
  -2   1 -22  263.77   12.30
  -2   1 -22  289.17   13.30
  -2   1 -22  267.47   11.40
   3  -1  22    7.30    8.90
  -3  -1 -22   14.30    6.30
  -3  -1 -22   16.40    7.30
   3   1  22   19.20    7.80
  -3   1 -22   11.60    5.70
  -3   1 -22   14.30    7.10
   3  -2 -22    5.10    3.70
   3  -2 -22    1.90    3.90
   3   2 -22   13.70    3.70
  -3   2  22    6.10    4.70
   3   2 -22   11.60    3.10
   2  -2 -22    1.60    3.00
  -2  -2  22    3.70    3.00
   2  -2 -22    6.30    4.90
   2  -2 -22    0.50    2.50
   2   2 -22    1.50    2.40
   2   2 -22    6.60    2.80
  -2   2  22    3.80    3.30
   2   2 -22   -1.00    3.70
  -1  -2  22   10.20    2.90
   1  -2 -22    7.70    2.40
  -1  -2  22    1.40    3.30
   1  -2 -22    3.50    2.50
   1  -2 -22   11.20    3.60
  -1   2  22    9.80    6.70
  -1   2  22    6.40    3.40
   1   2 -22   10.70    2.50
   1   2 -22    8.30    2.60
   1   2 -22    8.70    2.40
  -1   2  22    7.50    2.80
   0  -2 -22   12.30    2.80
   0  -2  22   16.40    3.70
   0  -2 -22   10.90    2.90
   0  -2 -22   10.50    2.90
   0   2  22   10.80    3.10
   0   2  22   12.00    3.70
   0   2  22   13.90    3.10
   0   2 -22    9.80    2.20
   0   2 -22    9.90    2.90
   0   2 -22   12.30    2.40
   1  -2  22  130.49    8.50
  -1  -2 -22  129.29    7.50
  -1  -2 -22  129.29    7.30
  -1   2 -22  134.39    6.20
   1   2  22  122.59    7.50
   1   2  22  118.59    7.20
  -1   2 -22  120.69    7.90
  -1   2 -22  122.29    6.50
  -2  -2 -22   24.70    5.60
  -2  -2 -22   25.50    5.60
   2  -2  22   10.40    9.50
  -2  -2 -22   10.30    5.30
  -2   2 -22   21.00    5.50
   2   2  22   19.10    5.80
  -2   2 -22   18.90    3.90
  -2   2 -22   15.90    4.90
  -3  -2 -22    9.60    7.30
  -3  -2 -22   -6.90    7.70
   3  -2  22   17.20    9.60
   3  -3 -22   23.90    4.90
   3  -3 -22   15.30    4.10
  -3   3  22   24.70    5.50
   3   3 -22   22.20    3.20
   3   3 -22   15.00    4.20
   2  -3 -22  106.39    5.80
   2  -3 -22   95.29    6.80
   2   3 -22  106.09    6.00
  -2   3  22  116.59    6.70
   2   3 -22   93.59    5.70
   1  -3 -22   55.79    4.30
  -1  -3  22   52.59    4.70
   1  -3 -22   56.19    4.90
   1   3 -22   58.99    4.10
  -1   3  22   59.29    4.90
  -1   3  22   57.49    5.40
   1   3 -22   58.29    4.10
   0  -3 -22   67.69    5.10
   0  -3  22   52.99    6.20
   0  -3 -22   54.19    5.10
   0   3  22   64.99    5.30
   0   3 -22   54.79    5.20
   0   3 -22   59.29    4.00
   0   3  22   54.79    6.40
   0   3 -22   57.89    3.70
   0   3  22   53.99    4.60
   1  -3  22   61.39    8.40
  -1  -3 -22   57.49    6.30
  -1  -3 -22   50.89    6.50
   1   3  22   49.10    6.20
  -1   3 -22   47.20    4.20
  -1   3 -22   51.99    4.90
  -1   3 -22   54.19    6.50
   1   3  22   56.99    7.70
   2  -3  22   40.90    8.60
  -2  -3 -22   44.50    6.90
  -2  -3 -22   32.80    6.50
   2   3  22   34.40    6.60
  -2   3 -22   39.70    6.30
  -2   3 -22   42.60    5.60
   2  -4 -22   45.50    6.50
   2  -4 -22   35.10    4.80
   2   4 -22   39.70    4.90
  -2   4  22   36.20    5.10
   1  -4 -22    8.60    3.60
   1  -4 -22    9.90    3.80
  -1  -4  22   12.50    3.80
   1   4 -22   10.30    2.80
  -1   4  22   10.70    4.10
  -1   4  22   11.30    3.70
   0  -4 -22   38.60    5.70
   0  -4  22   37.30    6.50
   0  -4 -22   34.40    5.20
   0   4 -22   34.50    3.70
   0   4  22   33.30    4.80
   0   4  22   35.60    5.30
   0   4 -22   39.60    5.40
   0   4 -22   27.40    6.60
  -1  -4 -22  136.19    8.80
  -1  -4 -22  116.39    9.30
  -1  -4 -22  139.29   10.60
   1  -4  22  138.19   11.90
   1   4  22  126.49    8.60
  -1   4 -22  132.19    7.30
  -1   4 -22  135.49    8.80
  -2  -4 -22    1.10    6.90
  -2  -4 -22    5.00    7.70
  -2   4 -22   14.50    5.70
  -2   4 -22    3.40    6.40
   1  -5 -22  214.98   10.70
  -1   5  22  209.08   10.30
   1   5 -22  208.18    9.20
   0  -5 -22   31.50    6.20
   0  -5 -22   32.00    5.40
   0   5  22   18.40    4.70
   0   5 -22   17.50    3.50
  -1  -5 -22    2.10    7.60
  -1  -5 -22   -2.20    5.80
  -1   5 -22    4.20    4.60
  -1   5 -22   -2.90    5.40
   1   5  22   -6.60    5.90
  -3   0  23   48.20    6.00
   3   0 -23   54.69    5.20
   3   0 -23   46.50    5.10
  -2   0  23    6.80    3.00
   2   0 -23    9.40    2.80
   2   0 -23   -2.10    4.10
   1   0 -23  176.28    7.60
   1   0 -23  174.98    8.00
  -1   0  23  167.58    7.70
   1   0 -23  172.48    7.30
   0   0 -23    2.20    2.30
   0   0 -23    3.20    2.30
   0   0  23    1.60    3.00
   0   0 -23   -2.20    2.60
  -1   0 -23  269.87   11.60
  -1   0 -23  266.07   10.60
   1   0  23  265.07   11.80
  -1   0 -23  265.97   11.00
  -2   0 -23    4.80    5.20
  -2   0 -23    1.70    4.90
   2   0  23    4.00    5.60
  -3   0 -23  289.27   16.80
  -3   0 -23  317.17   15.10
   3   0  23  324.67   17.50
   3  -1 -23    9.70    3.70
  -3  -1  23    4.50    4.20
   3  -1 -23   12.30    7.20
   3  -1 -23    5.20    3.80
   3   1 -23    1.90    3.40
   3   1 -23    4.70    3.30
  -3   1  23    5.50    4.60
   2  -1 -23   14.30    3.10
  -2  -1  23   17.50    3.30
   2  -1 -23    9.50    4.80
   2  -1 -23   12.40    2.80
   2   1 -23   13.80    2.90
   2   1 -23   16.00    4.30
   2   1 -23   15.90    2.90
  -2   1  23   11.20    3.30
   1  -1 -23  261.47    9.90
  -1  -1  23  274.27   10.30
   1  -1 -23  247.28   10.70
   1  -1 -23  263.27   10.30
   1   1 -23  256.57   10.30
   1   1 -23  266.47   10.10
   1   1 -23  251.47    9.90
  -1   1  23  242.08   10.70
  -1   1  23  252.67   10.30
   0  -1 -23   57.19    4.20
   0  -1 -23   61.49    4.70
   0  -1  23   58.89    5.30
   0  -1 -23   58.39    4.40
   0   1  23   54.79    5.30
   0   1 -23   59.19    3.90
   0   1  23   52.99    4.60
   0   1 -23   50.09    3.90
   0   1 -23   57.09    4.80
   0   1  23   59.29    4.80
  -1  -1 -23   63.99    4.90
  -1  -1 -23   64.49    6.00
  -1  -1 -23   66.99    5.50
  -1   1 -23   66.19    4.70
   1   1  23   67.29    6.10
  -1   1 -23   51.39    5.90
  -1   1 -23   65.69    5.20
   2  -1  23   89.59    9.50
  -2  -1 -23  102.49    8.50
  -2  -1 -23   94.59    7.70
   2   1  23   90.89    8.90
  -2   1 -23   97.79    7.80
  -2   1 -23   86.29    8.90
  -2   1 -23   97.39    6.50
  -3  -1 -23   14.20    6.70
   3  -1  23   -5.30    8.90
  -3  -1 -23   -1.70    7.40
   3   1  23   -7.00    8.20
  -3   1 -23    4.40    5.70
   3  -2 -23    9.10    4.20
   3  -2 -23    9.10    4.00
   3   2 -23    0.70    3.50
   3   2 -23    9.40    3.40
  -3   2  23    9.60    4.90
   2  -2 -23   -5.30    2.70
   2  -2 -23    4.20    3.30
   2  -2 -23    9.90    5.10
  -2  -2  23   -1.20    3.30
   2   2 -23   -1.60    2.40
  -2   2  23   -5.50    3.30
   2   2 -23   -1.10    3.90
   2   2 -23    0.60    2.90
   1  -2 -23   25.90    3.40
  -1  -2  23   23.20    3.60
   1  -2 -23   21.30    4.10
   1  -2 -23   28.40    3.50
  -1   2  23   19.30    3.30
   1   2 -23   23.90    3.20
   1   2 -23   26.80    3.70
  -1   2  23   14.60    4.00
   1   2 -23   25.40    3.40
   0  -2 -23   16.20    3.20
   0  -2  23   15.50    4.10
   0  -2 -23   15.10    3.20
   0  -2 -23    9.10    3.20
   0   2 -23   11.20    3.40
   0   2 -23   12.00    2.50
   0   2  23    9.20    3.20
   0   2 -23   12.50    2.40
   0   2  23   11.30    3.40
   1  -2  23   60.09    7.30
  -1  -2 -23   52.19    5.90
  -1  -2 -23   49.70    6.10
  -1   2 -23   48.40    6.30
  -1   2 -23   48.60    4.30
  -1   2 -23   49.50    4.90
   1   2  23   46.30    5.90
  -2  -2 -23    0.70    5.20
  -2  -2 -23   -3.20    5.30
  -2  -2 -23   -9.60    5.50
   2  -2  23   13.00    7.50
   2   2  23   -4.10    5.70
  -2   2 -23    5.60    4.80
  -2   2 -23   -0.40    3.70
  -2   2 -23    1.00    5.30
   3  -3 -23   15.00    4.40
   3  -3 -23   20.70    8.00
  -3   3  23   18.70    5.30
   3   3 -23   20.30    3.40
   2  -3 -23   55.39    5.90
   2  -3 -23   48.40    4.70
   2   3 -23   47.60    4.40
  -2   3  23   58.39    5.90
   2   3 -23   45.00    4.80
   1  -3 -23   -4.20    2.80
  -1  -3  23   -2.50    3.40
   1  -3 -23    1.10    3.10
   1   3 -23    0.70    2.80
   1   3 -23   -0.80    2.50
   1   3 -23    1.10    2.50
  -1   3  23    4.90    4.00
  -1   3  23    3.10    3.30
   0  -3  23  106.79    7.80
   0  -3 -23  105.99    6.50
   0  -3 -23  107.29    6.50
   0   3  23  104.89    6.60
   0   3  23  105.19    6.90
   0   3 -23  102.89    5.10
   0   3 -23  101.09    6.70
   0   3 -23  100.49    5.40
  -1  -3 -23  149.88    9.30
   1  -3  23  152.88   11.00
  -1  -3 -23  156.28    9.10
   1   3  23  155.28    9.10
  -1   3 -23  154.28    9.20
  -1   3 -23  165.48    8.00
  -2  -3 -23   47.60    7.40
  -2  -3 -23   38.40    7.00
  -2   3 -23   40.90    6.10
  -2   3 -23   45.10    6.70
   2   3  23   36.00    7.20
   2  -4 -23   91.29    7.40
   2  -4 -23   88.19    6.20
   2   4 -23   91.59    6.30
  -2   4  23   78.89    7.00
   1  -4 -23    3.30    3.70
   1  -4 -23    0.50    3.60
  -1   4  23    1.50    4.30
   1   4 -23    3.20    3.20
   1   4 -23    3.20    3.00
  -1   4  23    8.20    4.10
   0  -4 -23  331.17   13.50
   0  -4 -23  324.07   13.70
   0   4  23  321.27   13.50
   0   4 -23  343.07   12.60
   0   4 -23  310.57   13.20
   0   4 -23  325.67   16.00
  -1  -4 -23   72.09    9.00
  -1  -4 -23   97.59    9.80
  -1  -4 -23   82.79    8.20
  -1   4 -23   79.99    6.30
  -1   4 -23   78.19    7.90
   1   4  23   92.39    7.90
   1  -5 -23   25.50    5.40
   1  -5 -23   34.60    5.40
  -1   5  23   19.80    5.20
   1   5 -23   28.50    4.10
   0  -5 -23   90.39    9.20
   0  -5 -23   87.29    8.20
   0   5 -23   79.59    5.70
   0   5 -23   70.39    6.00
   0   5  23   76.89    7.10
   3   0 -24   -0.50    3.50
  -3   0  24   -5.50    4.50
   3   0 -24   -1.40    3.40
   2   0 -24   38.30    4.30
  -2   0  24   32.10    4.70
   2   0 -24   25.10    5.10
   2   0 -24   34.80    4.30
   1   0 -24    0.50    2.60
  -1   0  24    4.10    3.10
   1   0 -24    1.90    2.50
   1   0 -24   -2.40    3.10
   0   0 -24   72.99    5.40
   0   0 -24   84.79    5.00
   0   0  24   83.39    5.80
   0   0 -24   77.69    4.80
  -1   0 -24    6.00    2.80
  -1   0 -24    3.20    3.70
  -1   0 -24    3.80    3.40
   1   0  24   -3.80    5.30
   2   0  24   39.20    6.80
  -2   0 -24   45.90    6.50
  -2   0 -24   47.60    6.20
   3  -1 -24    9.20    4.00
   3  -1 -24   15.80    4.20
   3   1 -24   14.00    3.80
   3   1 -24   11.60    3.60
  -3   1  24   15.20    4.90
   2  -1 -24   67.29    5.30
   2  -1 -24   63.29    7.50
  -2  -1  24   67.49    5.70
   2  -1 -24   61.29    4.90
   2   1 -24   75.69    5.00
   2   1 -24   63.79    8.00
   2   1 -24   70.09    5.00
   1  -1 -24   33.30    4.20
   1  -1 -24   34.90    3.60
  -1  -1  24   41.50    4.60
   1  -1 -24   23.70    4.00
   1   1 -24   26.30    4.00
   1   1 -24   32.30    3.60
  -1   1  24   31.60    4.20
   0  -1 -24  209.28    9.50
   0  -1  24  234.88   10.00
   0  -1 -24  209.88    9.20
   0  -1 -24  227.58    9.20
   0   1 -24  216.48    8.90
   0   1 -24  228.88    9.70
   0   1 -24  224.48    9.00
  -1  -1 -24   22.70    4.10
  -1  -1 -24   19.80    4.30
  -1  -1 -24   18.60    3.30
  -1   1 -24   21.00    4.40
  -1   1 -24   14.30    3.10
  -1   1 -24   20.10    4.00
   1   1  24   17.50    4.50
  -2  -1 -24   12.70    5.50
  -2  -1 -24   15.10    5.30
   2  -1  24   -2.80    6.80
  -2   1 -24   12.30    5.30
  -2   1 -24   12.00    5.60
  -2   1 -24   15.00    6.00
   2   1  24   17.40    6.70
   3  -2 -24    3.40    4.00
   3  -2 -24    1.90    4.20
   3   2 -24    3.80    3.80
  -3   2  24    1.70    5.20
   3   2 -24    1.30    3.40
   2  -2 -24   52.39    4.60
  -2  -2  24   54.29    5.30
   2  -2 -24   39.70    5.10
   2   2 -24   47.50    4.60
   2   2 -24   43.30    4.50
  -2   2  24   45.10    5.30
  -1  -2  24   15.40    3.90
   1  -2 -24   12.30    2.90
   1  -2 -24   16.50    3.40
   1  -2 -24   13.30    4.00
  -1   2  24   18.00    3.70
   1   2 -24   20.80    3.10
   1   2 -24   15.50    3.10
   1   2 -24   16.30    3.10
   0  -2 -24    3.90    3.70
   0  -2  24    5.40    4.20
   0  -2 -24    4.70    3.20
   0  -2 -24    9.20    3.30
   0   2 -24    6.60    2.40
   0   2 -24    5.40    2.60
   0   2  24    1.80    3.30
   0   2 -24    4.40    3.50
  -1  -2 -24   -4.60    4.10
  -1  -2 -24    1.30    4.20
   1  -2  24   11.70    5.80
  -1   2 -24    4.60    3.50
  -1   2 -24    1.80    2.80
  -1   2 -24    1.40    4.50
   1   2  24   -3.70    4.20
  -2  -2 -24   81.59    9.10
  -2  -2 -24  104.49    9.70
   2  -2  24  125.59   11.90
  -2  -2 -24  118.09   10.00
  -2   2 -24  114.59    8.70
  -2   2 -24  106.79    9.40
  -2   2 -24  119.99    7.10
   2   2  24   97.89    9.80
   2  -3 -24   69.39    5.30
   2  -3 -24   59.09    6.20
  -2   3  24   76.89    6.40
   2   3 -24   62.49    5.30
   2   3 -24   65.99    5.00
   1  -3 -24   14.90    3.70
   1  -3 -24   14.00    3.30
  -1  -3  24   12.20    3.90
   1   3 -24   17.00    3.40
  -1   3  24   15.40    3.90
   1   3 -24    9.90    3.00
   0  -3 -24   22.30    4.20
   0  -3  24   22.10    5.60
   0  -3 -24   23.20    4.20
   0   3  24   19.00    4.00
   0   3 -24   17.40    2.60
   0   3 -24   16.80    3.20
   0   3 -24   14.60    4.10
  -1  -3 -24  258.37   12.70
   1  -3  24  278.27   14.40
  -1  -3 -24  286.87   12.70
  -1   3 -24  263.27   12.70
  -1   3 -24  269.27   11.60
   1   3  24  270.67   12.70
  -2  -3 -24   36.30    7.60
  -2  -3 -24   46.40    7.60
  -2  -3 -24   40.70    7.60
  -2   3 -24   33.80    6.80
   2   3  24   40.20    7.70
  -2   3 -24   36.30    6.30
   2  -4 -24   29.50    4.60
   2  -4 -24   27.10    5.30
   2   4 -24   18.30    4.20
  -2   4  24   10.90    4.90
   1  -4 -24   -2.40    4.00
   1  -4 -24   -2.70    3.90
  -1   4  24   -1.00    4.00
   1   4 -24    3.70    3.20
   0  -4 -24   13.80    4.80
   0  -4 -24   10.10    4.40
   0   4 -24   19.00    3.40
   0   4 -24    7.30    4.50
   0   4  24   12.90    4.40
  -1  -4 -24   67.49    8.50
  -1  -4 -24   68.89    9.50
  -1  -4 -24   73.99   10.20
  -1   4 -24   71.99    8.20
   1   4  24   98.49    8.40
  -1   4 -24   72.69    6.50
   0  -5 -24  103.29    9.80
   0  -5 -24   92.19    8.40
   0   5 -24  103.89    7.50
   0   5 -24   91.59    6.50
   3   0 -25   11.40    4.00
  -3   0  25   30.90    8.60
   3   0 -25   15.30    3.90
   2   0 -25   -4.10    4.80
   2   0 -25    0.00    2.90
   2   0 -25   -2.90    3.00
  -2   0  25    1.20    3.60
   1   0 -25   14.70    3.70
  -1   0  25    9.20    3.50
   1   0 -25   14.80    3.20
   1   0 -25    4.90    2.80
   0   0  25   -6.10    3.40
   0   0 -25    2.50    2.80
   0   0 -25    1.70    2.80
   0   0 -25    1.30    3.20
  -1   0 -25    4.10    3.10
  -1   0 -25    2.50    4.00
   1   0  25    8.60    4.90
  -1   0 -25    7.30    3.70
  -2   0 -25    5.50    5.10
  -2   0 -25   11.50    5.80
   2   0  25  -10.50    6.50
   3  -1 -25   10.90    4.20
   3  -1 -25   -0.30    4.00
   3   1 -25   10.50    3.80
   3   1 -25    6.10    4.00
  -3   1  25   15.90    5.40
   2  -1 -25  163.68   10.60
   2  -1 -25  193.98    8.70
  -2  -1  25  181.88    8.80
   2  -1 -25  176.98    8.20
   2   1 -25  180.78    8.30
   2   1 -25  185.08    8.40
  -2   1  25  180.18    8.60
   2   1 -25  207.08   12.70
   1  -1 -25   15.10    3.80
  -1  -1  25   14.50    3.80
   1  -1 -25   14.50    3.20
   1  -1 -25   14.40    3.10
   1   1 -25   14.40    3.20
   1   1 -25   10.40    2.90
   1   1 -25    6.20    3.40
   0  -1 -25   16.50    3.30
   0  -1 -25   11.00    3.50
   0  -1  25   14.00    4.20
   0  -1 -25   15.60    3.40
   0   1 -25   13.60    2.80
   0   1  25   19.10    3.90
   0   1 -25   17.80    3.70
   0   1 -25   26.60    3.60
   1  -1  25   19.90    5.60
  -1  -1 -25   16.40    4.50
  -1  -1 -25   16.40    4.50
  -1   1 -25    6.80    3.10
  -1   1 -25   21.90    4.60
   1   1  25   11.60    4.70
  -1   1 -25   14.60    4.00
  -2  -1 -25   61.09    7.80
   2  -1  25   69.39    8.60
  -2  -1 -25   71.49    8.80
  -2   1 -25   52.59    7.30
   2   1  25   65.49    9.50
  -2   1 -25   56.69    8.90
   3  -2 -25   -3.70    4.00
   3   2 -25   -0.60    3.70
   2  -2 -25  153.38    8.20
   2  -2 -25  160.78    7.70
   2   2 -25  164.98    7.70
   2   2 -25  152.28    7.50
  -2   2  25  158.48    8.20
  -1  -2  25  250.17   11.20
   1  -2 -25  266.07   11.10
   1  -2 -25  270.77   10.50
   1   2 -25  261.77   10.80
  -1   2  25  256.77   11.00
   1   2 -25  259.47   10.50
   1   2 -25  267.27   10.70
   0  -2 -25    6.50    3.50
   0  -2 -25    0.80    3.60
   0  -2  25   -3.20    4.60
   0   2  25   -0.30    3.70
   0   2 -25   -0.80    3.70
   0   2 -25    3.60    4.00
   0   2 -25    5.80    2.80
  -1  -2 -25  342.07   14.40
   1  -2  25  335.27   15.10
  -1  -2 -25  314.17   13.80
  -1   2 -25  313.77   12.60
  -1   2 -25  333.47   14.40
  -1   2 -25  324.67   13.30
   1   2  25  325.07   14.20
  -2  -2 -25  176.28   11.50
  -2  -2 -25  180.38   11.90
  -2  -2 -25  207.78   12.00
   2  -2  25  204.48   14.20
  -2   2 -25  181.28   12.00
   2   2  25  180.28   12.10
  -2   2 -25  192.38   10.90
   2  -3 -25   14.00    3.90
   2  -3 -25   12.10    4.20
   2   3 -25   14.80    3.70
   2   3 -25    9.00    3.70
  -2   3  25   12.50    4.70
   1  -3 -25   62.69    6.20
   1  -3 -25   80.49    5.60
   1   3 -25   65.69    5.50
   1   3 -25   65.49    5.10
  -1   3  25   62.39    6.10
   0  -3  25   19.50    6.10
   0  -3 -25   18.30    4.40
   0  -3 -25   16.90    4.30
   0   3  25   26.50    4.60
   0   3 -25   20.80    3.50
   0   3 -25   14.20    4.40
   1  -3  25   46.10    8.60
  -1  -3 -25   55.49    7.90
  -1  -3 -25   57.89    7.60
  -1   3 -25   46.30    5.80
  -1   3 -25   54.79    7.70
   1   3  25   37.60    5.90
   2  -3  25  476.05   23.30
  -2  -3 -25  449.46   25.50
  -2  -3 -25  415.96   20.20
  -2  -3 -25  475.15   20.40
  -2   3 -25  467.25   19.40
  -2   3 -25  531.15   25.20
   1  -4 -25   -5.50    4.30
   1  -4 -25    3.40    4.40
  -1   4  25    3.60    4.50
   1   4 -25    0.30    3.50
   1   4 -25   -1.10    3.90
   0  -4 -25   27.50    5.50
   0  -4 -25   30.00    5.60
   0   4 -25   27.00    5.10
   0   4 -25   28.10    4.00
   0   4  25   31.60    5.10
  -1  -4 -25   95.09   10.10
  -1  -4 -25   99.19   11.10
  -1  -4 -25   69.89    9.10
  -1   4 -25   97.09    7.20
  -1   4 -25   94.49    9.00
   1   4  25   88.59    8.90
   3   0 -26    5.10    4.50
   3   0 -26   -0.20    4.20
  -3   0  26   -6.00    6.40
   2   0 -26    9.80    3.50
   2   0 -26    6.50    5.20
  -2   0  26    3.70    4.10
   2   0 -26    8.30    3.50
   1   0 -26    5.10    2.90
   1   0 -26    1.40    3.80
  -1   0  26    1.50    3.70
   0   0 -26   78.79    6.20
   0   0 -26   80.89    5.70
   0   0  26   83.69    6.60
   0   0 -26   82.39    5.30
   1   0  26    8.30    5.20
  -1   0 -26   -2.90    3.90
  -1   0 -26    0.50    4.30
  -1   0 -26   -2.90    3.20
   2   0  26   30.60    8.00
  -2   0 -26   27.40    6.10
  -2   0 -26   47.20    6.90
   3  -1 -26   11.20    4.40
   3   1 -26   11.50    4.00
   2  -1 -26    7.30    3.50
  -2  -1  26    2.70    4.20
   2  -1 -26    2.40    5.50
   2  -1 -26    9.70    3.40
   2   1 -26    3.10    3.20
   2   1 -26    1.40    3.40
  -2   1  26    5.30    4.00
   1  -1 -26   56.49    6.20
   1  -1 -26   60.89    4.80
  -1  -1  26   65.49    5.90
   1  -1 -26   57.99    5.30
   1   1 -26   66.39    5.40
   1   1 -26   58.39    4.60
  -1   1  26   64.09    5.60
   1   1 -26   51.99    5.60
   0  -1 -26   -4.00    3.40
   0  -1 -26    8.30    3.50
   0  -1  26    3.40    4.40
   0  -1 -26   -4.70    3.10
   0   1  26    0.90    3.80
   0   1 -26   -1.50    2.80
   0   1 -26    3.90    3.70
   0   1 -26    2.50    3.00
  -1  -1 -26    3.70    4.70
   1  -1  26    3.50    7.70
  -1  -1 -26    3.50    4.30
  -1   1 -26   11.60    4.70
   1   1  26    5.20    5.00
  -1   1 -26   14.30    4.30
  -1   1 -26    4.30    3.30
   2  -1  26   -1.60    8.00
  -2  -1 -26    4.00    5.90
  -2  -1 -26    3.50    6.00
   2   1  26   -0.90    7.10
  -2   1 -26    0.00    5.70
  -2   1 -26   -4.00    6.10
   2  -2 -26   24.90    4.10
   2  -2 -26   24.90    4.30
   2   2 -26   36.10    4.70
  -2   2  26   23.70    4.80
   2   2 -26   23.30    3.70
  -1  -2  26   24.50    4.90
   1  -2 -26   32.80    4.50
   1  -2 -26   26.90    4.20
   1   2 -26   28.60    4.10
   1   2 -26   28.30    4.20
  -1   2  26   33.80    5.20
   0  -2  26    5.50    5.20
   0  -2 -26    5.40    3.90
   0  -2 -26    2.40    3.80
   0   2  26   -1.10    4.10
   0   2 -26    4.20    3.00
   0   2 -26    3.20    2.90
   0   2 -26    4.30    4.10
  -1  -2 -26   74.99    7.50
  -1  -2 -26   85.99    8.00
   1  -2  26   77.39    9.60
  -1   2 -26   87.39    8.40
   1   2  26   87.49    8.30
  -1   2 -26   94.29    7.30
  -1   2 -26   88.09    6.70
  -2  -2 -26   10.00    6.70
   2  -2  26   -7.20    9.30
  -2  -2 -26    9.20    6.60
  -2  -2 -26    2.60    6.60
  -2   2 -26   -6.60    6.50
   2   2  26   11.80    7.30
  -2   2 -26   16.10    6.20
   2  -3 -26    1.10    4.30
   2  -3 -26    6.80    4.10
   2   3 -26    5.40    3.80
   2   3 -26   -1.10    3.70
  -2   3  26    0.50    4.50
   1  -3 -26   44.70    5.50
   1  -3 -26   41.80    6.10
   1   3 -26   55.49    5.40
   1   3 -26   37.30    4.70
  -1   3  26   45.00    6.20
   0  -3 -26   21.60    4.80
   0  -3 -26   16.60    4.80
   0   3 -26   15.90    4.90
   0   3  26   16.10    4.90
   0   3 -26   23.90    3.80
  -1  -3 -26   26.20    6.60
   1  -3  26   22.70   11.60
  -1  -3 -26   19.20    6.00
   1   3  26   21.20    5.90
  -1   3 -26   23.90    4.70
  -1   3 -26   26.60    6.00
   1  -4 -26   10.60    4.70
   1  -4 -26   -2.30    4.90
   1   4 -26    1.20    4.30
   1   4 -26    3.40    3.50
  -1   4  26   -0.50    4.80
   0  -4 -26   24.50    5.50
   0  -4 -26   26.90    6.00
   0   4  26   26.70    5.60
   0   4 -26   28.90    4.30
   0   4 -26   26.50    5.50
   2   0 -27    3.50    3.40
   2   0 -27    0.00    3.50
  -2   0  27    0.50    5.00
   1   0 -27  189.68    8.40
   1   0 -27  177.88    9.30
  -1   0  27  198.28    9.30
   1   0 -27  192.08    9.00
   0   0 -27    5.60    3.40
   0   0 -27   -0.60    3.20
   0   0  27   -0.60    5.00
   0   0 -27   -0.80    3.80
  -1   0 -27   13.80    4.50
   1   0  27   15.70    5.90
  -1   0 -27    1.50    4.60
  -2   0 -27    8.20    6.60
   2   0  27    2.20    7.80
  -2   0 -27   -4.80    6.00
   2  -1 -27   28.20    4.30
   2  -1 -27   26.70    6.50
   2  -1 -27   41.90    5.00
  -2  -1  27   38.50    5.40
  -2   1  27   31.70    5.20
   2   1 -27   36.30    4.90
   2   1 -27   32.70    4.40
  -1  -1  27   96.49    6.90
   1  -1 -27   94.49    6.40
   1  -1 -27   91.19    5.60
   1  -1 -27   80.29    7.10
   1   1 -27   88.09    5.50
   1   1 -27   86.49    6.50
   1   1 -27   86.49    6.40
  -1   1  27   89.59    6.60
   0  -1 -27   20.40    4.50
   0  -1  27   31.10    5.40
   0  -1 -27   25.20    4.50
   0  -1 -27   26.90    4.20
   0   1 -27   22.70    3.80
   0   1  27   26.80    4.90
   0   1 -27   21.50    4.50
   0   1 -27   32.00    4.60
  -1  -1 -27   64.99    7.60
  -1  -1 -27   60.59    6.60
   1  -1  27   67.09    9.30
  -1   1 -27   77.79    6.40
   1   1  27   70.79    8.10
  -1   1 -27   79.69    6.00
  -1   1 -27   79.49    7.70
  -2  -1 -27   10.30    7.50
  -2  -1 -27    7.40    6.40
   2  -1  27   -1.60    8.70
  -2   1 -27   -5.50    8.40
   2   1  27   -1.40    7.40
  -2   1 -27   -2.40    6.30
   2  -2 -27   48.70    5.40
   2  -2 -27   57.29    5.80
   2   2 -27   38.60    5.00
  -2   2  27   46.10    6.50
   2   2 -27   41.00    5.60
   1  -2 -27   17.80    4.00
  -1  -2  27   25.30    5.20
   1  -2 -27   18.50    4.10
   1   2 -27   17.80    4.30
  -1   2  27   12.30    4.40
   1   2 -27   22.50    3.70
   0  -2  27    3.50    5.60
   0  -2 -27   -0.30    4.10
   0  -2 -27    5.10    4.30
   0   2 -27   -0.70    3.10
   0   2 -27    5.20    4.50
   0   2  27    0.50    4.60
  -1  -2 -27    1.40    5.10
  -1  -2 -27    1.20    5.40
   1  -2  27    0.60    7.50
  -1   2 -27    3.10    5.50
  -1   2 -27    5.10    4.30
   1   2  27   13.20    6.00
   2  -3 -27   27.30    5.00
   1  -3 -27    6.20    4.30
   1  -3 -27    7.80    4.40
   1   3 -27   12.90    3.50
   1   3 -27   19.60    4.30
  -1   3  27    2.40    4.70
   0  -3 -27   -9.00    4.60
   0  -3 -27    3.20    4.60
   0   3  27    0.30    4.90
   0   3 -27   -1.60    5.00
   0   3 -27   11.70    3.80
  -1  -3 -27   19.00    6.10
  -1  -3 -27   29.50    6.80
   1   3  27   31.20    6.60
  -1   3 -27   25.00    6.40
  -1   3 -27   18.50    4.90
   2   0 -28   -1.80    3.90
   2   0 -28    4.60    3.60
  -2   0  28    2.00    5.20
   1   0 -28    1.20    4.50
   1   0 -28    0.30    3.40
   1   0 -28    5.50    3.80
   0   0 -28  167.38    8.60
   0   0 -28  173.48    9.30
   0   0  28  165.18    9.60
   0   0 -28  179.98    8.40
  -1   0 -28    2.30    5.00
  -1   0 -28    0.60    4.60
   2  -1 -28   51.19    5.40
   2  -1 -28   43.80    6.00
   2   1 -28   51.29    5.90
  -2   1  28   54.19    6.90
   2   1 -28   53.29    5.40
   1  -1 -28   35.10    5.70
   1  -1 -28   55.49    5.80
   1  -1 -28   58.89    5.20
  -1  -1  28   57.49    6.90
   1   1 -28   45.50    4.70
  -1   1  28   50.49    6.10
   1   1 -28   56.19    6.00
   0  -1  28   23.00    5.80
   0  -1 -28   22.50    4.60
   0  -1 -28   26.30    4.50
   0   1  28   21.10    5.10
   0   1 -28   25.20    4.70
   0   1 -28   37.00    4.90
   0   1 -28   17.80    3.90
  -1  -1 -28    5.00    5.20
  -1  -1 -28   -1.00    4.90
   1  -1  28   -8.90    7.00
   1   1  28    5.50    6.30
  -1   1 -28   14.50    5.40
  -1   1 -28    5.90    4.50
  -1   1 -28   -2.20    4.30
   2  -2 -28  166.88    8.60
   2  -2 -28  184.08   11.10
  -2   2  28  154.78    9.60
   2   2 -28  156.28    8.60
   2   2 -28  163.28   10.00
   1  -2 -28   70.59    6.00
   1  -2 -28   61.79    6.50
  -1   2  28   63.69    7.10
   1   2 -28   77.79    6.60
   1   2 -28   67.19    5.30
   0  -2 -28   53.29    6.40
   0  -2 -28   42.80    6.60
   0  -2  28   59.09    8.70
   0   2 -28   50.09    7.10
   0   2  28   46.80    7.10
   0   2 -28   54.79    5.20
   1  -2  28   25.70    9.50
  -1  -2 -28   41.70    6.30
  -1  -2 -28   33.40    6.10
  -1   2 -28   44.00    6.70
  -1   2 -28   42.30    6.30
   1   2  28   31.80    6.80
   1  -3 -28  541.45   20.70
   1  -3 -28  547.05   20.20
   1   3 -28  572.84   20.30
   1   3 -28  507.05   19.70
  -1   3  28  522.05   20.60
   0  -3 -28   92.09    8.10
   0  -3 -28   86.39    8.10
   0   3 -28  113.49    6.60
   0   3  28   90.79    8.40
   0   3 -28  110.99    8.50
   2   0 -29    2.50    4.10
  -2   0  29   -8.40    5.30
   2   0 -29   -1.80    4.20
   1   0 -29   62.99    6.30
   1   0 -29   51.59    5.30
  -1   0  29   70.79    7.10
   0   0 -29   -7.40    4.30
   0   0 -29    5.10    3.80
   0   0  29    7.90    5.40
   0   0 -29    2.10    4.20
  -1   0 -29   10.40    5.10
  -1   0 -29    9.10    5.50
   2  -1 -29    7.40    4.20
  -2   1  29    6.90    5.40
   2   1 -29    5.80    4.40
   1  -1 -29    7.00    3.70
  -1  -1  29   -2.20    5.50
   1  -1 -29    0.90    4.00
   1   1 -29    7.90    4.30
   1   1 -29    5.80    3.80
  -1   1  29   10.60    4.80
   0  -1 -29   25.00    4.60
   0  -1 -29   16.50    4.70
   0   1 -29   12.50    4.00
   0   1  29   13.90    5.70
   0   1 -29   15.30    4.80
  -1  -1 -29   25.40    6.10
   1  -1  29   14.50    8.10
  -1  -1 -29   19.80    5.80
  -1   1 -29   35.00    6.40
  -1   1 -29   20.80    5.30
   1   1  29   17.90    7.00
   1  -2 -29  116.19    8.30
   1  -2 -29  127.59    7.60
  -1   2  29  126.29    8.60
   1   2 -29  122.39    7.00
   1   2 -29  126.89    8.10
   0  -2 -29   40.40    5.60
   0  -2 -29   33.60    5.50
   0   2 -29   35.70    5.10
   0   2 -29   33.50    5.60
   0   2  29   36.50    6.00
   1  -2  29   23.00    9.70
  -1  -2 -29   16.30    6.10
  -1  -2 -29   17.30    6.30
  -1   2 -29   19.80    5.50
   1   2  29   16.60    6.60
  -1   2 -29   24.00    7.90
   0  -3 -29   10.30    5.80
   0   3 -29   17.20    4.60
  -1   0  30   -3.30    5.50
   1   0 -30    4.40    4.50
   1   0 -30    0.20    3.70
   0   0 -30   95.19    8.20
   0   0  30   97.69    9.00
   0   0 -30  106.29    6.90
   1  -1 -30  126.39    8.10
   1  -1 -30  113.79    7.10
  -1  -1  30  100.99    9.90
   1   1 -30  124.09    8.30
  -1   1  30  111.19    8.60
   1   1 -30  105.69    6.90
   0  -1 -30   49.80    7.10
   0  -1  30   66.39    9.10
   0  -1 -30   43.70    6.10
   0   1  30   45.20    6.80
   0   1 -30   58.19    7.30
   0   1 -30   30.90    4.80
   1  -1  30   46.90    9.30
   1  -2 -30   11.70    4.80
   1   2 -30   -1.10    4.90
  -1   2  30    6.80    5.40
   0  -2 -30   41.30    6.10
   0  -2 -30   29.50    6.00
   0   2  30   29.50    6.40
   0   2 -30   29.30    6.10
   0   2 -30   34.10    5.00
  -1   0  31   -4.20    6.00
   0   0  31   -6.20    6.50
   0   0 -31    4.80    6.70
   0  -1  31   23.10    7.40
   0  -1 -31   -0.80    5.90
   0   1  31    4.50    6.50
   0   0   0    0.00    0.00

_computing_structure_solution     'SHELXT 2014/5 (Sheldrick, 2014)'
;
_shelx_hkl_checksum              61326
loop_
_space_group_symop_operation_xyz
'x, y, z'
'-x+1/2, y, -z+1/2'
'-x, -y, -z'
'x-1/2, -y, z-1/2'
loop_
_atom_site_label
_atom_site_type_symbol
_atom_site_fract_x
_atom_site_fract_y
_atom_site_fract_z
_atom_site_U_iso_or_equiv
_atom_site_adp_type
_atom_site_occupancy
_atom_site_site_symmetry_order
_atom_site_calc_flag
_atom_site_refinement_flags_posn
_atom_site_refinement_flags_adp
_atom_site_refinement_flags_occupancy
O1 O 1.0322(6) 0.9278(4) 0.29659(9) 0.0124(5) Uani 1 1 d D . .
H1' H 1.157(17) 0.892(13) 0.271(2) 0.019 Uiso 0.5 1 d D U P
H1" H 1.11(2) 0.999(12) 0.324(2) 0.019 Uiso 0.5 1 d D U P
O2 O 0.5841(6) 0.5330(4) 0.44628(9) 0.0144(5) Uani 1 1 d . . .
H2 H 0.6750 0.6393 0.4640 0.022 Uiso 1 1 calc R U .
O3 O 0.3684(6) 0.2040(4) 0.37881(9) 0.0140(5) Uani 1 1 d D . .
H3' H 0.30(2) 0.222(14) 0.4099(15) 0.021 Uiso 0.5 1 d D U P
H3" H 0.32(2) 0.122(11) 0.352(2) 0.021 Uiso 0.5 1 d D U P
C1 C 0.7271(7) 0.5838(5) 0.27975(11) 0.0090(6) Uani 1 1 d . . .
C2 C 0.8519(7) 0.7500(5) 0.31542(12) 0.0090(6) Uani 1 1 d . . .
C3 C 0.8054(7) 0.7375(5) 0.37116(12) 0.0100(6) Uani 1 1 d . . .
H3 H 0.8874 0.8532 0.3948 0.012 Uiso 1 1 calc R U .
C4 C 0.6400(8) 0.5568(5) 0.39211(12) 0.0099(6) Uani 1 1 d . . .
C5 C 0.5244(7) 0.3852(5) 0.35739(12) 0.0095(6) Uani 1 1 d . . .
C6 C 0.5715(7) 0.4003(5) 0.30253(12) 0.0088(6) Uani 1 1 d . . .
H6 H 0.4957 0.2819 0.2793 0.011 Uiso 1 1 calc R U .
O1W O 0.9304(6) 0.8007(4) 0.52055(9) 0.0193(6) Uani 1 1 d D . .
H1W H 0.745(7) 0.883(6) 0.5149(15) 0.029 Uiso 1 1 d D U .
H2W H 0.966(10) 0.710(6) 0.4944(12) 0.029 Uiso 1 1 d D U .
loop_
_atom_site_aniso_label
_atom_site_aniso_U_11
_atom_site_aniso_U_22
_atom_site_aniso_U_33
_atom_site_aniso_U_23
_atom_site_aniso_U_13
_atom_site_aniso_U_12
O1 0.0137(11) 0.0117(11) 0.0123(11) -0.0013(9) 0.0037(8) -0.0054(9)
O2 0.0198(12) 0.0162(12) 0.0077(10) -0.0006(9) 0.0029(8) -0.0058(10)
O3 0.0179(11) 0.0124(12) 0.0122(11) 0.0003(9) 0.0044(9) -0.0053(10)
C1 0.0061(13) 0.0113(15) 0.0094(15) 0.0007(11) 0.0002(10) 0.0011(11)
C2 0.0059(13) 0.0078(14) 0.0133(14) 0.0009(11) 0.0004(10) 0.0008(11)
C3 0.0086(14) 0.0093(15) 0.0119(14) -0.0009(11) -0.0005(11) 0.0001(11)
C4 0.0098(14) 0.0110(15) 0.0090(14) 0.0002(11) 0.0018(10) 0.0023(12)
C5 0.0073(13) 0.0083(14) 0.0128(14) 0.0011(11) 0.0005(11) -0.0007(11)
C6 0.0072(13) 0.0076(14) 0.0114(14) -0.0021(11) -0.0009(10) -0.0014(11)
O1W 0.0224(13) 0.0198(13) 0.0161(11) -0.0010(10) 0.0042(9) -0.0030(10)
loop_
_atom_type_symbol
_atom_type_description
_atom_type_scat_dispersion_real
_atom_type_scat_dispersion_imag
_atom_type_scat_source
C C 0.0033 0.0016 'International Tables Vol C Tables 4.2.6.8 and 6.1.1.4'
H H 0.0000 0.0000 'International Tables Vol C Tables 4.2.6.8 and 6.1.1.4'
O O 0.0106 0.0060 'International Tables Vol C Tables 4.2.6.8 and 6.1.1.4'
loop_
_geom_angle_atom_site_label_1
_geom_angle_atom_site_label_2
_geom_angle_atom_site_label_3
_geom_angle
_geom_angle_site_symmetry_3
C2 O1 H1' 112(6) .
C2 O1 H1" 107(6) .
H1' O1 H1" 122(8) .
C4 O2 H2 109.5 .
C5 O3 H3' 115(6) .
C5 O3 H3" 104(6) .
H3' O3 H3" 137(8) .
C2 C1 C6 117.4(3) .
C2 C1 C1 123.8(2) 2_655
C6 C1 C1 118.6(2) 2_655
O1 C2 C3 118.3(3) .
O1 C2 C1 120.8(3) .
C3 C2 C1 120.9(3) .
C4 C3 C2 120.2(3) .
C4 C3 H3 119.9 .
C2 C3 H3 119.9 .
O2 C4 C3 123.6(3) .
O2 C4 C5 116.6(3) .
C3 C4 C5 119.8(3) .
C6 C5 O3 121.3(3) .
C6 C5 C4 119.3(3) .
O3 C5 C4 119.4(3) .
C5 C6 C1 122.3(3) .
C5 C6 H6 118.8 .
C1 C6 H6 118.8 .
H1W O1W H2W 114.7(18) .
loop_
_geom_bond_atom_site_label_1
_geom_bond_atom_site_label_2
_geom_bond_distance
_geom_bond_site_symmetry_2
O1 C2 1.380(4) .
O1 H1' 0.841(10) .
O1 H1" 0.837(11) .
O2 C4 1.371(4) .
O2 H2 0.8400 .
O3 C5 1.375(4) .
O3 H3' 0.840(10) .
O3 H3" 0.838(10) .
C1 C2 1.397(4) .
C1 C6 1.400(4) .
C1 C1 1.484(5) 2_655
C2 C3 1.395(4) .
C3 C4 1.385(4) .
C3 H3 0.9500 .
C4 C5 1.397(4) .
C5 C6 1.375(4) .
C6 H6 0.9500 .
O1W H1W 0.874(10) .
O1W H2W 0.866(10) .
