#------------------------------------------------------------------------------
#$Date: 2019-12-29 00:33:19 +0200 (Sun, 29 Dec 2019) $
#$Revision: 246297 $
#$URL: file:///home/coder/svn-repositories/cod/cif/4/51/72/4517279.cif $
#------------------------------------------------------------------------------
#
# This file is available in the Crystallography Open Database (COD),
# http://www.crystallography.net/
#
# All data on this site have been placed in the public domain by the
# contributors.
#
data_4517279
loop_
_publ_author_name
'Chandra, Ajeet'
'Jana, Kanyashree'
'Moorthy, Jarugu Narasimha'
_publ_section_title
;
 One-Pot Synthesis of 4-Carboalkoxy-Substituted Benzo[h]coumarins from \a-
 and \b-Naphthols and Their Excited-State Properties
;
_journal_name_full               'ACS Omega'
_journal_paper_doi               10.1021/acsomega.9b02489
_journal_year                    2019
_chemical_formula_moiety         'C16 H12 O4'
_chemical_formula_sum            'C16 H12 O4'
_chemical_formula_weight         268.27
_space_group_crystal_system      triclinic
_space_group_IT_number           2
_space_group_name_Hall           '-P 1'
_space_group_name_H-M_alt        'P -1'
_symmetry_Int_Tables_number      2
_atom_sites_solution_primary     dual
_audit_creation_date             2019-03-23
_audit_creation_method
;
Olex2 1.2
(compiled 2018.05.29 svn.r3508 for OlexSys, GUI svn.r5506)
;
_cell_angle_alpha                63.671(5)
_cell_angle_beta                 84.888(6)
_cell_angle_gamma                87.848(6)
_cell_formula_units_Z            2
_cell_length_a                   6.5821(14)
_cell_length_b                   10.142(2)
_cell_length_c                   10.290(2)
_cell_measurement_reflns_used    3583
_cell_measurement_temperature    100
_cell_measurement_theta_max      28.33
_cell_measurement_theta_min      2.24
_cell_volume                     613.2(2)
_computing_cell_refinement       'SAINT v8.34A (Bruker, 2013)'
_computing_data_reduction        'SAINT v8.34A (Bruker, 2013)'
_computing_molecular_graphics    'Olex2 (Dolomanov et al., 2009)'
_computing_publication_material  'Olex2 (Dolomanov et al., 2009)'
_computing_structure_refinement  'olex2.refine (Bourhis et al., 2015)'
_computing_structure_solution    'ShelXT (Sheldrick, 2015)'
_diffrn_ambient_temperature      100
_diffrn_detector                 'Bruker APEX2 area detector'
_diffrn_detector_area_resol_mean 7.9
_diffrn_detector_type            'CCD area detector'
_diffrn_measured_fraction_theta_full 0.9987
_diffrn_measured_fraction_theta_max 0.9987
_diffrn_measurement_device       'three-circle diffractometer'
_diffrn_measurement_device_type  'Bruker SMART APEX2 area detector'
_diffrn_measurement_method       '\w and \f scans'
_diffrn_radiation_monochromator  'mirror optics'
_diffrn_radiation_probe          x-ray
_diffrn_radiation_type           'Mo K\a'
_diffrn_radiation_wavelength     0.71073
_diffrn_reflns_av_R_equivalents  0.0493
_diffrn_reflns_av_unetI/netI     0.0544
_diffrn_reflns_limit_h_max       8
_diffrn_reflns_limit_h_min       -8
_diffrn_reflns_limit_k_max       13
_diffrn_reflns_limit_k_min       -13
_diffrn_reflns_limit_l_max       13
_diffrn_reflns_limit_l_min       -13
_diffrn_reflns_number            9426
_diffrn_reflns_theta_full        28.3663
_diffrn_reflns_theta_max         28.37
_diffrn_reflns_theta_min         2.35
_diffrn_source                   'microfocus sealed X-ray tube'
_diffrn_source_type              'Incoatec I\ms'
_diffrn_standards_number         0
_exptl_absorpt_coefficient_mu    0.105
_exptl_absorpt_correction_type   none
_exptl_crystal_colour            'light yellow'
_exptl_crystal_colour_modifier   light
_exptl_crystal_colour_primary    yellow
_exptl_crystal_density_diffrn    1.4528
_exptl_crystal_description       block
_exptl_crystal_F_000             280.1721
_exptl_crystal_size_max          0.2
_exptl_crystal_size_mid          0.2
_exptl_crystal_size_min          0.2
_refine_diff_density_max         0.4198
_refine_diff_density_min         -0.4607
_refine_diff_density_rms         0.1094
_refine_ls_d_res_high            0.7480
_refine_ls_d_res_low             8.6545
_refine_ls_goodness_of_fit_ref   1.0734
_refine_ls_hydrogen_treatment    constr
_refine_ls_matrix_type           full
_refine_ls_number_constraints    21
_refine_ls_number_parameters     182
_refine_ls_number_reflns         3072
_refine_ls_number_restraints     0
_refine_ls_restrained_S_all      1.0734
_refine_ls_R_factor_all          0.0780
_refine_ls_R_factor_gt           0.0500
_refine_ls_shift/su_max          0.0000
_refine_ls_shift/su_mean         0.0000
_refine_ls_structure_factor_coef Fsqd
_refine_ls_weighting_details
'w=1/[\s^2^(Fo^2^)+(0.0684P)^2^+0.0762P] where P=(Fo^2^+2Fc^2^)/3'
_refine_ls_weighting_scheme      calc
_refine_ls_wR_factor_gt          0.1214
_refine_ls_wR_factor_ref         0.1370
_reflns_Friedel_coverage         0.0
_reflns_limit_h_max              8
_reflns_limit_h_min              -8
_reflns_limit_k_max              13
_reflns_limit_k_min              -12
_reflns_limit_l_max              13
_reflns_limit_l_min              0
_reflns_number_gt                2236
_reflns_number_total             3072
_reflns_threshold_expression     I>=2u(I)
_iucr_refine_instructions_details
;
TITL 16nova_0m_a.res in P-1
REM Old TITL
REM SHELXT solution in P-1
REM R1 0.119, Rweak 0.003, Alpha 0.028, Orientation as input
REM Formula found by SHELXT: C16 O4
CELL 0.71073 6.5821 10.1422 10.2902 63.671 84.888 87.848
ZERR 2 0.0014 0.0021 0.0022 0.005 0.006 0.006
LATT 1
SFAC C H O
UNIT 32 24 8

L.S. 10
PLAN  20
SIZE 0.2 0.2 0.2
TEMP -173.15
BOND $H
FMAP 2
list 4
ACTA 
OMIT 0 1 0
WGHT 0.06837 0.076199
FVAR 0.708769
REM <olex2.extras>
REM <HklSrc "%.\\16nova_0m.hkl">
REM </olex2.extras>

O10   3     0.25928  0.63581  0.34169  11.00000  0.01935  0.01335  0.01044 =
 -0.00535 -0.00072 -0.00052 
O3    3     0.33548  0.21577  0.22691  11.00000  0.02503  0.01468  0.01760 =
 -0.00977  0.00220 -0.00239 
O9    3     0.28659  0.73341  0.10135  11.00000  0.03034  0.01582  0.01319 =
 -0.00487 -0.00185 -0.00058 
O5    3     0.26693  0.08831  0.46866  11.00000  0.03533  0.01357  0.01805 =
 -0.00599 -0.00102 -0.00087 
C4    1     0.29332  0.20365  0.36150  11.00000  0.01177  0.01776  0.01783 =
 -0.00867 -0.00194  0.00002 
C18   1     0.20895  0.72803  0.69464  11.00000  0.01475  0.01617  0.01915 =
 -0.00982 -0.00127  0.00050 
AFIX 43
H18   2     0.20463  0.82701  0.68108  11.00000 -1.20000 
AFIX 0
C13   1     0.25178  0.25709  0.63706  11.00000  0.01186  0.01497  0.01693 =
 -0.00654 -0.00193 -0.00033 
AFIX 43
H13   2     0.25852  0.15761  0.65224  11.00000 -1.20000 
AFIX 0
C6    1     0.28227  0.35348  0.35911  11.00000  0.00996  0.01592  0.01603 =
 -0.00851 -0.00139 -0.00135 
C11   1     0.25098  0.51574  0.47551  11.00000  0.01028  0.01502  0.01220 =
 -0.00525 -0.00104 -0.00101 
C7    1     0.29382  0.47315  0.22877  11.00000  0.01481  0.01690  0.01468 =
 -0.00900 -0.00143 -0.00009 
AFIX 43
H7    2     0.31118  0.45921  0.14305  11.00000 -1.20000 
AFIX 0
C16   1     0.23264  0.55201  0.59482  11.00000  0.01030  0.01467  0.01283 =
 -0.00639 -0.00161  0.00009 
C12   1     0.26096  0.37262  0.49186  11.00000  0.01009  0.01330  0.01299 =
 -0.00490 -0.00103 -0.00131 
C8    1     0.28088  0.62173  0.21422  11.00000  0.01398  0.01785  0.01236 =
 -0.00733 -0.00158 -0.00063 
C19   1     0.19869  0.61222  0.83637  11.00000  0.01595  0.02321  0.01450 =
 -0.01093 -0.00116  0.00048 
AFIX 43
H19   2     0.18659  0.63348  0.91782  11.00000 -1.20000 
AFIX 0
C20   1     0.20605  0.46923  0.85747  11.00000  0.01650  0.01856  0.01196 =
 -0.00457 -0.00021 -0.00105 
AFIX 43
H20   2     0.19947  0.39212  0.95374  11.00000 -1.20000 
AFIX 0
C14   1     0.23350  0.28751  0.75407  11.00000  0.01624  0.01452  0.01327 =
 -0.00213 -0.00129 -0.00118 
AFIX 43
H14   2     0.22735  0.20839  0.84921  11.00000 -1.20000 
AFIX 0
C17   1     0.22516  0.69913  0.57579  11.00000  0.01154  0.01581  0.01351 =
 -0.00526 -0.00145 -0.00007 
AFIX 43
H17   2     0.23137  0.77807  0.48054  11.00000 -1.20000 
AFIX 0
C15   1     0.22340  0.43406  0.73765  11.00000  0.01010  0.01769  0.01515 =
 -0.00791 -0.00120 -0.00109 
C2    1     0.35446  0.07949  0.21086  11.00000  0.02665  0.01604  0.02310 =
 -0.01340  0.00355 -0.00044 
AFIX 23
H2a   2     0.44413  0.09648  0.12235  11.00000 -1.20000 
H2b   2     0.41801  0.00282  0.29569  11.00000 -1.20000 
AFIX 0
C1    1     0.14862  0.02690  0.19974  11.00000  0.03014  0.01792  0.02552 =
 -0.01279 -0.00178 -0.00127 
AFIX 137
H1a   2     0.08126  0.10564  0.12041  11.00000 -1.50000 
H1b   2     0.16589 -0.05913  0.18007  11.00000 -1.50000 
H1c   2     0.06481 -0.00002  0.29151  11.00000 -1.50000 
AFIX 0
HKLF 4

END
Q1 1 0.25 0.361111 0.75 11 0.05 0.42
Q2 1 0.333333 0.277778 0.361111 11 0.05 0.42
Q3 1 -0.041667 0.75 0.805556 11 0.05 0.38
Q4 1 -0.041667 0.111111 0.472222 11 0.05 0.37
Q5 1 0.041667 0.416667 0.416667 11 0.05 0.36
Q6 1 0 0.472222 0.722222 11 0.05 0.35
Q7 1 0.5 0.611111 0.138889 11 0.05 0.34
Q8 1 0.25 0.361111 0.416667 11 0.05 0.33
Q9 1 0.291667 0.527778 0.527778 11 0.05 0.33
Q10 1 0.458333 0.805556 0.75 11 0.05 0.33

  REM The information below was added by Olex2.
  REM
  REM R1 = 0.0500 for 2236 Fo > 4sig(Fo) and 0.0780 for all 3072 data
  REM 182 parameters refined using 0 restraints
  REM Highest difference peak 0.4198, deepest hole -0.4607
  REM Mean Shift 0.0000, Max Shift 0.0000.

  REM +++ Tabular Listing of Refinement Information +++
  REM R1_all = 0.0780
  REM R1_gt = 0.0500
  REM wR_ref = 0.1370
  REM GOOF = 1.0734
  REM Shift_max = 0.0000
  REM Shift_mean = 0.0000
  REM Reflections_all = 3072
  REM Reflections_gt = 2236
  REM Parameters = 182
  REM Hole = -0.4607
  REM Peak = 0.4198
  REM Flack = n/a

  
;
_cod_data_source_file            ao9b02489_si_002.cif
_cod_data_source_block           16nova_0m
_cod_database_code               4517279
_olex2_refinement_description
;
1. Fixed Uiso
 At 1.2 times of:
  All C(H) groups, All C(H,H) groups
 At 1.5 times of:
  All C(H,H,H) groups
2.a Secondary CH2 refined with riding coordinates:
 C2(H2a,H2b)
2.b Aromatic/amide H refined with riding coordinates:
 C13(H13), C14(H14), C17(H17), C20(H20), C19(H19), C18(H18), C7(H7)
2.c Idealised Me refined as rotating group:
 C1(H1a,H1b,H1c)
;
_iucr_refine_fcf_details
;
data_16nova_0m
_computing_structure_refinement   'olex2.refine (Bourhis et al., 2015)'
_shelx_refln_list_code            4
loop_
  _space_group_symop_id
  _space_group_symop_operation_xyz
  1  x,y,z
  2  -x,-y,-z

_space_group_crystal_system       triclinic
_space_group_IT_number            2
_space_group_name_H-M_alt         'P -1'
_space_group_name_Hall            '-P 1'
_symmetry_space_group_name_H-M    'P -1'
_symmetry_space_group_name_Hall   '-P 1'
_symmetry_Int_Tables_number       2
_cell_length_a                    6.5821(14)
_cell_length_b                    10.142(2)
_cell_length_c                    10.290(2)
_cell_angle_alpha                 63.671(5)
_cell_angle_beta                  84.888(6)
_cell_angle_gamma                 87.848(6)
_cell_volume                      613.2(2)
loop_
  _refln_index_h
  _refln_index_k
  _refln_index_l
  _refln_F_squared_calc
  _refln_F_squared_meas
  _refln_F_squared_sigma
  _refln_F_squared_weight
  _refln_observed_status
-8 -4 1 8.002 22.115 4.922 26.052 o
-8 -3 1 40.166 42.486 7.067 11.103 o
-8 -3 2 137.398 133.319 9.613 3.572 o
-8 -2 1 0.431 -0.796 3.903 44.317 o
-8 -2 2 97.764 84.633 7.255 6.727 o
-8 -2 3 57.428 58.320 9.854 5.775 o
-8 -1 1 3.226 3.858 3.737 47.343 o
-8 -1 2 36.113 44.118 5.356 17.485 o
-8 -1 3 4.408 13.628 4.220 36.270 o
-8 0 1 33.693 25.717 4.111 28.444 o
-8 0 2 0.207 -1.773 3.633 51.171 o
-8 0 3 7.452 13.132 6.967 13.614 o
-8 0 4 3.403 4.438 6.171 17.592 o
-8 1 1 18.641 20.506 4.069 34.221 o
-8 1 2 5.792 8.071 3.792 44.832 o
-8 1 3 2.315 -1.366 3.940 43.192 o
-8 1 4 1.014 -2.661 4.445 34.134 o
-8 2 1 7.417 5.277 3.708 46.731 o
-8 2 2 9.708 2.320 3.737 45.802 o
-8 2 3 5.071 2.708 3.571 51.348 o
-8 2 4 0.003 -1.735 9.456 7.562 o
-8 3 1 0.970 2.941 3.495 54.741 o
-8 3 2 8.137 7.472 8.759 8.711 o
-8 3 3 13.144 14.853 4.124 35.721 o
-8 3 4 1.150 -1.679 4.124 39.620 o
-8 4 1 1.486 -0.252 3.756 47.651 o
-8 4 2 3.194 3.412 3.967 42.167 o
-8 4 3 0.162 9.456 4.050 40.492 o
-8 4 4 14.880 2.787 7.365 12.155 o
-8 5 1 0.099 -0.872 4.180 38.679 o
-8 5 2 3.462 5.854 4.088 39.497 o
-7 -6 1 90.382 98.105 14.422 2.647 o
-7 -5 1 3.791 7.739 4.877 27.827 o
-7 -5 2 1.031 -2.259 4.160 38.950 o
-7 -5 3 9.445 6.951 4.432 32.745 o
-7 -4 1 42.087 38.676 4.639 20.819 o
-7 -4 2 8.538 10.876 4.053 38.542 o
-7 -4 3 12.846 19.791 4.678 28.039 o
-7 -4 4 2.602 2.960 4.303 36.052 o
-7 -3 1 0.537 3.832 3.240 63.588 o
-7 -3 2 10.898 11.190 3.756 43.587 o
-7 -3 3 22.117 25.188 4.678 25.855 o
-7 -3 4 13.062 19.515 4.392 31.400 o
-7 -2 1 54.803 51.838 5.102 15.484 o
-7 -2 2 0.970 1.285 3.093 70.030 o
-7 -2 3 23.214 23.928 4.155 31.273 o
-7 -2 4 18.777 22.067 4.778 25.820 o
-7 -2 5 0.449 3.573 13.238 3.856 o
-7 -1 1 8.811 7.365 4.977 26.282 o
-7 -1 2 1.082 1.528 2.832 83.232 o
-7 -1 3 7.968 11.796 3.609 47.858 o
-7 -1 4 0.000 -2.629 5.474 22.562 o
-7 -1 5 89.870 101.934 7.530 6.436 o
-7 -1 6 5.929 -1.075 4.195 37.625 o
-7 0 1 5.258 3.792 2.713 86.375 o
-7 0 2 3.018 3.612 2.867 79.447 o
-7 0 3 2.347 -2.882 3.014 73.369 o
-7 0 4 11.640 1.555 10.053 6.628 o
-7 0 5 5.647 3.380 3.386 56.586 o
-7 0 6 153.561 155.307 10.849 2.811 o
-7 1 1 35.113 40.811 4.977 19.891 o
-7 1 2 35.233 23.189 3.538 34.759 o
-7 1 3 0.412 -0.796 2.650 95.980 o
-7 1 4 50.093 42.071 4.566 19.332 o
-7 1 5 0.060 -1.264 3.228 64.855 o
-7 1 6 29.759 23.650 4.487 26.165 o
-7 2 1 16.476 13.833 3.285 51.559 o
-7 2 2 6.728 7.137 2.761 80.787 o
-7 2 3 123.523 126.548 7.593 4.842 o
-7 2 4 323.314 342.106 15.374 0.879 o
-7 2 5 2.501 0.897 4.479 33.423 o
-7 2 6 0.110 -3.981 3.718 48.896 o
-7 2 7 31.441 27.994 5.015 21.298 o
-7 3 1 29.351 29.543 4.280 27.481 o
-7 3 2 2.050 4.500 2.908 77.603 o
-7 3 3 22.027 24.016 3.822 36.072 o
-7 3 4 156.247 146.117 14.233 2.090 o
-7 3 5 3.095 3.130 3.538 52.827 o
-7 3 6 29.973 26.542 8.162 9.301 o
-7 3 7 6.000 7.209 4.088 38.883 o
-7 4 1 431.136 415.707 17.709 0.566 o
-7 4 2 10.300 9.539 3.285 56.223 o
-7 4 3 5.369 8.008 3.164 63.381 o
-7 4 4 2.261 -1.826 3.156 67.051 o
-7 4 5 4.236 5.318 3.395 56.458 o
-7 4 6 5.906 8.599 6.868 14.115 o
-7 4 7 0.252 2.350 4.209 38.000 o
-7 5 1 48.864 47.591 3.522 24.984 o
-7 5 2 11.247 14.030 3.444 50.161 o
-7 5 3 2.613 8.970 3.300 59.550 o
-7 5 4 14.368 11.268 3.681 43.921 o
-7 5 5 15.448 16.247 4.379 31.402 o
-7 5 6 1.362 4.549 6.071 18.237 o
-7 5 7 0.083 10.373 6.669 15.093 o
-7 6 1 0.655 -0.147 2.338 122.897 o
-7 6 2 9.732 7.865 6.071 17.819 o
-7 6 3 4.002 4.110 7.266 12.715 o
-7 6 4 0.918 -3.104 3.981 42.526 o
-7 6 5 81.057 84.763 7.266 7.453 o
-7 6 6 3.633 7.190 4.678 30.239 o
-7 7 1 2.369 1.885 2.776 85.589 o
-7 7 2 31.501 35.801 4.842 21.790 o
-7 7 3 1.111 -6.644 6.270 17.170 o
-7 7 4 2.910 4.884 3.911 43.261 o
-7 7 5 26.419 19.684 4.336 28.921 o
-6 -8 1 14.965 1.118 5.972 18.297 o
-6 -7 1 86.194 72.941 6.292 8.771 o
-6 -7 2 33.069 29.661 8.759 8.057 o
-6 -6 1 47.647 50.560 6.270 12.504 o
-6 -6 2 0.029 -7.235 3.446 56.914 o
-6 -6 3 1.869 -3.683 3.941 43.242 o
-6 -6 4 34.003 35.004 5.343 18.433 o
-6 -5 1 8.717 5.800 3.087 65.006 o
-6 -5 2 0.678 -1.927 3.288 62.348 o
-6 -5 3 5.939 1.688 5.076 25.799 o
-6 -5 4 20.873 19.002 4.620 27.263 o
-6 -5 5 126.736 115.270 9.072 4.166 o
-6 -4 1 24.337 22.380 2.965 51.141 o
-6 -4 2 8.793 10.004 3.288 56.793 o
-6 -4 3 3.110 3.912 3.782 46.259 o
-6 -4 4 10.790 17.589 4.180 35.092 o
-6 -4 5 75.383 94.156 7.738 6.952 o
-6 -3 1 0.638 1.885 1.664 236.916 o
-6 -3 2 213.449 221.196 13.835 1.587 o
-6 -3 3 152.575 145.005 9.754 3.192 o
-6 -3 4 0.258 -0.068 5.076 26.226 o
-6 -3 5 4.870 6.967 4.088 39.132 o
-6 -3 6 6.116 0.597 5.375 23.076 o
-6 -2 1 11.441 13.030 1.580 165.744 o
-6 -2 2 118.050 122.603 8.958 4.329 o
-6 -2 3 86.584 96.625 6.402 7.895 o
-6 -2 4 0.790 4.740 2.798 84.385 o
-6 -2 5 0.057 -1.745 2.965 76.860 o
-6 -2 6 0.645 5.427 3.864 44.709 o
-6 -2 7 17.837 21.542 4.639 27.405 o
-6 -1 1 65.044 66.773 4.109 16.095 o
-6 -1 2 16.760 16.388 2.678 69.474 o
-6 -1 3 44.452 45.029 11.645 4.558 o
-6 -1 4 11.230 8.550 2.965 67.069 o
-6 -1 5 4.213 1.005 4.180 38.068 o
-6 -1 6 183.052 213.549 10.892 2.196 o
-6 -1 7 89.545 87.669 7.504 6.758 o
-6 0 1 63.805 69.578 3.700 17.385 o
-6 0 2 38.489 41.304 5.229 17.974 o
-6 0 3 47.128 45.508 4.778 18.513 o
-6 0 4 13.923 11.182 3.484 48.578 o
-6 0 5 65.809 56.850 5.061 13.839 o
-6 0 6 3.408 3.556 2.946 75.137 o
-6 0 7 22.994 22.613 4.303 29.786 o
-6 0 8 15.610 22.695 10.053 6.505 o
-6 1 1 45.721 41.370 6.370 12.730 o
-6 1 2 16.672 19.792 1.921 103.925 o
-6 1 3 3.660 1.393 2.389 113.310 o
-6 1 4 5.633 4.421 2.576 94.413 o
-6 1 5 6.338 5.602 3.981 41.006 o
-6 1 6 105.871 127.160 7.788 5.244 o
-6 1 7 63.334 62.166 5.840 11.774 o
-6 1 8 112.439 124.135 8.414 4.731 o
-6 2 1 16.203 17.923 2.395 81.180 o
-6 2 2 52.927 56.626 3.263 23.737 o
-6 2 3 29.741 30.211 3.156 41.190 o
-6 2 4 1.929 2.316 4.778 29.395 o
-6 2 5 4.771 5.681 2.678 88.064 o
-6 2 6 0.651 -1.821 2.822 84.554 o
-6 2 7 7.600 5.650 3.718 46.381 o
-6 2 8 57.110 58.351 5.545 13.363 o
-6 3 1 2.480 5.148 1.683 215.249 o
-6 3 2 15.998 13.494 1.668 134.857 o
-6 3 3 26.396 26.802 3.981 31.949 o
-6 3 4 3.027 1.614 2.467 107.120 o
-6 3 5 4.753 3.389 2.578 95.734 o
-6 3 6 0.285 0.667 2.773 87.547 o
-6 3 7 3.175 -1.548 8.560 9.205 o
-6 3 8 15.176 13.724 5.673 19.703 o
-6 3 9 25.136 21.673 4.778 24.729 o
-6 4 1 4.001 5.553 1.517 246.610 o
-6 4 2 45.000 45.850 3.457 27.062 o
-6 4 3 0.068 -1.354 2.389 118.416 o
-6 4 4 3.954 3.013 2.787 83.408 o
-6 4 5 19.915 19.995 3.165 50.479 o
-6 4 6 1.600 3.043 2.867 80.531 o
-6 4 7 20.102 21.364 3.495 42.935 o
-6 4 8 0.611 -1.959 3.864 45.194 o
-6 4 9 120.941 138.130 14.333 2.331 o
-6 5 1 15.995 13.999 1.845 119.256 o
-6 5 2 0.074 1.689 1.680 235.609 o
-6 5 3 0.134 -1.891 1.666 243.086 o
-6 5 4 2.764 -1.261 5.972 18.875 o
-6 5 5 0.001 3.452 2.883 80.437 o
-6 5 6 136.586 129.867 7.788 4.355 o
-6 5 7 0.798 2.559 3.395 58.081 o
-6 5 8 123.250 145.338 8.838 4.029 o
-6 5 9 41.431 40.938 5.352 17.008 o
-6 6 1 65.757 72.950 3.643 16.827 o
-6 6 2 4.199 5.015 1.795 184.924 o
-6 6 3 12.945 12.861 1.983 118.671 o
-6 6 4 99.085 89.992 6.575 7.217 o
-6 6 5 79.663 53.548 6.967 8.726 o
-6 6 6 386.378 398.165 17.312 0.649 o
-6 6 7 2.006 -0.341 4.180 38.447 o
-6 6 8 3.005 2.971 7.067 13.466 o
-6 7 1 3.388 5.167 3.517 53.047 o
-6 7 2 17.625 17.837 2.206 88.030 o
-6 7 3 7.155 6.862 2.603 89.619 o
-6 7 4 0.413 -1.212 3.165 67.363 o
-6 7 5 627.671 640.853 26.181 0.260 o
-6 7 6 724.876 760.872 30.756 0.191 o
-6 7 7 14.303 15.985 4.678 28.114 o
-6 7 8 11.849 10.643 4.111 36.770 o
-6 8 1 6.554 7.343 2.678 85.486 o
-6 8 2 24.159 18.404 5.323 20.904 o
-6 8 3 11.538 13.039 2.325 96.615 o
-6 8 4 0.184 -1.582 3.940 43.524 o
-6 8 5 60.308 58.224 5.418 13.386 o
-6 8 6 170.723 172.538 9.850 2.734 o
-6 8 7 0.143 2.822 4.678 30.778 o
-6 9 1 0.465 -5.661 3.081 71.028 o
-6 9 2 150.788 158.451 7.526 3.793 o
-6 9 3 81.167 83.925 5.533 9.889 o
-6 9 4 1.906 -3.792 4.479 33.529 o
-6 9 5 0.707 0.995 5.375 23.353 o
-6 9 6 0.217 -1.393 5.574 21.755 o
-5 -9 1 0.128 -8.149 4.303 36.510 o
-5 -8 1 307.815 313.262 11.513 1.119 o
-5 -8 2 12.123 12.342 6.171 17.028 o
-5 -8 3 2.834 9.555 6.569 15.486 o
-5 -7 1 994.759 1068.050 44.575 0.098 o
-5 -7 2 24.364 28.870 3.896 33.346 o
-5 -7 3 0.268 0.299 3.800 46.740 o
-5 -7 4 8.455 9.555 5.972 18.423 o
-5 -6 1 310.960 304.708 10.831 1.152 o
-5 -6 2 16.027 14.366 2.540 77.250 o
-5 -6 3 158.340 155.237 9.438 3.120 o
-5 -6 4 0.067 -4.451 3.306 61.856 o
-5 -6 5 3.381 -5.065 8.858 8.595 o
-5 -5 1 4.668 3.179 1.870 173.543 o
-5 -5 2 1.359 -0.915 1.930 178.096 o
-5 -5 3 15.421 11.851 3.146 56.681 o
-5 -5 4 95.007 87.848 6.329 7.752 o
-5 -5 5 45.891 44.468 5.061 17.461 o
-5 -5 6 2.604 0.721 4.578 31.996 o
-5 -4 1 50.267 45.570 3.101 27.691 o
-5 -4 2 12.403 14.833 1.892 125.145 o
-5 -4 3 16.513 21.690 4.678 27.232 o
-5 -4 4 0.690 -0.398 3.185 66.413 o
-5 -4 5 6.985 5.336 2.883 75.161 o
-5 -4 6 6.407 5.861 3.793 44.954 o
-5 -4 7 0.250 -2.527 10.849 5.744 o
-5 -3 1 0.897 0.296 1.223 435.856 o
-5 -3 2 126.533 143.246 5.580 5.507 o
-5 -3 3 8.891 7.190 1.742 169.380 o
-5 -3 4 3.692 8.361 2.578 94.204 o
-5 -3 5 8.772 7.865 3.782 44.231 o
-5 -3 6 78.629 72.970 6.315 9.229 o
-5 -3 7 18.939 24.013 5.375 20.836 o
-5 -2 1 60.984 63.901 2.345 24.007 o
-5 -2 2 105.149 107.539 3.625 9.176 o
-5 -2 3 97.058 94.905 6.858 6.916 o
-5 -2 4 1.354 -1.057 1.952 174.206 o
-5 -2 5 31.133 33.569 3.652 32.919 o
-5 -2 6 5.744 6.009 2.965 71.949 o
-5 -2 7 35.332 44.651 10.053 6.097 o
-5 -2 8 33.386 30.392 4.478 24.655 o
-5 -1 1 0.014 0.734 0.847 917.152 o
-5 -1 2 29.852 28.459 1.509 79.040 o
-5 -1 3 115.158 119.337 6.348 6.001 o
-5 -1 4 32.962 33.592 3.201 37.736 o
-5 -1 5 60.112 67.681 6.370 10.616 o
-5 -1 6 223.597 224.218 10.751 1.843 o
-5 -1 7 132.692 133.567 7.670 4.459 o
-5 -1 8 26.251 31.991 4.336 27.420 o
-5 -1 9 3.717 11.866 14.830 3.065 o
-5 0 1 61.604 62.430 3.081 21.058 o
-5 0 2 17.466 17.896 0.992 179.067 o
-5 0 3 73.997 71.826 4.445 13.404 o
-5 0 4 41.330 39.494 3.793 26.790 o
-5 0 5 36.030 40.294 3.769 28.627 o
-5 0 6 88.365 85.584 6.171 8.401 o
-5 0 7 834.631 829.544 38.817 0.140 o
-5 0 8 195.798 187.340 10.451 2.269 o
-5 0 9 7.770 13.506 4.065 38.191 o
-5 1 1 141.240 140.284 5.746 4.950 o
-5 1 2 31.599 34.286 2.155 56.084 o
-5 1 3 29.072 29.740 3.109 42.499 o
-5 1 4 41.600 44.044 3.712 26.596 o
-5 1 5 0.144 -0.406 2.289 128.834 o
-5 1 6 6.878 10.336 2.678 83.638 o
-5 1 7 402.708 433.591 18.425 0.579 o
-5 1 8 223.576 232.300 11.378 1.749 o
-5 1 9 76.176 83.099 11.247 4.192 o
-5 2 1 47.626 45.624 2.635 32.457 o
-5 2 2 1.969 2.975 1.178 425.725 o
-5 2 3 41.976 42.100 3.824 25.931 o
-5 2 4 639.136 694.521 27.512 0.239 o
-5 2 5 11.893 9.515 2.200 107.986 o
-5 2 6 0.326 -1.278 3.583 52.593 o
-5 2 7 53.973 56.660 4.818 16.305 o
-5 2 8 17.557 27.602 9.754 6.845 o
-5 2 9 14.746 18.418 3.677 42.445 o
-5 2 10 5.502 1.860 4.053 40.151 o
-5 3 1 18.822 17.422 1.529 127.279 o
-5 3 2 2.342 2.363 0.896 671.550 o
-5 3 3 8.837 10.245 1.379 224.170 o
-5 3 4 520.162 539.152 21.744 0.374 o
-5 3 5 85.904 79.117 6.569 8.222 o
-5 3 6 137.541 137.135 9.953 3.418 o
-5 3 7 6.622 5.469 2.630 89.251 o
-5 3 8 6.498 6.520 3.054 67.485 o
-5 3 9 0.054 7.841 3.429 56.369 o
-5 3 10 2.166 -3.131 3.587 52.057 o
-5 4 1 1127.930 1098.020 34.396 0.095 o
-5 4 2 133.719 121.433 4.794 6.069 o
-5 4 3 29.198 28.807 1.836 70.894 o
-5 4 4 8.284 9.719 1.183 278.680 o
-5 4 5 0.781 6.542 2.008 158.200 o
-5 4 6 7.757 8.759 2.986 68.722 o
-5 4 7 1.777 -3.260 3.981 42.397 o
-5 4 8 85.851 97.020 10.540 4.350 o
-5 4 9 28.409 25.431 6.967 12.487 o
-5 4 10 36.614 33.543 8.261 8.794 o
-5 5 1 139.771 134.149 4.646 5.589 o
-5 5 2 0.073 -0.824 1.114 542.725 o
-5 5 3 27.756 22.385 1.902 77.304 o
-5 5 4 25.109 22.848 1.902 81.994 o
-5 5 5 37.443 34.637 2.560 43.430 o
-5 5 6 45.522 51.209 7.763 9.088 o
-5 5 7 4.220 2.030 2.721 87.479 o
-5 5 8 15.539 19.344 3.300 50.121 o
-5 5 9 1.912 4.852 3.300 60.650 o
-5 5 10 11.724 5.799 7.166 12.868 o
-5 6 1 0.655 0.019 1.405 336.614 o
-5 6 2 28.604 31.524 2.207 60.283 o
-5 6 3 0.169 0.232 1.269 415.989 o
-5 6 4 0.024 -2.389 1.441 325.443 o
-5 6 5 107.088 102.050 4.449 8.476 o
-5 6 6 33.644 36.048 3.995 28.018 o
-5 6 7 19.595 24.080 5.972 17.182 o
-5 6 8 28.663 23.744 3.874 33.014 o
-5 6 9 30.062 30.651 6.270 14.729 o
-5 6 10 30.627 29.296 4.487 25.329 o
-5 7 1 4.310 4.220 1.674 210.464 o
-5 7 2 23.899 21.179 1.985 82.841 o
-5 7 3 0.002 -1.972 1.486 306.339 o
-5 7 4 7.925 6.627 1.609 197.564 o
-5 7 5 11.530 17.673 2.383 89.273 o
-5 7 6 0.867 -1.500 2.822 84.431 o
-5 7 7 42.724 49.272 7.365 10.077 o
-5 7 8 2.533 7.743 3.583 51.029 o
-5 7 9 3.161 2.167 3.633 50.249 o
-5 7 10 1.776 1.142 3.864 44.897 o
-5 8 1 2.245 3.232 2.288 123.828 o
-5 8 2 33.257 36.715 4.827 21.493 o
-5 8 3 0.028 0.667 2.500 107.881 o
-5 8 4 1.819 1.138 1.896 181.300 o
-5 8 5 90.364 102.913 6.976 6.923 o
-5 8 6 19.011 19.789 3.981 35.483 o
-5 8 7 6.855 4.371 3.369 56.427 o
-5 8 8 2.419 3.279 3.571 52.046 o
-5 8 9 25.863 28.515 4.588 25.582 o
-5 9 1 2.161 1.813 2.655 93.581 o
-5 9 2 10.715 11.970 2.775 74.084 o
-5 9 3 1.006 3.466 3.922 43.516 o
-5 9 4 3.413 9.230 2.737 84.158 o
-5 9 5 0.296 -0.880 2.306 126.798 o
-5 9 6 36.704 40.026 4.357 23.686 o
-5 9 7 0.211 5.328 4.180 38.332 o
-5 9 8 57.143 61.289 5.907 12.213 o
-5 9 9 1.234 5.868 5.076 25.990 o
-5 10 1 24.108 22.618 4.428 28.155 o
-5 10 2 8.832 9.043 4.390 33.267 o
-5 10 3 14.978 17.498 3.138 55.329 o
-5 10 4 3.736 -1.686 2.918 77.422 o
-5 10 5 7.228 4.234 2.840 77.525 o
-5 10 6 0.868 5.039 4.479 33.377 o
-5 10 7 11.317 -4.778 5.773 19.789 o
-4 -10 1 0.006 -7.793 4.209 38.164 o
-4 -9 1 8.743 4.951 4.877 27.465 o
-4 -9 2 5.924 7.543 3.778 45.198 o
-4 -9 3 50.391 43.396 7.963 8.684 o
-4 -8 1 16.599 12.784 2.508 79.044 o
-4 -8 2 4.524 1.361 2.908 77.039 o
-4 -8 3 8.352 7.763 5.972 18.475 o
-4 -8 4 25.078 22.494 6.370 14.970 o
-4 -7 1 55.058 49.122 4.281 19.025 o
-4 -7 2 161.436 155.144 6.600 3.877 o
-4 -7 3 3.027 4.822 3.180 64.697 o
-4 -7 4 44.728 52.991 8.261 8.205 o
-4 -7 5 8.987 14.133 6.370 16.125 o
-4 -6 1 135.791 128.098 10.388 3.363 o
-4 -6 2 0.736 -5.311 2.289 128.074 o
-4 -6 3 13.156 11.406 2.193 103.923 o
-4 -6 4 72.994 72.698 4.392 13.608 o
-4 -6 5 0.255 7.564 4.578 31.890 o
-4 -6 6 5.886 12.440 4.291 34.967 o
-4 -5 1 13.998 14.720 1.783 129.753 o
-4 -5 2 38.551 35.977 2.670 40.619 o
-4 -5 3 3.172 0.859 1.668 225.880 o
-4 -5 4 56.910 53.789 5.104 15.057 o
-4 -5 5 49.682 43.482 4.357 20.360 o
-4 -5 6 114.996 101.250 7.530 5.538 o
-4 -5 7 3.561 6.866 5.972 18.718 o
-4 -4 1 40.840 38.528 2.293 42.743 o
-4 -4 2 3.485 3.566 1.350 314.633 o
-4 -4 3 9.582 12.553 1.842 143.189 o
-4 -4 4 0.841 -0.982 1.478 303.409 o
-4 -4 5 86.963 79.948 5.559 9.547 o
-4 -4 6 384.907 345.494 31.751 0.402 o
-4 -4 7 6.614 6.569 3.911 42.247 o
-4 -4 8 24.186 16.277 6.071 16.622 o
-4 -3 1 86.013 91.276 4.566 10.641 o
-4 -3 2 245.842 250.310 7.645 1.861 o
-4 -3 3 609.394 635.388 23.446 0.284 o
-4 -3 4 6.845 4.380 1.220 319.556 o
-4 -3 5 1.555 1.983 1.356 341.175 o
-4 -3 6 3.077 9.953 3.981 41.240 o
-4 -3 7 16.328 21.322 9.157 7.795 o
-4 -3 8 3.929 4.059 3.769 46.359 o
-4 -2 1 72.761 69.494 2.470 19.005 o
-4 -2 2 156.292 168.534 5.430 4.175 o
-4 -2 3 134.933 155.026 4.706 5.336 o
-4 -2 4 13.955 12.326 1.044 228.897 o
-4 -2 5 0.469 0.721 1.660 241.541 o
-4 -2 6 6.439 6.481 2.487 98.388 o
-4 -2 7 91.540 98.494 8.749 5.414 o
-4 -2 8 0.124 -2.817 3.201 65.949 o
-4 -2 9 2.413 -0.675 3.911 43.812 o
-4 -1 1 173.404 166.525 4.979 3.870 o
-4 -1 2 1.861 1.520 0.550 1504.060 o
-4 -1 3 170.048 159.160 7.303 3.459 o
-4 -1 4 5.124 4.540 3.285 59.953 o
-4 -1 5 54.839 60.260 4.136 18.562 o
-4 -1 6 153.020 152.614 7.788 3.724 o
-4 -1 7 220.321 214.778 17.617 1.229 o
-4 -1 8 9.538 11.106 3.004 65.862 o
-4 -1 9 20.411 27.469 4.478 27.928 o
-4 -1 10 17.674 19.309 6.569 14.668 o
-4 0 1 130.352 141.228 6.120 5.139 o
-4 0 2 78.262 68.065 2.005 18.822 o
-4 0 3 10.561 10.295 2.787 74.483 o
-4 0 4 87.681 82.648 4.560 10.919 o
-4 0 5 69.331 64.690 5.673 11.493 o
-4 0 6 30.893 28.665 3.004 43.417 o
-4 0 7 74.647 75.608 5.468 10.926 o
-4 0 8 20.564 21.472 3.395 44.623 o
-4 0 9 16.309 18.834 3.822 39.105 o
-4 0 10 3.368 6.851 4.053 40.084 o
-4 1 1 109.613 122.520 3.936 7.970 o
-4 1 2 89.796 92.738 3.419 11.835 o
-4 1 3 0.013 0.867 2.090 153.947 o
-4 1 4 30.156 28.746 4.180 28.341 o
-4 1 5 4.538 4.051 1.578 232.145 o
-4 1 6 107.435 119.544 14.532 2.434 o
-4 1 7 0.574 -1.050 2.244 133.525 o
-4 1 8 235.752 254.850 11.597 1.584 o
-4 1 9 0.244 -0.031 2.721 91.197 o
-4 1 10 5.793 4.859 5.176 24.725 o
-4 2 1 159.357 159.764 4.801 4.387 o
-4 2 2 69.972 71.102 4.798 13.124 o
-4 2 3 81.259 83.984 3.333 13.818 o
-4 2 4 20.862 20.563 3.981 34.766 o
-4 2 5 6.014 4.726 1.578 220.888 o
-4 2 6 3.666 2.559 1.838 183.637 o
-4 2 7 3.458 7.290 2.037 146.456 o
-4 2 8 238.613 240.812 11.109 1.651 o
-4 2 9 0.103 -5.433 2.822 84.859 o
-4 2 10 0.640 -3.990 3.683 49.731 o
-4 2 11 17.228 22.443 4.589 27.954 o
-4 3 1 2.775 2.884 0.683 941.890 o
-4 3 2 6.731 6.700 0.859 462.714 o
-4 3 3 33.310 33.711 1.612 65.158 o
-4 3 4 0.386 1.357 0.853 862.013 o
-4 3 5 49.125 49.343 4.280 20.255 o
-4 3 6 0.048 0.306 1.814 204.900 o
-4 3 7 9.365 10.071 3.782 43.712 o
-4 3 8 18.390 23.675 3.011 54.083 o
-4 3 9 40.819 36.536 5.474 16.809 o
-4 3 10 2.108 5.773 3.344 58.845 o
-4 3 11 0.043 9.716 3.967 42.167 o
-4 4 1 53.041 45.767 2.125 33.230 o
-4 4 2 110.390 100.043 3.086 9.505 o
-4 4 3 1.814 1.287 1.178 443.307 o
-4 4 4 4.971 6.698 1.102 379.729 o
-4 4 5 65.411 67.840 2.503 21.254 o
-4 4 6 0.386 2.317 1.722 221.819 o
-4 4 7 2.787 1.613 2.008 159.340 o
-4 4 8 4.468 7.587 2.487 100.209 o
-4 4 9 73.527 60.435 4.960 12.945 o
-4 4 10 63.129 55.577 7.067 9.426 o
-4 4 11 11.424 7.343 4.180 36.126 o
-4 5 1 33.753 36.505 2.083 53.658 o
-4 5 2 3.645 3.896 1.810 186.478 o
-4 5 3 17.730 16.411 1.348 149.193 o
-4 5 4 0.114 1.923 0.942 715.462 o
-4 5 5 16.346 15.198 1.666 130.405 o
-4 5 6 145.039 145.146 5.473 4.851 o
-4 5 7 101.381 108.339 6.053 7.132 o
-4 5 8 55.810 60.596 5.673 13.011 o
-4 5 9 139.425 127.322 7.444 4.465 o
-4 5 10 23.758 24.180 3.903 34.277 o
-4 5 11 34.964 35.978 5.275 18.604 o
-4 6 1 12.133 11.369 1.368 196.793 o
-4 6 2 114.556 110.998 4.014 7.970 o
-4 6 3 10.741 11.131 1.372 207.241 o
-4 6 4 63.328 64.537 2.855 21.135 o
-4 6 5 5.740 6.884 1.351 274.117 o
-4 6 6 266.835 282.836 9.777 1.462 o
-4 6 7 14.102 13.223 1.834 127.395 o
-4 6 8 49.315 60.586 5.185 15.332 o
-4 6 9 57.497 58.233 5.125 14.619 o
-4 6 10 12.942 8.446 3.344 53.371 o
-4 6 11 5.285 10.832 3.967 40.934 o
-4 7 1 9.940 8.622 2.136 118.466 o
-4 7 2 7.877 8.520 1.443 225.075 o
-4 7 3 29.571 29.365 3.132 41.929 o
-4 7 4 22.791 22.046 1.836 90.562 o
-4 7 5 244.569 251.153 8.917 1.766 o
-4 7 6 1995.700 2019.450 62.507 0.030 o
-4 7 7 69.481 68.199 3.805 16.086 o
-4 7 8 146.940 142.118 9.057 3.524 o
-4 7 9 14.197 10.240 6.967 13.442 o
-4 7 10 0.477 4.700 3.156 66.821 o
-4 7 11 4.257 -0.775 3.756 47.074 o
-4 8 1 9.080 5.825 1.892 150.711 o
-4 8 2 50.718 53.005 3.377 24.393 o
-4 8 3 1.672 0.803 2.097 149.795 o
-4 8 4 16.910 18.351 1.871 108.377 o
-4 8 5 144.314 143.172 5.248 4.995 o
-4 8 6 384.553 379.898 11.286 0.803 o
-4 8 7 0.596 -1.821 1.902 185.386 o
-4 8 8 66.591 62.546 6.470 10.133 o
-4 8 9 0.679 6.027 3.288 61.327 o
-4 8 10 12.914 16.286 5.773 19.144 o
-4 8 11 0.160 1.043 7.564 11.809 o
-4 9 1 0.000 -3.708 3.285 62.671 o
-4 9 2 60.446 58.872 10.451 5.178 o
-4 9 3 264.827 240.159 9.334 1.631 o
-4 9 4 7.520 7.717 2.235 115.754 o
-4 9 5 2.993 1.389 1.825 190.720 o
-4 9 6 4.523 0.102 1.898 174.282 o
-4 9 7 53.194 54.657 4.137 19.496 o
-4 9 8 13.986 18.911 4.778 26.876 o
-4 9 9 0.020 -0.510 3.511 54.857 o
-4 9 10 17.371 19.190 5.673 19.281 o
-4 10 1 3.199 -2.678 5.872 19.502 o
-4 10 2 35.598 44.163 8.162 8.843 o
-4 10 3 121.101 102.830 14.323 2.452 o
-4 10 4 10.297 10.522 2.649 81.341 o
-4 10 5 15.977 17.206 2.951 60.287 o
-4 10 6 16.491 20.912 4.278 31.929 o
-4 10 7 39.746 45.479 3.798 26.301 o
-4 10 8 10.645 16.522 5.176 23.731 o
-4 10 9 6.996 5.797 4.053 39.464 o
-4 11 1 0.000 2.989 4.088 40.271 o
-4 11 2 0.140 6.821 3.792 46.348 o
-4 11 3 3.484 -2.867 5.375 23.242 o
-4 11 4 2.805 0.129 2.996 73.978 o
-4 11 5 4.888 8.159 3.060 67.702 o
-4 11 6 4.189 6.429 3.156 64.692 o
-4 11 7 2.117 -0.415 4.688 30.601 o
-4 11 8 1.464 6.275 6.171 17.626 o
-3 -10 1 8.049 4.689 3.731 46.088 o
-3 -10 2 11.663 27.139 4.687 27.512 o
-3 -9 1 23.894 20.997 3.587 39.602 o
-3 -9 2 1.381 -0.597 3.252 63.485 o
-3 -9 3 27.760 30.541 4.578 25.046 o
-3 -8 1 552.908 582.366 19.103 0.358 o
-3 -8 2 1.456 -0.430 2.576 100.712 o
-3 -8 3 27.482 29.063 5.773 17.280 o
-3 -8 4 113.218 126.004 7.987 4.926 o
-3 -8 5 17.618 17.319 7.365 11.858 o
-3 -7 1 1564.040 1599.880 49.839 0.048 o
-3 -7 2 184.576 172.861 6.758 3.189 o
-3 -7 3 0.002 4.578 1.907 179.668 o
-3 -7 4 45.890 40.903 5.233 16.948 o
-3 -7 5 32.916 34.498 4.578 23.526 o
-3 -7 6 0.032 -1.393 6.171 17.754 o
-3 -6 1 466.187 449.512 14.747 0.543 o
-3 -6 2 222.439 233.823 8.345 2.073 o
-3 -6 3 249.413 252.412 11.781 1.499 o
-3 -6 4 14.159 12.533 2.020 112.997 o
-3 -6 5 0.828 4.716 2.378 115.774 o
-3 -6 6 8.672 10.269 3.728 45.086 o
-3 -6 7 2.478 18.513 6.569 15.354 o
-3 -5 1 11.351 11.331 1.787 145.151 o
-3 -5 2 6.035 4.983 1.370 274.859 o
-3 -5 3 12.639 15.584 2.359 90.490 o
-3 -5 4 47.255 42.889 4.624 19.499 o
-3 -5 5 102.838 101.622 5.785 7.486 o
-3 -5 6 19.223 14.523 2.216 87.665 o
-3 -5 7 3.052 3.344 3.511 53.616 o
-3 -5 8 5.013 8.148 3.516 52.031 o
-3 -4 1 6.503 6.717 1.053 373.000 o
-3 -4 2 77.392 68.439 2.545 17.780 o
-3 -4 3 15.958 16.765 1.333 159.303 o
-3 -4 4 13.765 9.632 1.999 119.486 o
-3 -4 5 30.153 28.531 2.255 59.102 o
-3 -4 6 2.521 2.579 1.576 249.802 o
-3 -4 7 8.237 9.157 3.378 54.505 o
-3 -4 8 2.812 -0.069 3.652 50.106 o
-3 -3 1 14.758 14.509 1.134 198.266 o
-3 -3 2 426.680 429.785 11.917 0.657 o
-3 -3 3 19.230 23.502 1.614 109.548 o
-3 -3 4 0.257 0.517 1.221 445.820 o
-3 -3 5 66.536 64.146 2.781 20.523 o
-3 -3 6 79.118 81.659 3.860 13.287 o
-3 -3 7 76.568 83.475 5.840 9.771 o
-3 -3 8 3.947 4.419 3.146 65.713 o
-3 -3 9 11.746 11.106 3.321 53.949 o
-3 -2 1 39.163 35.582 1.451 57.597 o
-3 -2 2 463.926 444.423 19.308 0.488 o
-3 -2 3 143.916 138.752 4.242 5.482 o
-3 -2 4 13.546 12.013 0.918 257.026 o
-3 -2 5 47.804 45.260 2.089 37.050 o
-3 -2 6 45.079 42.483 2.527 35.784 o
-3 -2 7 1.371 -0.704 1.593 259.083 o
-3 -2 8 91.063 91.659 14.223 2.724 o
-3 -2 9 3.611 -0.406 3.429 56.483 o
-3 -2 10 8.553 5.036 3.646 47.925 o
-3 -1 1 3.214 5.315 0.596 933.053 o
-3 -1 2 0.271 0.024 0.462 2962.070 o
-3 -1 3 367.472 359.360 9.888 0.904 o
-3 -1 4 19.810 22.490 1.235 132.373 o
-3 -1 5 0.301 1.556 0.591 1664.080 o
-3 -1 6 354.178 363.309 10.204 0.929 o
-3 -1 7 3.315 6.178 1.389 288.902 o
-3 -1 8 26.958 26.406 3.097 45.133 o
-3 -1 9 1.387 -1.574 3.981 42.456 o
-3 -1 10 73.355 88.371 8.813 6.018 o
-3 0 1 24.086 26.261 1.088 113.590 o
-3 0 2 0.628 0.293 0.700 1273.560 o
-3 0 3 86.488 85.723 4.278 11.339 o
-3 0 4 5.754 6.461 1.332 282.017 o
-3 0 5 20.019 20.145 2.151 84.116 o
-3 0 6 19.333 19.225 2.200 83.985 o
-3 0 7 860.477 880.001 36.082 0.139 o
-3 0 8 917.423 832.784 42.201 0.122 o
-3 0 9 11.870 14.015 2.862 68.343 o
-3 0 10 23.971 30.214 7.664 10.582 o
-3 0 11 45.859 35.298 4.039 24.214 o
-3 1 1 134.594 137.399 3.349 6.295 o
-3 1 2 21.516 22.846 1.019 136.161 o
-3 1 3 2.739 2.429 0.994 553.791 o
-3 1 4 0.033 -0.305 1.593 266.423 o
-3 1 5 123.941 119.061 5.689 6.057 o
-3 1 6 32.254 31.846 2.986 41.774 o
-3 1 7 548.259 553.744 22.094 0.348 o
-3 1 8 449.434 442.272 18.151 0.521 o
-3 1 9 34.033 32.761 3.538 33.212 o
-3 1 10 58.145 59.089 5.327 13.854 o
-3 1 11 0.003 5.683 2.931 77.235 o
-3 2 1 86.894 92.799 2.463 13.591 o
-3 2 2 87.822 79.240 2.328 14.816 o
-3 2 3 89.368 93.512 2.853 12.626 o
-3 2 4 1052.660 1118.680 42.649 0.093 o
-3 2 5 338.253 373.391 15.059 0.819 o
-3 2 6 22.566 25.045 2.986 51.004 o
-3 2 7 41.537 32.839 2.867 37.273 o
-3 2 8 143.919 154.554 7.726 3.918 o
-3 2 9 40.975 35.228 3.966 26.172 o
-3 2 10 0.447 -1.245 2.615 98.570 o
-3 2 11 16.930 20.906 3.143 52.718 o
-3 3 1 7.129 8.378 0.759 476.948 o
-3 3 2 16.867 16.413 0.909 198.503 o
-3 3 3 15.732 13.598 1.101 198.181 o
-3 3 4 1164.470 1193.210 44.532 0.079 o
-3 3 5 464.125 509.206 13.871 0.519 o
-3 3 6 173.063 186.127 8.685 2.864 o
-3 3 7 6.818 6.444 1.688 189.443 o
-3 3 8 23.429 27.643 2.481 61.870 o
-3 3 9 0.624 2.733 2.170 140.355 o
-3 3 10 29.682 33.888 3.633 33.658 o
-3 3 11 1.294 2.544 3.185 65.716 o
-3 3 12 14.270 17.678 3.277 51.909 o
-3 4 1 1915.890 1884.920 41.044 0.036 o
-3 4 2 845.937 896.070 19.761 0.172 o
-3 4 3 9.818 10.446 1.046 290.516 o
-3 4 4 9.974 9.738 0.877 341.167 o
-3 4 5 49.469 52.752 3.017 27.146 o
-3 4 6 6.707 6.868 0.977 401.697 o
-3 4 7 9.930 10.662 1.290 231.385 o
-3 4 8 15.104 15.666 2.895 63.549 o
-3 4 9 91.870 78.280 5.299 9.605 o
-3 4 10 6.717 6.181 4.379 34.015 o
-3 4 11 4.483 -0.382 3.240 62.806 o
-3 4 12 15.786 19.982 3.244 51.170 o
-3 5 1 430.691 450.835 12.589 0.622 o
-3 5 2 170.231 181.018 5.423 3.677 o
-3 5 3 240.409 243.993 5.915 2.072 o
-3 5 4 4.575 6.179 0.903 509.435 o
-3 5 5 1.444 0.110 0.973 658.026 o
-3 5 6 263.380 259.220 8.103 1.663 o
-3 5 7 33.786 34.993 2.043 55.231 o
-3 5 8 1.426 2.126 1.480 290.166 o
-3 5 9 20.556 21.516 2.822 58.335 o
-3 5 10 0.644 -0.597 2.615 98.420 o
-3 5 11 4.425 4.447 6.071 18.130 o
-3 5 12 1.808 4.343 3.057 70.579 o
-3 6 1 4.399 3.085 1.046 460.318 o
-3 6 2 0.681 -0.452 1.179 473.925 o
-3 6 3 49.198 49.055 2.156 34.342 o
-3 6 4 15.544 15.963 1.435 153.544 o
-3 6 5 36.989 37.277 2.173 48.379 o
-3 6 6 35.111 36.465 2.327 48.163 o
-3 6 7 35.174 32.336 2.056 54.911 o
-3 6 8 43.709 44.919 3.040 31.157 o
-3 6 9 8.570 9.316 2.319 105.436 o
-3 6 10 181.100 164.904 8.659 2.906 o
-3 6 11 0.473 0.242 2.561 102.625 o
-3 6 12 2.171 -3.342 5.198 24.911 o
-3 7 1 11.726 10.584 1.350 205.513 o
-3 7 2 1.207 2.248 1.145 468.993 o
-3 7 3 1.301 -0.764 1.142 492.465 o
-3 7 4 69.031 58.398 2.785 20.619 o
-3 7 5 2.620 3.501 1.298 347.381 o
-3 7 6 49.438 46.999 2.845 29.591 o
-3 7 7 194.082 184.620 6.926 2.903 o
-3 7 8 84.300 76.672 4.175 12.315 o
-3 7 9 35.728 35.881 3.002 38.149 o
-3 7 10 0.134 0.362 6.370 16.656 o
-3 7 11 27.605 24.059 3.888 33.154 o
-3 7 12 21.524 23.265 3.512 41.479 o
-3 8 1 44.418 44.163 2.775 33.362 o
-3 8 2 88.926 93.384 4.761 9.977 o
-3 8 3 50.430 45.086 5.043 16.816 o
-3 8 4 43.154 38.344 2.627 37.272 o
-3 8 5 143.825 146.948 5.084 5.009 o
-3 8 6 8.134 6.262 1.695 182.261 o
-3 8 7 41.272 37.261 3.016 34.508 o
-3 8 8 5.494 6.370 1.932 156.161 o
-3 8 9 19.904 21.633 3.024 53.384 o
-3 8 10 1.321 5.239 2.924 76.984 o
-3 8 11 12.810 13.891 3.717 43.260 o
-3 8 12 12.707 13.374 3.372 51.469 o
-3 9 1 9.047 7.217 2.615 86.551 o
-3 9 2 0.566 -3.627 6.768 14.750 o
-3 9 3 0.045 0.082 2.283 129.599 o
-3 9 4 0.937 0.309 1.567 268.980 o
-3 9 5 5.517 2.807 1.584 228.287 o
-3 9 6 59.879 58.165 3.234 21.518 o
-3 9 7 17.944 19.381 2.127 89.984 o
-3 9 8 119.285 108.597 4.673 7.250 o
-3 9 9 10.729 10.208 3.224 57.682 o
-3 9 10 18.307 23.899 3.047 53.143 o
-3 9 11 148.540 173.431 8.145 3.498 o
-3 10 1 12.130 9.484 4.379 32.777 o
-3 10 2 47.959 41.085 5.673 14.887 o
-3 10 3 47.278 36.230 5.972 14.124 o
-3 10 4 4.901 3.245 2.908 76.178 o
-3 10 5 7.967 4.138 3.782 45.002 o
-3 10 6 5.013 8.944 2.560 93.599 o
-3 10 7 3.667 1.409 2.069 148.881 o
-3 10 8 20.486 20.138 2.165 82.668 o
-3 10 9 18.448 18.341 2.469 74.444 o
-3 10 10 24.661 33.205 4.138 29.709 o
-3 10 11 80.280 108.698 6.614 7.663 o
-3 11 1 13.992 11.158 3.756 42.526 o
-3 11 2 10.928 15.909 7.266 12.408 o
-3 11 3 30.462 35.822 6.768 12.726 o
-3 11 4 26.146 23.709 3.940 33.053 o
-3 11 5 10.665 10.700 3.240 57.094 o
-3 11 6 14.501 7.416 2.870 68.621 o
-3 11 7 7.429 16.683 3.187 58.926 o
-3 11 8 63.962 78.379 5.715 11.266 o
-3 11 9 46.547 42.940 6.066 13.559 o
-3 11 10 11.387 5.773 5.972 18.367 o
-3 12 2 0.161 1.306 4.271 36.969 o
-3 12 3 41.624 41.007 8.560 8.007 o
-3 12 4 2.914 5.756 5.275 23.983 o
-3 12 5 19.945 22.454 5.773 18.309 o
-3 12 6 55.512 62.483 4.745 15.887 o
-3 12 7 32.330 52.724 7.138 11.067 o
-3 12 8 256.687 281.629 11.390 1.414 o
-2 -11 1 5.972 9.995 5.076 25.442 o
-2 -10 1 11.579 17.339 8.659 8.796 o
-2 -10 2 5.093 8.412 3.677 47.708 o
-2 -10 3 36.610 35.453 4.778 21.316 o
-2 -9 1 21.478 13.974 3.252 49.333 o
-2 -9 2 0.007 1.194 4.479 33.650 o
-2 -9 3 101.055 98.203 7.754 5.900 o
-2 -9 4 2.757 16.606 4.235 36.062 o
-2 -8 1 43.817 44.585 3.049 31.111 o
-2 -8 2 0.563 -0.015 3.085 70.801 o
-2 -8 3 4.308 4.778 4.379 34.474 o
-2 -8 4 28.219 33.208 3.864 31.624 o
-2 -8 5 58.329 67.229 16.025 2.423 o
-2 -7 1 77.216 78.079 3.234 15.213 o
-2 -7 2 165.411 152.323 5.941 4.005 o
-2 -7 3 38.000 37.837 2.824 38.425 o
-2 -7 4 35.698 32.601 2.186 51.861 o
-2 -7 5 0.137 -3.085 3.519 54.568 o
-2 -7 6 27.223 24.664 3.718 35.432 o
-2 -6 1 39.908 37.343 2.173 45.604 o
-2 -6 2 64.977 72.132 4.146 15.532 o
-2 -6 3 18.900 18.497 1.865 103.137 o
-2 -6 4 14.461 12.082 2.111 106.094 o
-2 -6 5 0.203 1.562 1.417 328.293 o
-2 -6 6 0.151 0.618 1.775 213.035 o
-2 -6 7 13.258 12.971 4.280 33.587 o
-2 -5 1 98.875 102.241 3.528 10.120 o
-2 -5 2 205.237 211.990 6.410 2.619 o
-2 -5 3 9.997 11.288 1.488 192.317 o
-2 -5 4 112.999 110.413 4.587 7.651 o
-2 -5 5 7.326 9.141 2.295 109.641 o
-2 -5 6 216.838 193.218 6.313 2.601 o
-2 -5 7 0.148 1.928 1.749 216.818 o
-2 -5 8 2.806 3.868 2.926 76.382 o
-2 -4 1 74.037 81.018 2.364 17.485 o
-2 -4 2 76.500 71.765 2.476 17.756 o
-2 -4 3 1.602 2.093 1.385 327.176 o
-2 -4 4 3.742 4.301 1.184 381.226 o
-2 -4 5 72.028 63.110 3.249 17.741 o
-2 -4 6 639.639 540.936 20.302 0.310 o
-2 -4 7 10.119 6.338 2.212 113.891 o
-2 -4 8 42.323 31.802 2.473 41.949 o
-2 -4 9 19.553 29.171 3.620 39.170 o
-2 -3 1 189.188 195.115 4.299 3.316 o
-2 -3 2 80.119 92.367 2.822 14.227 o
-2 -3 3 1090.550 1202.400 35.810 0.092 o
-2 -3 4 8.986 13.281 1.143 259.188 o
-2 -3 5 0.862 1.400 2.251 131.282 o
-2 -3 6 0.794 2.193 1.594 255.539 o
-2 -3 7 25.857 21.672 2.049 76.304 o
-2 -3 8 28.751 24.391 2.359 60.760 o
-2 -3 9 22.440 23.253 3.191 47.201 o
-2 -3 10 47.148 58.966 4.889 16.906 o
-2 -2 1 0.143 1.041 0.534 2113.260 o
-2 -2 2 236.323 260.862 5.997 2.024 o
-2 -2 3 737.404 848.509 25.420 0.193 o
-2 -2 4 64.559 71.928 2.546 20.751 o
-2 -2 5 32.807 35.437 1.839 60.080 o
-2 -2 6 11.437 12.697 1.523 174.276 o
-2 -2 7 128.998 112.258 6.101 5.738 o
-2 -2 8 69.822 60.541 4.404 14.926 o
-2 -2 9 0.465 -4.281 4.762 29.782 o
-2 -2 10 0.079 -4.598 2.998 75.180 o
-2 -1 1 10.668 9.500 0.471 451.187 o
-2 -1 2 2.145 2.153 0.345 2224.370 o
-2 -1 3 32.804 33.156 1.154 75.908 o
-2 -1 4 88.734 93.896 2.961 12.542 o
-2 -1 5 0.034 0.590 0.585 1880.600 o
-2 -1 6 19.484 18.758 2.111 88.355 o
-2 -1 7 153.587 149.816 6.321 4.225 o
-2 -1 8 9.418 8.091 2.503 92.266 o
-2 -1 9 9.222 10.937 1.771 156.157 o
-2 -1 10 3.642 3.656 3.583 51.308 o
-2 -1 11 116.801 130.769 7.231 5.181 o
-2 0 1 12.029 10.460 0.743 330.149 o
-2 0 2 159.762 154.763 5.319 4.302 o
-2 0 3 246.030 246.523 8.275 1.825 o
-2 0 4 32.898 32.829 1.470 69.571 o
-2 0 5 4.671 6.938 1.178 348.709 o
-2 0 6 49.440 52.532 2.959 27.584 o
-2 0 7 413.027 422.387 11.809 0.689 o
-2 0 8 31.443 26.615 2.086 62.684 o
-2 0 9 89.882 95.035 4.488 10.192 o
-2 0 10 0.287 -1.707 2.258 132.239 o
-2 0 11 6.844 0.285 3.009 71.093 o
-2 1 1 291.681 295.005 6.112 1.469 o
-2 1 2 146.279 167.734 4.900 4.639 o
-2 1 3 1.483 1.792 0.956 646.619 o
-2 1 4 699.318 647.524 20.799 0.254 o
-2 1 5 54.884 61.719 2.089 28.177 o
-2 1 6 8.628 8.351 0.766 428.388 o
-2 1 7 142.045 144.163 5.936 4.782 o
-2 1 8 305.004 284.653 9.670 1.271 o
-2 1 9 33.032 30.190 2.752 45.582 o
-2 1 10 5.864 4.822 2.526 97.342 o
-2 1 11 12.215 16.003 2.892 66.025 o
-2 1 12 2.585 11.572 3.445 54.368 o
-2 2 1 804.871 828.826 16.745 0.197 o
-2 2 2 33.998 31.113 0.930 79.702 o
-2 2 3 155.806 159.587 3.782 4.775 o
-2 2 4 346.988 351.725 7.357 1.042 o
-2 2 5 3.414 3.592 0.616 964.762 o
-2 2 6 18.334 22.602 1.290 135.399 o
-2 2 7 1.010 2.108 0.817 866.078 o
-2 2 8 430.494 419.339 11.730 0.662 o
-2 2 9 21.924 20.734 2.172 79.317 o
-2 2 10 5.960 3.185 1.977 153.263 o
-2 2 11 76.522 85.355 5.734 9.876 o
-2 2 12 58.954 58.170 8.435 7.371 o
-2 3 1 50.198 58.031 1.840 33.070 o
-2 3 2 44.761 42.291 1.498 46.262 o
-2 3 3 92.006 89.353 2.405 13.119 o
-2 3 4 47.770 52.183 1.768 37.124 o
-2 3 5 57.843 56.009 1.972 28.697 o
-2 3 6 2.988 4.014 0.678 883.221 o
-2 3 7 0.586 -0.037 0.812 980.478 o
-2 3 8 6.980 5.755 1.080 361.646 o
-2 3 9 7.276 4.023 2.497 98.208 o
-2 3 10 55.713 49.239 3.132 24.770 o
-2 3 11 0.263 0.446 4.187 38.510 o
-2 3 12 75.969 82.715 5.621 10.221 o
-2 4 1 180.830 166.310 6.319 3.413 o
-2 4 2 11.229 8.447 0.750 366.877 o
-2 4 3 26.533 26.755 1.127 102.327 o
-2 4 4 52.831 47.349 1.810 34.990 o
-2 4 5 83.309 78.051 2.730 15.105 o
-2 4 6 24.592 22.440 1.265 111.110 o
-2 4 7 50.687 52.597 2.019 33.304 o
-2 4 8 0.468 0.836 1.184 466.702 o
-2 4 9 0.463 -0.714 1.246 429.101 o
-2 4 10 132.188 126.522 6.882 4.947 o
-2 4 11 11.460 10.896 3.156 59.251 o
-2 4 12 63.092 70.932 7.006 9.103 o
-2 5 1 5.737 7.271 0.874 475.217 o
-2 5 2 72.784 77.903 2.814 17.104 o
-2 5 3 262.073 247.260 5.863 1.862 o
-2 5 4 68.393 72.085 2.102 20.879 o
-2 5 5 52.626 52.227 2.286 30.585 o
-2 5 6 6.008 6.843 1.299 287.476 o
-2 5 7 419.905 384.447 10.842 0.729 o
-2 5 8 7.185 7.208 1.110 334.278 o
-2 5 9 252.299 199.036 6.311 2.147 o
-2 5 10 149.890 126.652 4.287 5.468 o
-2 5 11 82.036 89.564 8.162 6.350 o
-2 5 12 32.458 32.650 3.386 35.801 o
-2 5 13 0.012 3.111 3.304 61.446 o
-2 6 1 108.079 115.818 4.051 8.237 o
-2 6 2 378.202 386.830 10.792 0.820 o
-2 6 3 42.346 42.532 2.643 36.300 o
-2 6 4 3.025 2.019 0.965 578.055 o
-2 6 5 0.678 0.704 0.918 753.738 o
-2 6 6 57.159 55.519 2.485 26.544 o
-2 6 7 0.262 0.294 1.383 349.645 o
-2 6 8 169.066 152.678 5.895 3.923 o
-2 6 9 95.144 77.320 3.005 12.751 o
-2 6 10 4.980 0.805 1.870 176.460 o
-2 6 11 35.386 43.136 3.516 30.744 o
-2 6 12 0.830 -4.029 2.636 96.666 o
-2 6 13 1.604 0.555 5.077 26.122 o
-2 7 1 53.294 57.344 3.874 20.409 o
-2 7 2 6.383 5.219 1.092 372.127 o
-2 7 3 187.983 205.363 6.171 2.961 o
-2 7 4 1.684 1.630 1.105 496.668 o
-2 7 5 0.132 1.511 1.052 586.403 o
-2 7 6 2887.640 2659.530 70.856 0.016 o
-2 7 7 815.934 768.356 21.200 0.193 o
-2 7 8 245.812 234.961 7.264 1.957 o
-2 7 9 3.311 1.914 1.523 262.565 o
-2 7 10 26.863 24.571 3.444 39.691 o
-2 7 11 4.971 3.578 2.363 112.313 o
-2 7 12 1.295 5.058 5.893 19.346 o
-2 8 1 29.259 29.245 2.946 45.352 o
-2 8 2 64.109 62.435 4.445 15.550 o
-2 8 3 9.153 12.758 1.695 162.372 o
-2 8 4 79.269 76.313 4.244 12.848 o
-2 8 5 102.689 93.890 5.281 8.244 o
-2 8 6 727.941 653.075 16.199 0.257 o
-2 8 7 94.167 90.301 3.247 11.668 o
-2 8 8 149.850 146.796 4.626 4.961 o
-2 8 9 6.768 5.698 1.649 198.952 o
-2 8 10 11.507 10.879 1.981 125.582 o
-2 8 11 6.314 7.195 2.386 105.644 o
-2 8 12 10.436 6.866 3.035 65.557 o
-2 9 2 15.202 8.689 2.787 70.772 o
-2 9 3 408.462 394.554 16.602 0.633 o
-2 9 4 26.662 19.318 1.638 93.027 o
-2 9 5 0.887 -3.742 4.180 38.587 o
-2 9 6 30.146 28.350 1.825 69.961 o
-2 9 7 84.915 86.523 3.370 13.003 o
-2 9 8 18.386 19.248 1.847 104.605 o
-2 9 9 0.951 -0.321 1.817 201.802 o
-2 9 10 30.610 28.841 2.592 51.143 o
-2 9 11 0.913 4.399 2.433 110.861 o
-2 9 12 16.305 21.830 3.430 46.026 o
-2 10 1 1.243 -1.574 2.916 78.902 o
-2 10 2 16.540 9.265 3.384 50.236 o
-2 10 3 177.826 138.715 7.663 3.411 o
-2 10 4 5.294 4.081 4.180 37.647 o
-2 10 5 26.962 18.115 3.156 46.682 o
-2 10 6 39.506 33.919 3.652 29.619 o
-2 10 7 73.698 83.620 3.904 13.848 o
-2 10 8 33.353 37.660 2.426 47.627 o
-2 10 9 1.087 1.129 1.834 195.865 o
-2 10 10 65.828 69.579 4.918 13.434 o
-2 10 11 3.696 3.435 2.984 73.148 o
-2 11 1 30.759 42.579 6.270 14.207 o
-2 11 2 1.709 1.543 4.379 34.999 o
-2 11 3 20.532 8.329 3.882 38.438 o
-2 11 4 12.697 12.721 4.479 31.038 o
-2 11 5 41.972 29.663 3.874 27.489 o
-2 11 6 4.150 3.981 3.146 65.720 o
-2 11 7 0.078 -1.447 2.593 100.506 o
-2 11 8 13.379 15.516 3.047 59.909 o
-2 11 9 0.375 1.139 2.948 77.336 o
-2 11 10 5.142 6.740 3.170 63.601 o
-2 11 11 47.638 43.952 12.242 4.136 o
-2 12 1 1.090 -6.901 4.050 41.083 o
-2 12 2 154.326 200.426 14.830 1.840 o
-2 12 3 4.647 -0.423 3.874 44.226 o
-2 12 4 3.464 -0.616 7.266 12.758 o
-2 12 5 34.880 36.177 4.960 20.414 o
-2 12 6 27.714 28.252 4.534 25.687 o
-2 12 7 0.527 -1.726 3.128 68.903 o
-2 12 8 9.727 4.944 4.747 28.820 o
-2 12 9 51.398 57.613 4.670 17.227 o
-2 13 5 2.316 -4.838 6.171 17.695 o
-2 13 6 11.712 14.578 4.965 25.643 o
-1 -11 1 8.383 10.146 4.271 35.022 o
-1 -11 2 6.142 0.604 4.235 36.853 o
-1 -10 1 2.519 0.788 3.288 61.608 o
-1 -10 2 18.015 17.628 4.180 33.251 o
-1 -10 3 10.173 13.034 4.158 36.133 o
-1 -9 1 29.804 28.841 4.280 27.454 o
-1 -9 2 1.914 2.535 3.054 71.111 o
-1 -9 3 26.255 31.934 5.474 18.878 o
-1 -9 4 14.867 21.696 4.877 25.547 o
-1 -8 1 279.729 256.318 24.783 0.690 o
-1 -8 2 15.266 15.936 2.436 82.082 o
-1 -8 3 34.265 29.641 7.266 11.214 o
-1 -8 4 46.501 65.988 5.548 14.101 o
-1 -8 5 36.806 59.164 11.745 4.493 o
-1 -8 6 3.919 5.598 3.826 44.850 o
-1 -7 1 2083.270 2084.540 49.573 0.030 o
-1 -7 2 780.483 804.369 21.911 0.196 o
-1 -7 3 25.942 25.835 1.827 80.025 o
-1 -7 4 86.365 82.054 4.023 11.995 o
-1 -7 5 4.321 5.736 2.630 91.480 o
-1 -7 6 21.361 18.609 3.495 42.993 o
-1 -7 7 7.476 4.002 3.611 49.328 o
-1 -6 1 429.482 400.030 12.915 0.662 o
-1 -6 2 554.838 522.246 14.450 0.414 o
-1 -6 3 108.367 97.085 6.287 6.854 o
-1 -6 4 40.548 38.850 3.457 30.087 o
-1 -6 5 14.442 16.410 1.661 135.882 o
-1 -6 6 31.701 37.761 4.490 24.110 o
-1 -6 7 5.411 9.157 2.946 71.974 o
-1 -6 8 11.530 8.018 5.076 24.988 o
-1 -5 1 43.525 51.312 2.038 38.394 o
-1 -5 2 94.101 91.595 3.592 11.145 o
-1 -5 3 13.692 14.880 1.346 177.308 o
-1 -5 4 0.604 0.879 0.903 776.268 o
-1 -5 5 197.037 182.362 5.759 3.068 o
-1 -5 6 49.218 47.959 2.901 29.060 o
-1 -5 7 0.015 1.786 1.724 223.835 o
-1 -5 8 3.259 13.776 3.277 58.942 o
-1 -5 9 60.706 66.686 8.162 7.532 o
-1 -4 1 9.694 10.722 1.277 235.919 o
-1 -4 2 198.232 207.102 5.426 2.890 o
-1 -4 3 20.483 22.568 1.781 98.220 o
-1 -4 4 81.436 76.662 3.524 13.997 o
-1 -4 5 28.502 25.457 1.711 79.049 o
-1 -4 6 12.655 11.468 1.609 160.002 o
-1 -4 7 1.760 5.317 1.548 254.025 o
-1 -4 8 0.822 0.872 1.786 207.618 o
-1 -4 9 0.781 1.695 2.293 126.458 o
-1 -3 1 17.377 21.195 0.915 174.099 o
-1 -3 2 502.731 527.465 12.819 0.475 o
-1 -3 3 222.029 233.946 6.016 2.314 o
-1 -3 4 0.049 0.290 0.845 933.618 o
-1 -3 5 41.009 29.505 2.020 50.564 o
-1 -3 6 41.113 37.298 2.054 46.068 o
-1 -3 7 39.722 35.972 2.242 45.443 o
-1 -3 8 1.169 4.235 1.604 244.887 o
-1 -3 9 0.457 1.715 1.871 189.249 o
-1 -3 10 25.509 35.109 4.569 25.122 o
-1 -2 1 137.424 143.305 3.358 5.998 o
-1 -2 2 310.937 348.955 7.801 1.176 o
-1 -2 3 68.465 73.796 2.025 20.793 o
-1 -2 4 0.115 1.951 0.615 1549.520 o
-1 -2 5 5.700 5.811 0.833 526.039 o
-1 -2 6 27.988 24.985 1.875 75.329 o
-1 -2 7 136.016 123.606 4.280 6.165 o
-1 -2 8 72.705 62.103 3.054 18.292 o
-1 -2 9 42.994 48.362 3.136 29.890 o
-1 -2 10 14.989 19.693 3.101 55.595 o
-1 -2 11 9.854 20.886 5.071 24.494 o
-1 -1 1 1199.020 1233.430 26.669 0.088 o
-1 -1 2 627.512 623.006 13.625 0.327 o
-1 -1 3 235.390 251.473 5.686 2.102 o
-1 -1 4 895.645 978.905 21.372 0.150 o
-1 -1 5 56.202 53.212 1.999 30.120 o
-1 -1 6 122.214 100.794 4.451 7.473 o
-1 -1 7 118.128 109.577 3.746 7.960 o
-1 -1 8 0.635 0.464 1.156 489.251 o
-1 -1 9 1.669 -1.098 1.952 173.404 o
-1 -1 10 70.857 71.580 4.574 13.531 o
-1 -1 11 12.386 17.110 3.234 54.369 o
-1 0 1 705.067 645.939 17.244 0.266 o
-1 0 2 146.001 154.781 3.531 5.303 o
-1 0 3 16.336 15.346 0.619 241.475 o
-1 0 4 196.279 197.868 4.585 3.115 o
-1 0 5 17.184 17.798 0.964 184.365 o
-1 0 6 272.832 272.338 7.708 1.581 o
-1 0 7 348.038 315.655 8.094 1.086 o
-1 0 8 1970.870 1950.500 52.168 0.032 o
-1 0 9 0.788 2.576 1.392 329.671 o
-1 0 10 0.226 -0.350 2.816 85.151 o
-1 0 11 184.607 201.785 8.476 2.644 o
-1 0 12 4.292 2.552 4.156 38.374 o
-1 1 1 123.736 122.390 2.426 7.832 o
-1 1 2 0.683 0.299 0.215 7526.870 o
-1 1 3 35.951 40.901 1.232 61.505 o
-1 1 4 1.843 1.811 0.379 2263.110 o
-1 1 5 502.985 493.329 11.963 0.501 o
-1 1 6 4.821 5.496 0.700 680.816 o
-1 1 7 559.067 545.899 15.257 0.395 o
-1 1 8 847.873 790.699 21.669 0.181 o
-1 1 9 3.872 3.829 1.300 329.113 o
-1 1 10 115.249 116.823 4.563 7.325 o
-1 1 11 2.107 4.684 3.019 72.091 o
-1 1 12 31.165 29.689 3.832 31.560 o
-1 2 1 212.647 216.861 5.359 2.608 o
-1 2 2 739.628 756.045 14.252 0.237 o
-1 2 3 1082.570 1168.550 25.341 0.104 o
-1 2 4 1071.070 1172.910 25.490 0.105 o
-1 2 5 945.016 1081.230 29.817 0.122 o
-1 2 6 29.921 27.729 1.359 83.947 o
-1 2 7 73.117 60.300 3.046 18.433 o
-1 2 8 314.398 290.841 8.526 1.263 o
-1 2 9 74.915 65.928 3.047 17.363 o
-1 2 10 6.545 8.482 3.218 60.663 o
-1 2 11 17.329 19.946 2.758 64.124 o
-1 2 12 48.566 65.358 4.832 16.413 o
-1 3 1 94.546 92.421 2.504 12.387 o
-1 3 2 165.758 178.477 4.102 4.101 o
-1 3 3 202.753 191.042 4.126 3.116 o
-1 3 4 1242.470 1368.950 25.767 0.080 o
-1 3 5 2003.700 2148.300 43.007 0.031 o
-1 3 6 42.301 42.998 1.546 47.991 o
-1 3 7 67.546 75.627 2.818 18.597 o
-1 3 8 32.163 30.119 1.878 64.024 o
-1 3 9 0.265 1.535 1.265 408.429 o
-1 3 10 88.851 90.115 4.454 10.582 o
-1 3 11 10.851 11.928 2.048 119.992 o
-1 3 12 5.468 10.068 2.776 79.849 o
-1 3 13 14.422 24.924 8.361 9.291 o
-1 4 1 1120.250 1160.240 27.738 0.099 o
-1 4 2 2446.570 2618.860 56.608 0.021 o
-1 4 3 173.815 181.650 4.039 3.858 o
-1 4 4 3.015 0.223 0.469 1692.670 o
-1 4 5 330.757 370.380 7.283 1.069 o
-1 4 6 55.170 56.239 1.970 30.015 o
-1 4 7 120.757 109.913 3.287 8.061 o
-1 4 8 3.267 3.752 1.077 458.208 o
-1 4 9 145.713 132.832 4.636 5.377 o
-1 4 10 6.331 6.569 1.561 216.884 o
-1 4 11 20.555 17.352 2.166 85.044 o
-1 4 12 18.550 21.027 2.980 55.837 o
-1 4 13 40.792 55.439 9.456 6.587 o
-1 5 1 753.043 798.308 30.684 0.180 o
-1 5 2 1815.350 2039.530 48.419 0.035 o
-1 5 3 639.583 663.303 18.204 0.289 o
-1 5 4 105.871 111.672 5.653 7.155 o
-1 5 5 160.547 158.686 3.968 4.584 o
-1 5 6 455.955 423.530 9.643 0.642 o
-1 5 7 234.172 208.868 5.643 2.354 o
-1 5 8 3.686 2.478 1.024 501.050 o
-1 5 9 52.640 43.190 2.645 30.431 o
-1 5 10 0.414 6.280 2.020 157.755 o
-1 5 11 27.517 26.857 2.347 61.072 o
-1 5 12 8.289 10.629 2.429 96.919 o
-1 5 13 53.609 62.130 6.517 10.964 o
-1 6 1 3.018 5.382 1.288 335.301 o
-1 6 2 35.251 32.212 1.868 58.404 o
-1 6 3 106.189 102.960 2.890 9.942 o
-1 6 4 107.477 112.483 3.228 9.085 o
-1 6 5 23.296 20.885 1.247 120.028 o
-1 6 6 8.141 7.390 0.875 407.718 o
-1 6 7 81.343 75.531 2.451 16.280 o
-1 6 8 0.194 0.745 1.055 591.296 o
-1 6 9 51.125 45.991 2.384 32.410 o
-1 6 10 185.446 174.572 7.028 3.105 o
-1 6 11 26.921 23.247 2.028 73.823 o
-1 6 12 9.970 7.089 2.321 104.754 o
-1 6 13 20.126 26.429 5.067 22.780 o
-1 7 1 117.100 124.909 10.351 3.690 o
-1 7 2 5.594 4.244 1.755 187.983 o
-1 7 3 23.202 25.711 1.432 102.706 o
-1 7 4 65.031 72.202 2.378 21.102 o
-1 7 5 32.116 24.893 3.474 36.625 o
-1 7 6 145.958 135.320 3.993 5.560 o
-1 7 7 90.389 78.723 2.847 13.611 o
-1 7 8 254.794 237.393 5.945 1.965 o
-1 7 9 0.065 -0.970 1.336 377.976 o
-1 7 10 10.573 9.586 1.657 168.329 o
-1 7 11 11.263 11.103 1.862 137.752 o
-1 7 12 0.181 -0.137 2.514 106.784 o
-1 7 13 20.238 29.669 5.243 21.241 o
-1 8 1 3.145 3.741 2.008 155.753 o
-1 8 2 24.352 19.484 2.381 68.894 o
-1 8 3 156.461 148.678 7.315 3.844 o
-1 8 4 40.172 44.453 2.557 37.988 o
-1 8 5 126.997 121.968 3.675 7.009 o
-1 8 6 27.165 28.571 1.932 71.880 o
-1 8 7 31.907 32.305 1.905 62.198 o
-1 8 8 7.871 6.982 1.295 268.166 o
-1 8 9 62.510 61.730 2.858 21.793 o
-1 8 10 8.338 9.449 2.121 122.585 o
-1 8 11 0.322 0.905 2.240 133.627 o
-1 8 12 35.278 37.164 2.843 40.141 o
-1 8 13 9.826 10.749 6.569 15.226 o
-1 9 1 5.267 4.877 2.430 105.337 o
-1 9 2 1.557 3.040 2.319 121.707 o
-1 9 3 19.453 17.916 2.721 64.260 o
-1 9 4 10.782 12.605 2.533 85.663 o
-1 9 5 0.723 4.149 1.511 277.078 o
-1 9 6 1.027 0.689 1.855 192.348 o
-1 9 7 84.657 77.333 3.582 13.338 o
-1 9 8 37.038 37.832 2.240 47.062 o
-1 9 9 0.125 1.324 1.542 279.426 o
-1 9 10 3.463 6.450 1.972 156.459 o
-1 9 11 137.306 143.683 7.930 4.113 o
-1 9 12 2.540 1.146 3.031 72.205 o
-1 10 1 20.962 18.117 3.252 48.386 o
-1 10 2 121.497 106.891 6.616 5.817 o
-1 10 3 30.649 28.023 3.571 35.282 o
-1 10 4 18.848 7.166 4.977 25.087 o
-1 10 5 0.417 0.929 3.205 65.531 o
-1 10 6 0.532 3.207 3.093 69.808 o
-1 10 7 0.517 0.489 2.389 117.665 o
-1 10 8 65.549 61.107 3.623 18.176 o
-1 10 9 59.401 64.104 3.751 18.735 o
-1 10 10 1.842 5.518 2.557 99.183 o
-1 10 11 136.457 171.142 7.573 3.953 o
-1 10 12 16.635 25.401 4.157 32.883 o
-1 11 1 18.639 15.718 3.778 39.595 o
-1 11 2 15.456 15.872 3.683 42.557 o
-1 11 3 27.727 34.409 4.478 25.486 o
-1 11 4 15.166 15.841 3.485 46.863 o
-1 11 5 6.798 5.301 4.280 35.617 o
-1 11 6 21.752 13.226 4.479 29.177 o
-1 11 7 0.552 4.646 3.306 60.965 o
-1 11 8 52.434 64.692 4.832 15.875 o
-1 11 9 64.281 59.233 4.364 16.047 o
-1 11 10 2.511 -1.398 2.672 92.862 o
-1 11 11 91.263 94.367 6.230 7.892 o
-1 12 1 90.903 120.662 10.451 4.112 o
-1 12 2 15.382 13.931 4.336 32.232 o
-1 12 3 27.470 33.477 5.015 21.495 o
-1 12 4 0.244 -4.816 3.782 47.222 o
-1 12 5 40.497 28.040 4.818 21.025 o
-1 12 6 57.558 62.759 9.456 6.127 o
-1 12 7 4.288 8.437 4.081 39.228 o
-1 12 8 191.267 228.597 12.020 1.910 o
-1 12 9 52.024 60.435 6.635 10.862 o
-1 12 10 109.274 118.684 8.056 5.102 o
-1 13 3 28.795 32.133 5.152 20.488 o
-1 13 4 81.238 86.525 7.341 7.316 o
-1 13 5 104.705 136.894 10.152 3.882 o
-1 13 6 2.007 3.975 6.370 16.566 o
-1 13 7 38.869 43.341 7.365 10.412 o
-1 13 8 79.981 114.994 10.351 4.408 o
0 -11 1 0.195 1.875 4.124 39.623 o
0 -11 2 3.875 -11.063 9.754 7.089 o
0 -10 1 11.889 20.000 3.677 43.265 o
0 -10 2 15.441 19.810 5.773 18.808 o
0 -10 3 20.624 24.675 4.300 30.157 o
0 -9 1 59.955 75.329 5.637 11.959 o
0 -9 2 10.512 9.541 2.965 67.240 o
0 -9 3 33.925 38.217 4.196 25.863 o
0 -9 4 0.808 4.011 3.981 42.231 o
0 -9 5 65.474 70.949 6.211 10.422 o
0 -8 1 68.180 61.980 9.157 6.185 o
0 -8 2 7.478 7.691 2.765 79.647 o
0 -8 3 0.926 -1.108 2.467 110.201 o
0 -8 4 0.875 0.625 2.986 75.298 o
0 -8 5 181.053 189.367 10.030 2.481 o
0 -8 6 10.186 10.905 3.940 40.179 o
0 -7 1 258.417 262.378 11.391 1.454 o
0 -7 2 52.190 52.672 2.238 31.002 o
0 -7 3 63.696 64.702 3.386 19.042 o
0 -7 4 1.904 1.099 4.877 28.262 o
0 -7 5 5.544 4.620 2.576 94.402 o
0 -7 6 1.659 3.810 2.908 78.046 o
0 -7 7 34.225 44.341 4.687 21.503 o
0 -6 1 48.398 57.705 3.571 23.256 o
0 -6 2 212.415 220.415 7.450 2.347 o
0 -6 3 0.047 2.781 1.038 585.083 o
0 -6 4 12.779 11.698 1.888 129.248 o
0 -6 5 0.188 0.112 1.592 265.398 o
0 -6 6 19.067 19.921 2.348 77.367 o
0 -6 7 12.283 17.275 6.569 14.983 o
0 -6 8 9.965 12.014 3.609 47.068 o
0 -5 1 145.569 148.884 4.431 5.146 o
0 -5 2 457.243 506.105 15.897 0.506 o
0 -5 3 17.196 18.050 2.385 80.036 o
0 -5 4 90.221 86.340 3.280 12.406 o
0 -5 5 134.232 132.571 5.674 5.370 o
0 -5 6 223.314 210.853 9.228 2.072 o
0 -5 7 3.736 -0.297 1.875 181.117 o
0 -5 8 3.592 6.403 2.387 110.129 o
0 -5 9 144.618 197.053 13.735 2.088 o
0 -4 1 60.829 65.453 1.633 26.409 o
0 -4 2 84.139 90.653 2.558 14.103 o
0 -4 3 1.952 1.449 0.630 1234.410 o
0 -4 4 44.028 48.111 1.928 40.232 o
0 -4 5 13.262 10.811 1.199 217.353 o
0 -4 6 520.249 454.538 15.464 0.470 o
0 -4 7 184.194 161.211 6.264 3.409 o
0 -4 8 24.859 22.649 3.087 47.991 o
0 -4 9 4.809 10.541 2.651 87.212 o
0 -3 1 1.728 1.188 0.303 3062.260 o
0 -3 2 62.075 61.465 1.699 26.518 o
0 -3 3 768.006 921.655 18.702 0.190 o
0 -3 4 250.080 286.731 7.281 1.713 o
0 -3 5 0.082 -0.660 0.808 1029.530 o
0 -3 6 20.776 12.958 1.271 148.846 o
0 -3 7 43.561 38.909 2.268 40.742 o
0 -3 8 110.756 107.543 4.807 7.709 o
0 -3 9 13.986 15.121 2.311 91.343 o
0 -3 10 13.462 18.010 4.339 32.171 o
0 -2 1 1094.260 1064.090 23.012 0.111 o
0 -2 2 102.899 121.798 2.665 9.501 o
0 -2 3 2085.260 2540.210 50.746 0.026 o
0 -2 4 254.954 327.486 8.172 1.495 o
0 -2 5 175.298 184.009 5.446 3.527 o
0 -2 6 79.540 81.086 5.047 10.988 o
0 -2 7 48.701 50.151 2.730 30.041 o
0 -2 8 296.096 294.645 8.827 1.329 o
0 -2 9 0.391 -1.327 3.981 42.601 o
0 -2 10 13.142 16.255 2.543 79.653 o
0 -2 11 4.367 13.957 3.633 48.135 o
0 -1 1 618.362 625.354 15.252 0.325 o
0 -1 2 225.212 244.317 5.445 2.269 o
0 -1 3 6.204 6.573 0.446 778.893 o
0 -1 4 150.141 197.422 4.367 4.216 o
0 -1 5 73.432 76.835 2.106 18.724 o
0 -1 6 1.987 1.305 0.782 889.693 o
0 -1 7 46.686 46.742 2.273 35.732 o
0 -1 8 26.621 26.401 1.836 77.832 o
0 -1 9 0.013 0.629 1.455 316.927 o
0 -1 10 26.371 33.699 2.818 48.240 o
0 -1 11 67.840 84.481 5.264 11.562 o
0 0 2 2453.320 2419.210 52.030 0.022 o
0 0 3 843.801 984.329 19.766 0.162 o
0 0 4 8.716 10.470 0.554 476.308 o
0 0 5 14.085 13.313 0.753 268.854 o
0 0 6 15.050 20.305 1.062 181.346 o
0 0 7 532.735 578.241 18.647 0.377 o
0 0 8 149.123 158.988 6.251 4.245 o
0 0 9 103.014 112.334 4.220 8.609 o
0 0 10 9.807 9.724 1.910 139.664 o
0 0 11 10.492 9.379 3.484 50.511 o
0 0 12 1.679 0.700 3.874 44.722 o
0 1 1 6.405 6.940 0.345 821.399 o
0 1 2 636.719 672.522 12.642 0.311 o
0 1 3 0.873 0.489 0.230 6020.660 o
0 1 4 1010.910 1168.080 23.485 0.114 o
0 1 5 15.434 16.741 0.762 227.820 o
0 1 6 5.021 10.155 0.836 474.660 o
0 1 7 161.174 161.005 4.440 4.410 o
0 1 8 231.847 223.137 6.775 2.193 o
0 1 9 62.164 61.462 2.931 21.645 o
0 1 10 30.004 29.288 2.243 59.095 o
0 1 11 14.809 17.532 4.085 35.504 o
0 1 12 4.206 7.959 3.712 47.163 o
0 2 0 61.113 71.963 2.190 23.066 o
0 2 1 913.542 949.225 17.806 0.154 o
0 2 2 0.286 0.012 0.198 12463.400 o
0 2 3 355.925 381.529 7.284 0.963 o
0 2 4 447.046 498.369 9.536 0.597 o
0 2 5 14.517 19.653 0.780 219.841 o
0 2 6 23.232 24.737 1.170 116.352 o
0 2 7 37.356 38.748 1.556 56.392 o
0 2 8 271.071 275.496 8.172 1.555 o
0 2 9 242.442 253.669 7.700 1.871 o
0 2 10 6.001 7.713 1.588 209.704 o
0 2 11 66.344 78.199 6.936 8.830 o
0 2 12 11.326 10.895 4.195 35.525 o
0 2 13 27.237 24.286 7.166 11.950 o
0 3 0 254.149 287.646 7.963 1.638 o
0 3 1 88.599 110.914 2.431 12.001 o
0 3 2 652.631 660.002 12.483 0.306 o
0 3 3 242.210 252.341 4.953 2.079 o
0 3 4 119.481 137.770 3.062 7.297 o
0 3 5 2.507 1.675 0.469 1634.950 o
0 3 6 106.726 129.181 3.573 8.201 o
0 3 7 12.083 12.668 0.985 258.964 o
0 3 8 2.807 4.600 0.860 642.118 o
0 3 9 0.353 0.358 1.322 381.020 o
0 3 10 137.481 145.089 6.817 4.544 o
0 3 11 2.343 4.388 1.888 176.167 o
0 3 12 14.140 24.475 5.474 20.643 o
0 3 13 208.532 243.235 18.513 1.154 o
0 4 0 178.588 208.736 8.806 2.618 o
0 4 1 158.864 165.402 4.901 4.292 o
0 4 2 231.034 268.676 5.661 2.062 o
0 4 3 34.642 32.910 1.024 74.563 o
0 4 4 106.516 123.624 2.858 8.945 o
0 4 5 70.057 64.820 2.210 21.193 o
0 4 6 22.587 24.807 1.226 116.088 o
0 4 7 91.084 94.229 2.992 12.149 o
0 4 8 4.477 7.181 0.976 451.286 o
0 4 9 28.158 27.403 1.983 69.723 o
0 4 10 93.356 93.444 3.886 10.735 o
0 4 11 44.045 35.055 2.589 38.182 o
0 4 12 33.364 44.318 4.984 19.850 o
0 4 13 91.665 125.048 8.649 5.121 o
0 5 0 15.269 19.807 1.956 105.322 o
0 5 1 0.320 1.304 0.737 1136.150 o
0 5 2 74.762 73.428 2.161 18.703 o
0 5 3 905.672 931.741 18.916 0.156 o
0 5 4 58.346 71.196 1.810 25.625 o
0 5 5 25.269 22.278 1.028 119.442 o
0 5 6 18.939 19.498 1.117 153.183 o
0 5 7 449.665 440.988 11.073 0.620 o
0 5 8 49.942 49.574 2.448 31.606 o
0 5 9 78.838 60.491 2.891 17.507 o
0 5 10 258.056 225.811 7.262 1.891 o
0 5 11 5.072 7.165 2.043 141.751 o
0 5 12 98.767 117.051 11.446 3.551 o
0 5 13 3.899 10.778 4.855 27.917 o
0 6 0 199.798 188.412 8.301 2.567 o
0 6 1 215.909 214.420 9.219 2.124 o
0 6 2 236.806 209.797 10.252 1.852 o
0 6 3 207.722 238.849 6.826 2.368 o
0 6 4 0.653 0.685 0.750 1100.370 o
0 6 5 35.224 26.404 1.631 67.667 o
0 6 6 49.012 36.039 1.566 44.506 o
0 6 7 28.395 29.657 1.523 80.526 o
0 6 8 18.338 16.484 1.488 134.343 o
0 6 9 267.001 229.006 7.200 1.810 o
0 6 10 61.092 47.365 3.219 22.841 o
0 6 11 9.397 8.919 1.989 133.656 o
0 6 12 0.150 5.559 4.379 34.949 o
0 6 13 9.251 15.799 4.925 26.274 o
0 7 0 195.960 199.808 9.072 2.422 o
0 7 1 3.100 1.095 1.548 259.019 o
0 7 2 33.643 34.952 3.024 39.379 o
0 7 3 49.682 58.992 2.750 27.476 o
0 7 4 66.340 74.915 2.739 19.230 o
0 7 5 21.048 24.812 1.635 100.950 o
0 7 6 1740.160 1679.540 45.087 0.042 o
0 7 7 1690.580 1611.650 38.760 0.046 o
0 7 8 9.005 10.866 1.332 229.991 o
0 7 9 0.001 1.214 1.377 350.725 o
0 7 10 2.870 0.566 1.609 244.107 o
0 7 11 1.697 4.504 2.406 112.252 o
0 7 12 4.545 2.773 3.708 47.877 o
0 7 13 1.301 6.738 4.339 35.373 o
0 8 0 84.211 89.226 5.385 9.656 o
0 8 1 119.092 111.064 7.465 5.284 o
0 8 2 0.382 0.398 1.865 192.646 o
0 8 3 18.052 8.174 2.190 97.454 o
0 8 4 64.444 67.225 2.635 21.195 o
0 8 5 6.148 6.928 1.119 349.753 o
0 8 6 854.670 788.809 25.601 0.171 o
0 8 7 876.355 824.189 22.717 0.168 o
0 8 8 246.156 224.083 6.351 2.080 o
0 8 9 155.856 156.123 4.905 4.519 o
0 8 10 9.457 7.653 1.891 146.377 o
0 8 11 16.816 14.454 2.329 86.158 o
0 8 12 0.586 5.127 3.029 72.256 o
0 8 13 0.010 3.490 3.768 47.296 o
0 9 0 33.486 28.068 5.972 15.809 o
0 9 1 14.447 15.394 2.805 67.547 o
0 9 2 29.164 25.519 3.097 43.987 o
0 9 3 310.807 265.717 11.962 1.177 o
0 9 4 11.664 4.322 2.178 115.681 o
0 9 5 11.792 12.345 1.455 182.734 o
0 9 6 105.053 101.377 3.892 9.205 o
0 9 7 50.498 56.229 5.371 14.802 o
0 9 8 39.213 39.760 2.492 41.060 o
0 9 9 16.286 21.148 2.782 63.760 o
0 9 10 7.185 7.802 2.886 73.893 o
0 9 11 0.805 -3.157 2.097 152.223 o
0 9 12 0.583 -1.947 3.184 66.472 o
0 9 13 16.685 26.624 4.561 27.945 o
0 10 0 0.380 -6.081 3.882 44.813 o
0 10 1 34.359 34.946 5.275 18.759 o
0 10 2 3.063 7.774 2.630 91.717 o
0 10 3 207.379 148.879 10.948 2.260 o
0 10 4 144.491 92.963 8.560 4.259 o
0 10 5 53.009 36.020 4.010 22.414 o
0 10 6 64.052 64.073 4.545 15.118 o
0 10 7 41.465 45.241 4.053 23.963 o
0 10 8 19.500 20.771 2.489 70.660 o
0 10 9 0.047 1.921 1.950 175.375 o
0 10 10 46.213 62.203 3.879 21.538 o
0 10 11 2.554 7.362 3.075 68.615 o
0 10 12 21.288 22.899 5.069 22.854 o
0 11 0 278.663 342.399 30.357 0.495 o
0 11 1 119.274 132.430 7.907 4.714 o
0 11 2 0.011 0.149 3.343 60.469 o
0 11 3 10.990 6.044 6.868 14.003 o
0 11 4 14.739 10.521 3.156 57.273 o
0 11 5 26.127 17.465 3.519 40.538 o
0 11 6 0.002 1.692 3.097 70.179 o
0 11 7 4.801 2.482 4.977 26.884 o
0 11 8 12.195 15.532 3.800 41.516 o
0 11 9 13.609 20.003 2.672 71.180 o
0 11 10 7.096 5.231 2.490 98.159 o
0 11 11 22.419 22.998 3.061 50.138 o
0 11 12 36.823 51.113 5.922 14.597 o
0 12 0 79.132 107.998 9.256 5.230 o
0 12 1 13.718 22.742 7.067 12.873 o
0 12 2 93.048 97.000 8.304 5.741 o
0 12 3 5.884 5.690 3.718 46.876 o
0 12 4 1.271 -0.604 3.854 45.321 o
0 12 5 6.482 7.503 3.869 43.047 o
0 12 6 12.101 12.441 4.223 34.744 o
0 12 7 36.322 37.357 5.136 19.067 o
0 12 8 20.061 23.122 4.639 26.829 o
0 12 9 0.207 2.315 3.672 49.865 o
0 12 10 38.276 61.312 4.918 18.002 o
0 12 11 0.116 5.467 10.351 6.301 o
0 13 3 3.320 -3.525 4.761 29.578 o
0 13 4 29.289 39.980 6.370 14.049 o
0 13 5 12.114 -2.852 4.639 30.133 o
0 13 6 0.635 2.834 4.761 29.680 o
0 13 7 2.386 -2.396 4.136 39.213 o
0 13 8 0.092 3.839 4.714 30.277 o
0 13 9 3.822 8.427 5.044 26.021 o
1 -12 0 0.150 2.469 4.528 32.862 o
1 -11 0 1.290 6.674 4.088 39.799 o
1 -11 1 14.354 20.682 8.460 9.125 o
1 -11 2 6.184 -4.845 10.451 6.168 o
1 -10 0 12.822 12.261 3.240 55.398 o
1 -10 1 7.336 2.474 3.344 57.432 o
1 -10 2 0.177 4.869 7.365 12.430 o
1 -10 3 8.556 15.077 4.379 32.925 o
1 -9 0 56.264 50.624 4.671 16.994 o
1 -9 1 3.423 6.161 3.384 56.958 o
1 -9 2 41.446 39.770 6.967 11.369 o
1 -9 3 1.111 -1.194 3.583 52.420 o
1 -9 4 47.322 51.233 10.550 5.363 o
1 -9 5 43.900 66.588 6.544 11.435 o
1 -8 0 246.983 260.357 28.267 0.607 o
1 -8 1 0.031 1.792 3.085 70.656 o
1 -8 2 37.184 29.265 7.465 10.575 o
1 -8 3 0.587 -1.970 2.576 101.436 o
1 -8 4 3.342 9.860 3.130 65.279 o
1 -8 5 19.376 31.137 4.256 30.154 o
1 -8 6 14.573 25.015 7.166 12.462 o
1 -7 0 248.019 236.026 10.749 1.639 o
1 -7 1 1490.520 1500.040 63.093 0.047 o
1 -7 2 1667.130 1493.110 130.974 0.023 o
1 -7 3 52.707 58.522 4.599 17.217 o
1 -7 4 40.925 42.362 7.963 9.067 o
1 -7 5 114.516 122.809 7.113 5.460 o
1 -7 6 29.191 8.958 5.972 17.018 o
1 -7 7 1.315 -5.412 5.176 25.174 o
1 -6 0 82.071 67.768 5.275 10.967 o
1 -6 1 302.055 272.944 11.466 1.222 o
1 -6 2 848.476 844.283 22.811 0.172 o
1 -6 3 0.508 1.179 1.379 344.905 o
1 -6 4 73.165 69.122 3.566 15.985 o
1 -6 5 23.018 25.266 3.109 47.895 o
1 -6 6 58.431 59.016 4.761 15.650 o
1 -6 7 6.147 7.022 6.569 15.423 o
1 -6 8 7.264 11.594 6.370 16.255 o
1 -5 0 252.711 220.969 9.219 1.791 o
1 -5 1 58.988 59.699 2.500 24.896 o
1 -5 2 153.355 140.182 4.312 5.058 o
1 -5 3 18.028 21.132 2.146 87.174 o
1 -5 4 30.047 29.871 1.972 65.152 o
1 -5 5 148.111 125.583 6.476 4.661 o
1 -5 6 47.875 40.703 3.017 30.407 o
1 -5 7 0.267 0.271 2.423 114.773 o
1 -5 8 0.001 -1.535 2.755 89.105 o
1 -5 9 14.261 8.623 3.864 40.757 o
1 -4 0 30.459 29.167 1.099 87.695 o
1 -4 1 0.232 0.273 0.387 3998.090 o
1 -4 2 189.628 189.467 7.046 2.913 o
1 -4 3 51.656 54.181 2.135 31.533 o
1 -4 4 110.507 106.845 3.630 8.743 o
1 -4 5 7.583 7.080 1.810 165.034 o
1 -4 6 67.531 66.147 3.720 16.912 o
1 -4 7 1.839 -1.606 1.673 233.214 o
1 -4 8 17.814 26.016 2.722 61.743 o
1 -4 9 2.249 2.036 2.606 96.892 o
1 -3 0 449.474 470.468 11.452 0.593 o
1 -3 1 9.849 9.687 0.605 433.124 o
1 -3 2 97.005 108.585 3.251 10.273 o
1 -3 3 667.464 680.981 16.469 0.278 o
1 -3 4 8.341 9.530 1.544 198.393 o
1 -3 5 0.173 -0.837 0.889 845.758 o
1 -3 6 6.361 7.580 1.444 240.065 o
1 -3 7 10.275 8.726 1.601 180.236 o
1 -3 8 6.750 4.206 1.861 165.826 o
1 -3 9 13.629 10.495 2.427 89.077 o
1 -3 10 31.786 43.253 4.400 24.149 o
1 -2 0 2780.020 2798.920 103.727 0.014 o
1 -2 1 346.676 326.784 7.273 1.092 o
1 -2 2 26.147 32.699 0.973 98.592 o
1 -2 3 16.577 17.907 0.998 185.393 o
1 -2 4 10.537 5.152 0.720 438.345 o
1 -2 5 0.005 0.288 0.767 1133.320 o
1 -2 6 1.189 0.577 1.022 601.938 o
1 -2 7 308.554 287.463 9.725 1.246 o
1 -2 8 5.948 5.887 1.576 218.106 o
1 -2 9 94.438 93.162 5.301 8.829 o
1 -2 10 2.827 1.697 2.746 87.184 o
1 -2 11 7.158 3.826 3.731 46.471 o
1 -1 0 138.302 138.174 3.142 6.160 o
1 -1 1 2240.740 2127.190 45.840 0.027 o
1 -1 2 609.190 625.452 13.680 0.338 o
1 -1 3 2.981 3.027 0.390 1600.410 o
1 -1 4 1620.060 1721.390 59.978 0.041 o
1 -1 5 11.784 8.283 0.818 337.209 o
1 -1 6 8.283 6.019 0.874 421.849 o
1 -1 7 178.148 153.702 5.574 3.775 o
1 -1 8 21.878 23.140 1.912 88.032 o
1 -1 9 11.564 8.822 1.909 135.627 o
1 -1 10 49.781 52.791 3.732 22.650 o
1 -1 11 28.419 33.156 6.669 13.267 o
1 0 0 56.008 29.277 1.683 40.266 o
1 0 1 461.843 432.783 8.716 0.634 o
1 0 2 12.339 16.404 0.557 303.119 o
1 0 3 19.198 18.232 0.633 192.907 o
1 0 4 28.067 26.265 0.892 105.409 o
1 0 5 79.725 77.423 2.250 16.810 o
1 0 6 93.594 87.734 2.899 12.374 o
1 0 7 0.312 0.438 1.001 656.171 o
1 0 8 1480.730 1363.810 77.936 0.043 o
1 0 9 151.940 137.798 9.540 3.321 o
1 0 10 0.006 -1.394 3.519 54.604 o
1 0 11 164.235 167.548 8.814 3.100 o
1 0 12 2.754 -1.058 3.769 47.072 o
1 1 0 433.160 406.487 8.805 0.711 o
1 1 1 0.335 0.831 0.223 7610.220 o
1 1 2 34.573 32.175 1.141 73.425 o
1 1 3 72.525 64.673 1.378 22.484 o
1 1 4 31.868 34.556 0.998 79.448 o
1 1 5 196.096 195.993 4.239 3.180 o
1 1 6 119.765 121.245 3.722 7.461 o
1 1 7 212.619 205.092 6.037 2.612 o
1 1 8 1473.400 1453.200 45.011 0.055 o
1 1 9 156.371 138.532 5.410 4.615 o
1 1 10 238.110 227.909 8.281 1.966 o
1 1 11 0.578 -2.049 2.862 82.215 o
1 1 12 6.750 6.418 4.678 29.922 o
1 2 0 1002.660 968.324 21.035 0.132 o
1 2 1 214.601 238.341 5.336 2.442 o
1 2 2 596.316 604.044 13.192 0.357 o
1 2 3 460.904 475.096 10.442 0.584 o
1 2 4 250.643 264.857 6.023 1.875 o
1 2 5 552.535 610.325 13.420 0.386 o
1 2 6 5.475 3.759 0.534 876.802 o
1 2 7 169.963 153.419 4.114 4.338 o
1 2 8 322.061 316.493 9.015 1.156 o
1 2 9 116.494 111.722 4.425 7.508 o
1 2 10 0.198 1.864 2.423 114.028 o
1 2 11 0.665 -1.279 3.252 63.721 o
1 2 12 22.741 30.598 6.569 14.059 o
1 2 13 4.789 5.489 4.291 35.741 o
1 3 0 33.345 36.553 1.081 72.487 o
1 3 1 36.872 29.052 1.053 73.421 o
1 3 2 750.066 788.647 15.961 0.223 o
1 3 3 185.965 179.160 4.183 3.573 o
1 3 4 348.120 382.325 7.931 0.974 o
1 3 5 3724.690 3947.380 78.800 0.009 o
1 3 6 49.457 56.432 2.873 27.334 o
1 3 7 198.657 228.474 6.603 2.572 o
1 3 8 5.049 4.976 0.936 490.795 o
1 3 9 2.549 2.644 1.139 443.404 o
1 3 10 71.266 67.497 6.470 9.645 o
1 3 11 1.479 -1.294 5.474 22.502 o
1 3 12 3.284 3.376 5.474 22.335 o
1 3 13 23.163 25.129 4.842 24.220 o
1 4 0 72.693 70.026 1.839 20.517 o
1 4 1 174.536 189.605 4.135 3.725 o
1 4 2 3090.310 3144.160 62.892 0.014 o
1 4 3 322.619 345.819 7.305 1.149 o
1 4 4 0.913 0.541 0.497 2178.070 o
1 4 5 334.242 396.393 8.306 0.987 o
1 4 6 0.485 0.454 0.652 1461.620 o
1 4 7 244.575 260.513 7.500 1.841 o
1 4 8 1.307 1.324 0.894 745.587 o
1 4 9 112.597 100.845 3.697 8.762 o
1 4 10 4.842 5.920 1.936 158.301 o
1 4 11 13.633 14.922 3.683 43.458 o
1 4 12 0.217 3.644 4.379 35.047 o
1 4 13 74.146 93.004 7.663 7.111 o
1 5 0 232.430 239.215 6.809 2.102 o
1 5 1 167.002 187.112 4.224 3.928 o
1 5 2 2619.310 2875.850 57.485 0.018 o
1 5 3 21.653 15.833 0.778 172.332 o
1 5 4 353.563 381.925 8.049 0.954 o
1 5 5 48.014 47.291 1.671 39.538 o
1 5 6 248.477 238.659 6.191 2.000 o
1 5 7 194.177 185.367 5.639 3.111 o
1 5 8 22.944 20.491 1.548 106.134 o
1 5 9 15.377 15.294 1.791 123.386 o
1 5 10 53.015 51.134 3.085 25.668 o
1 5 11 37.132 30.932 3.712 30.455 o
1 5 12 6.788 0.890 3.571 51.118 o
1 5 13 18.295 19.104 4.714 26.781 o
1 6 0 3.935 3.986 0.710 770.201 o
1 6 1 46.217 50.353 2.526 32.830 o
1 6 2 35.794 47.429 1.885 48.519 o
1 6 3 9.061 7.889 0.753 428.263 o
1 6 4 2.336 1.806 0.631 1155.810 o
1 6 5 192.858 189.956 4.350 3.287 o
1 6 6 22.717 18.652 1.333 122.076 o
1 6 7 7.609 7.374 0.983 374.350 o
1 6 8 35.700 37.267 2.143 50.128 o
1 6 9 0.433 -1.042 1.203 460.435 o
1 6 10 40.535 36.726 2.798 37.502 o
1 6 11 28.226 23.915 2.751 52.146 o
1 6 12 0.803 5.023 3.489 54.682 o
1 6 13 13.451 20.475 4.921 25.436 o
1 7 0 4.893 3.019 1.620 222.821 o
1 7 1 90.643 90.262 6.370 7.883 o
1 7 2 80.626 85.594 3.583 13.320 o
1 7 3 25.702 27.688 1.491 90.372 o
1 7 4 56.163 57.073 2.458 26.776 o
1 7 5 140.249 130.738 3.922 5.948 o
1 7 6 16.586 15.791 1.479 144.557 o
1 7 7 25.476 22.490 1.738 87.950 o
1 7 8 171.620 148.507 4.478 4.275 o
1 7 9 167.741 141.487 6.750 3.845 o
1 7 10 14.809 9.673 1.846 129.852 o
1 7 11 23.489 18.682 2.318 72.860 o
1 7 12 40.994 39.408 4.842 19.777 o
1 7 13 7.376 2.330 4.761 29.077 o
1 8 0 264.964 256.657 11.540 1.425 o
1 8 1 204.351 183.711 8.649 2.485 o
1 8 2 17.771 19.709 3.185 51.481 o
1 8 3 73.276 71.612 5.660 10.852 o
1 8 4 17.556 18.453 1.571 127.135 o
1 8 5 89.953 83.920 3.356 12.495 o
1 8 6 1.598 3.136 1.320 351.425 o
1 8 7 11.125 11.438 1.689 157.318 o
1 8 8 113.772 98.299 3.545 8.898 o
1 8 9 78.058 71.315 3.085 16.038 o
1 8 10 67.654 65.274 7.092 8.863 o
1 8 11 25.589 20.094 2.379 66.893 o
1 8 12 31.890 47.063 11.546 4.745 o
1 8 13 17.857 17.889 5.117 23.281 o
1 9 0 16.383 17.178 3.024 57.749 o
1 9 1 85.019 79.219 5.548 9.745 o
1 9 2 7.393 14.653 5.773 19.584 o
1 9 3 88.237 83.953 5.625 9.201 o
1 9 4 34.627 33.006 2.327 50.288 o
1 9 5 36.546 36.420 2.343 46.630 o
1 9 6 71.760 65.537 5.219 12.239 o
1 9 7 109.082 104.512 5.568 7.248 o
1 9 8 6.047 4.303 1.767 183.717 o
1 9 9 15.951 13.374 2.568 76.759 o
1 9 10 1.344 -2.604 1.730 220.537 o
1 9 11 60.078 67.480 4.145 16.804 o
1 9 12 0.758 -0.044 3.422 57.532 o
1 9 13 23.297 39.439 6.094 15.664 o
1 10 0 32.547 30.411 5.474 18.209 o
1 10 1 23.007 22.987 3.395 42.923 o
1 10 2 132.689 111.039 7.166 5.027 o
1 10 3 12.027 7.884 3.981 39.328 o
1 10 4 58.951 52.347 10.849 4.932 o
1 10 5 10.031 5.418 5.574 21.095 o
1 10 6 5.449 3.229 2.042 145.978 o
1 10 7 0.985 -0.703 2.078 154.705 o
1 10 8 86.908 81.181 4.888 10.541 o
1 10 9 74.168 81.141 3.763 14.281 o
1 10 10 0.260 -0.448 3.090 70.693 o
1 10 11 178.376 193.054 8.766 2.728 o
1 10 12 49.552 64.796 5.353 14.456 o
1 11 0 1.006 4.517 8.261 9.880 o
1 11 1 35.466 35.780 4.818 21.236 o
1 11 2 2.157 0.597 3.519 54.001 o
1 11 3 2.215 10.001 3.511 52.827 o
1 11 4 2.143 -0.207 4.578 32.073 o
1 11 5 3.745 5.329 3.087 68.011 o
1 11 6 1.255 4.278 3.429 56.550 o
1 11 7 2.857 6.171 5.375 23.105 o
1 11 8 56.302 69.937 6.402 10.745 o
1 11 9 20.522 25.698 3.236 46.691 o
1 11 10 1.263 5.529 2.699 89.902 o
1 11 11 17.136 14.643 3.966 37.126 o
1 11 12 64.763 83.613 6.012 10.378 o
1 12 0 4.156 2.901 4.778 29.174 o
1 12 1 19.424 25.691 6.470 14.808 o
1 12 2 61.563 65.118 15.228 2.651 o
1 12 3 0.812 -8.951 3.718 48.766 o
1 12 4 13.973 23.473 7.664 11.009 o
1 12 5 89.600 80.517 8.361 6.062 o
1 12 6 16.544 23.317 5.474 20.456 o
1 12 7 0.062 -1.664 4.278 36.944 o
1 12 8 36.434 60.529 5.867 14.370 o
1 12 9 164.382 173.309 10.546 2.653 o
1 12 10 8.642 17.056 3.723 44.049 o
1 12 11 154.249 167.989 16.124 1.734 o
1 13 3 105.243 131.661 10.311 3.846 o
1 13 4 9.259 -2.833 8.958 8.358 o
1 13 5 205.105 251.845 13.438 1.591 o
1 13 6 14.072 12.994 13.636 3.599 o
1 13 7 0.353 4.949 4.995 26.921 o
1 13 8 212.384 239.254 19.011 1.113 o
1 13 9 45.755 55.273 7.266 9.985 o
2 -11 0 231.133 273.741 13.317 1.416 o
2 -11 1 41.259 50.365 12.342 4.101 o
2 -10 0 12.988 19.353 6.569 14.902 o
2 -10 1 2.555 10.049 3.782 45.654 o
2 -10 2 30.184 21.677 8.062 9.580 o
2 -10 3 2.323 3.586 4.158 38.571 o
2 -9 0 178.630 178.816 8.956 2.781 o
2 -9 1 50.606 47.619 4.392 19.554 o
2 -9 2 70.914 70.755 8.659 6.510 o
2 -9 3 0.719 0.995 3.099 69.943 o
2 -9 4 1.446 -3.297 3.708 48.904 o
2 -8 0 2.726 3.576 1.952 165.706 o
2 -8 1 32.228 26.198 3.429 36.884 o
2 -8 2 30.704 22.711 3.205 42.039 o
2 -8 3 1.546 4.554 2.560 99.716 o
2 -8 4 36.899 37.347 7.963 9.308 o
2 -8 5 163.254 184.327 31.253 0.601 o
2 -8 6 64.861 56.733 6.967 9.478 o
2 -7 0 125.597 138.684 11.347 3.107 o
2 -7 1 418.696 413.046 17.025 0.596 o
2 -7 2 32.521 35.044 2.455 49.100 o
2 -7 3 43.108 39.483 3.712 26.852 o
2 -7 4 22.346 27.429 8.361 9.083 o
2 -7 5 1.627 -0.458 2.832 83.363 o
2 -7 6 0.722 3.026 5.972 18.892 o
2 -7 7 10.807 11.100 4.158 36.210 o
2 -6 0 17.278 15.922 1.638 127.865 o
2 -6 1 145.352 142.017 5.405 4.919 o
2 -6 2 179.578 175.367 5.444 3.529 o
2 -6 3 18.986 19.503 1.696 111.702 o
2 -6 4 20.359 20.184 2.145 83.737 o
2 -6 5 1.651 0.995 2.393 115.679 o
2 -6 6 5.998 7.763 2.986 70.278 o
2 -6 7 17.611 12.271 3.495 46.333 o
2 -6 8 0.858 -4.067 11.645 4.984 o
2 -5 0 29.661 35.446 2.360 53.487 o
2 -5 1 12.213 12.678 1.029 248.964 o
2 -5 2 334.218 344.016 8.648 1.068 o
2 -5 3 5.691 7.151 1.125 353.309 o
2 -5 4 18.522 14.824 2.097 95.038 o
2 -5 5 163.701 156.787 6.191 3.922 o
2 -5 6 53.010 53.576 3.777 21.428 o
2 -5 7 8.165 5.859 2.388 103.691 o
2 -5 8 2.663 3.968 3.659 49.468 o
2 -5 9 115.659 126.385 11.148 3.384 o
2 -4 0 4.927 7.469 0.687 633.262 o
2 -4 1 2.057 2.355 0.663 1080.580 o
2 -4 2 2.338 2.938 0.787 802.355 o
2 -4 3 0.843 0.962 0.780 994.888 o
2 -4 4 123.526 123.515 3.769 7.122 o
2 -4 5 3.764 6.022 1.433 271.043 o
2 -4 6 245.500 208.118 7.695 2.044 o
2 -4 7 448.965 418.460 15.500 0.576 o
2 -4 8 10.815 8.756 2.430 94.503 o
2 -4 9 0.266 1.443 3.300 61.799 o
2 -3 0 77.579 86.889 2.299 16.151 o
2 -3 1 70.897 70.123 2.908 18.192 o
2 -3 2 205.076 217.998 6.565 2.561 o
2 -3 3 90.677 100.886 2.733 12.071 o
2 -3 4 426.250 453.889 10.307 0.659 o
2 -3 5 1.626 2.801 1.199 419.712 o
2 -3 6 40.501 33.031 4.360 23.589 o
2 -3 7 80.983 63.150 3.645 14.916 o
2 -3 8 64.767 66.678 5.300 12.740 o
2 -3 9 39.790 39.938 3.719 27.839 o
2 -3 10 5.033 4.372 3.587 50.672 o
2 -2 0 30.372 27.378 0.992 93.196 o
2 -2 1 763.225 773.712 16.971 0.218 o
2 -2 2 0.597 0.993 0.461 2501.020 o
2 -2 3 1283.750 1435.690 53.224 0.060 o
2 -2 4 637.905 735.075 16.266 0.280 o
2 -2 5 123.782 118.580 4.431 6.859 o
2 -2 6 15.953 14.018 1.311 169.883 o
2 -2 7 3.347 4.054 1.373 304.793 o
2 -2 8 213.208 216.951 7.958 2.295 o
2 -2 9 2.507 3.551 2.230 129.279 o
2 -2 10 3.137 3.074 3.109 67.966 o
2 -2 11 11.601 14.161 4.009 38.092 o
2 -1 0 1221.200 1268.220 25.441 0.086 o
2 -1 1 87.300 95.609 2.594 13.125 o
2 -1 2 36.624 39.196 1.234 61.767 o
2 -1 3 46.553 53.021 1.547 39.323 o
2 -1 4 109.220 125.492 3.175 8.425 o
2 -1 5 45.259 46.157 2.176 37.752 o
2 -1 6 0.867 -0.491 1.237 428.787 o
2 -1 7 40.441 38.285 2.392 41.937 o
2 -1 8 1.223 2.644 1.537 269.803 o
2 -1 9 0.902 0.375 1.745 217.791 o
2 -1 10 0.000 0.398 3.583 52.619 o
2 -1 11 15.677 16.155 4.479 30.130 o
2 0 0 25192.700 18261.400 392.439 0.000 o
2 0 1 8400.380 7502.810 149.570 0.002 o
2 0 2 367.189 364.447 8.828 0.922 o
2 0 3 71.667 76.435 1.963 19.585 o
2 0 4 14.432 14.685 0.753 254.376 o
2 0 5 26.068 23.559 1.204 106.516 o
2 0 6 2.771 3.170 0.723 863.639 o
2 0 7 138.666 143.352 4.511 5.499 o
2 0 8 340.088 330.862 9.589 1.043 o
2 0 9 2.558 3.673 1.676 220.042 o
2 0 10 81.439 82.466 5.867 9.402 o
2 0 11 0.228 2.800 4.877 28.320 o
2 0 12 44.340 36.990 4.733 20.003 o
2 1 0 6094.210 5571.350 148.121 0.004 o
2 1 1 1884.400 1905.330 41.167 0.036 o
2 1 2 2847.360 2803.140 66.295 0.016 o
2 1 3 3.682 4.435 0.633 875.629 o
2 1 4 76.991 74.385 2.559 17.145 o
2 1 5 296.943 278.574 11.325 1.239 o
2 1 6 0.003 0.379 0.535 2285.090 o
2 1 7 25.750 29.191 1.528 87.073 o
2 1 8 132.615 141.105 4.540 5.794 o
2 1 9 31.514 26.420 2.946 44.758 o
2 1 10 28.591 26.731 3.511 37.328 o
2 1 11 20.573 20.608 3.489 43.003 o
2 1 12 0.471 -1.614 3.854 45.453 o
2 2 0 503.501 512.071 11.350 0.495 o
2 2 1 21.923 21.953 0.843 146.031 o
2 2 2 460.251 480.975 11.606 0.568 o
2 2 3 226.343 236.865 5.866 2.262 o
2 2 4 38.129 39.501 1.703 52.826 o
2 2 5 11.736 12.263 1.408 190.335 o
2 2 6 153.538 146.452 12.043 2.567 o
2 2 7 65.767 61.770 3.712 17.747 o
2 2 8 37.335 35.897 1.767 55.057 o
2 2 9 554.613 571.012 19.153 0.360 o
2 2 10 0.639 3.559 2.488 106.868 o
2 2 11 11.225 12.820 4.180 35.553 o
2 2 12 12.330 9.850 3.967 39.239 o
2 3 0 104.513 116.668 2.939 9.390 o
2 3 1 12.303 13.377 0.707 305.487 o
2 3 2 156.653 140.871 3.421 5.186 o
2 3 3 137.856 150.148 3.658 5.711 o
2 3 4 1.533 2.126 0.421 2093.450 o
2 3 5 1.689 1.287 1.049 549.889 o
2 3 6 135.905 127.807 6.048 5.214 o
2 3 7 21.439 19.019 3.683 39.483 o
2 3 8 2.729 2.886 1.692 217.320 o
2 3 9 7.002 6.349 1.203 310.384 o
2 3 10 82.238 76.555 8.261 6.467 o
2 3 11 4.169 4.479 3.097 67.609 o
2 3 12 2.270 0.507 4.280 36.629 o
2 3 13 221.813 206.409 11.466 1.840 o
2 4 0 87.580 87.604 2.431 13.956 o
2 4 1 222.905 230.410 6.643 2.263 o
2 4 2 68.969 74.151 1.952 20.764 o
2 4 3 38.806 36.691 1.394 58.119 o
2 4 4 26.888 32.427 1.395 84.578 o
2 4 5 78.330 72.259 2.483 17.249 o
2 4 6 0.457 1.482 0.556 1811.980 o
2 4 7 6.995 6.544 1.293 280.276 o
2 4 8 28.199 31.472 1.546 78.328 o
2 4 9 5.970 7.347 1.459 240.513 o
2 4 10 10.360 11.527 2.916 68.559 o
2 4 11 10.229 11.571 3.369 53.240 o
2 4 12 0.007 6.468 3.869 44.612 o
2 4 13 66.493 85.595 7.811 7.399 o
2 5 0 41.815 44.834 2.060 42.047 o
2 5 1 106.479 118.967 3.856 8.397 o
2 5 2 36.369 35.516 1.475 61.392 o
2 5 3 322.819 304.442 7.123 1.244 o
2 5 4 183.941 189.125 5.070 3.364 o
2 5 5 5.570 5.615 0.909 483.816 o
2 5 6 0.153 1.393 0.977 676.794 o
2 5 7 148.958 155.069 4.249 4.967 o
2 5 8 22.607 22.870 1.603 100.837 o
2 5 9 2.661 5.878 1.174 391.385 o
2 5 10 152.385 118.025 9.953 3.336 o
2 5 11 82.162 81.510 6.611 8.312 o
2 5 12 105.540 100.480 12.232 3.251 o
2 5 13 63.128 65.136 16.423 2.303 o
2 6 0 229.847 227.980 6.763 2.189 o
2 6 1 0.031 -0.088 0.887 856.799 o
2 6 2 10.434 9.408 1.110 272.899 o
2 6 3 5.273 4.246 0.982 465.140 o
2 6 4 47.300 48.285 1.899 37.903 o
2 6 5 235.279 235.510 6.351 2.131 o
2 6 6 135.352 135.884 4.471 5.820 o
2 6 7 30.059 33.178 2.586 49.797 o
2 6 8 99.083 97.212 3.650 10.222 o
2 6 9 294.696 272.790 9.518 1.356 o
2 6 10 250.836 194.266 14.133 1.442 o
2 6 11 0.874 2.098 3.343 59.928 o
2 6 12 12.451 5.985 6.569 15.216 o
2 6 13 21.630 17.261 7.465 11.428 o
2 7 0 38.903 43.952 2.299 42.054 o
2 7 1 168.191 158.808 5.008 4.097 o
2 7 2 0.009 0.905 1.264 416.801 o
2 7 3 119.456 116.058 4.015 7.464 o
2 7 4 142.822 143.082 4.268 5.428 o
2 7 5 16.267 16.401 1.607 133.376 o
2 7 6 348.514 330.574 9.800 1.008 o
2 7 7 1406.230 1368.480 33.114 0.066 o
2 7 8 118.322 109.454 3.576 8.069 o
2 7 9 3.376 3.229 1.496 265.761 o
2 7 10 0.082 2.488 3.941 43.328 o
2 7 11 5.878 4.902 3.538 51.675 o
2 7 12 27.806 35.557 13.138 3.772 o
2 7 13 4.032 0.890 4.566 32.014 o
2 8 0 351.806 359.344 20.662 0.650 o
2 8 1 68.538 71.407 3.448 17.006 o
2 8 2 141.967 143.127 4.689 5.300 o
2 8 3 98.558 97.356 4.422 9.381 o
2 8 4 1.505 2.416 1.265 385.503 o
2 8 5 190.572 192.201 6.336 2.999 o
2 8 6 479.691 470.922 13.581 0.527 o
2 8 7 1844.370 1828.970 49.317 0.037 o
2 8 8 55.218 58.173 6.350 11.388 o
2 8 9 385.938 341.153 11.504 0.841 o
2 8 10 13.645 13.629 3.025 61.146 o
2 8 11 9.421 10.461 4.017 39.024 o
2 8 12 8.310 9.268 4.687 29.427 o
2 8 13 0.924 0.685 7.763 11.205 o
2 9 0 0.104 -0.199 2.663 95.246 o
2 9 1 19.174 20.508 3.165 50.799 o
2 9 2 17.904 24.774 3.071 52.509 o
2 9 3 157.964 144.340 6.625 4.083 o
2 9 4 12.869 5.565 1.834 144.831 o
2 9 5 25.902 26.192 2.576 57.416 o
2 9 6 123.880 114.991 4.687 6.793 o
2 9 7 74.582 65.395 3.644 15.857 o
2 9 8 57.458 57.641 3.412 21.471 o
2 9 9 3.882 5.358 1.659 212.930 o
2 9 10 1.682 0.118 3.641 50.648 o
2 9 11 6.585 8.561 3.285 58.341 o
2 9 12 4.974 6.352 3.899 42.925 o
2 9 13 14.564 18.077 4.736 27.276 o
2 10 0 1.832 -0.424 4.180 38.470 o
2 10 1 63.160 54.260 5.125 14.149 o
2 10 2 6.385 7.564 3.097 65.510 o
2 10 3 163.629 137.931 11.347 2.673 o
2 10 4 288.198 251.180 11.962 1.301 o
2 10 5 46.064 41.641 3.370 28.118 o
2 10 6 34.382 27.386 2.775 45.240 o
2 10 7 12.768 10.104 4.634 29.350 o
2 10 8 0.010 3.665 2.255 130.415 o
2 10 9 7.751 7.942 3.850 43.052 o
2 10 10 13.057 13.556 5.972 18.035 o
2 10 11 0.871 -0.501 3.433 57.141 o
2 10 12 16.681 18.203 4.476 29.754 o
2 11 0 209.379 224.918 15.228 1.459 o
2 11 1 138.541 158.960 9.353 3.427 o
2 11 2 0.000 10.749 5.574 21.532 o
2 11 3 0.141 -2.061 3.571 52.997 o
2 11 4 22.644 18.979 5.872 17.671 o
2 11 5 0.014 -1.593 3.237 64.503 o
2 11 6 14.252 15.334 4.496 30.289 o
2 11 7 27.733 30.620 4.195 28.611 o
2 11 8 4.254 5.177 3.258 61.129 o
2 11 9 27.748 23.527 3.218 43.323 o
2 11 10 32.107 32.978 5.418 18.409 o
2 11 11 1.585 -0.890 3.826 45.912 o
2 12 1 70.764 116.025 18.901 1.698 o
2 12 2 15.742 20.700 5.044 23.992 o
2 12 3 41.788 53.129 6.569 12.002 o
2 12 4 15.652 18.436 9.555 7.204 o
2 12 5 0.028 -2.667 4.195 38.422 o
2 12 6 0.721 -3.563 4.216 37.962 o
2 12 7 99.428 111.520 11.735 3.456 o
2 12 8 7.947 17.320 7.465 11.832 o
2 12 9 22.969 13.469 4.984 23.994 o
2 12 10 50.471 68.080 9.953 5.720 o
2 13 4 76.873 69.454 7.082 8.275 o
2 13 5 2.728 8.018 5.266 24.005 o
2 13 6 12.970 10.451 7.266 12.428 o
2 13 7 7.030 -5.823 10.152 6.531 o
2 13 8 2.306 -6.637 4.902 27.982 o
3 -11 0 18.629 21.425 4.589 27.779 o
3 -10 0 0.183 0.208 8.261 9.905 o
3 -10 1 6.784 5.021 6.669 14.984 o
3 -10 2 4.324 1.329 3.677 48.908 o
3 -9 0 41.518 51.215 5.972 13.959 o
3 -9 1 41.178 40.416 9.256 6.997 o
3 -9 2 42.310 52.616 4.974 17.788 o
3 -9 3 3.904 2.986 3.585 51.283 o
3 -9 4 32.630 28.645 5.972 15.861 o
3 -8 0 69.888 73.420 5.157 12.157 o
3 -8 1 50.376 44.929 6.669 11.422 o
3 -8 2 7.675 7.079 2.761 79.949 o
3 -8 3 0.009 -7.004 4.578 32.253 o
3 -8 4 2.533 0.358 4.778 29.425 o
3 -8 5 18.562 17.279 3.917 37.025 o
3 -7 0 303.800 315.807 9.160 1.229 o
3 -7 1 264.985 258.333 9.050 1.592 o
3 -7 2 1574.180 1559.580 48.944 0.048 o
3 -7 3 3.896 2.335 2.467 105.693 o
3 -7 4 0.389 -1.666 3.782 47.198 o
3 -7 5 117.424 125.339 7.461 5.114 o
3 -7 6 0.266 1.880 3.527 54.078 o
3 -6 0 2.175 7.633 1.465 267.646 o
3 -6 1 198.348 194.847 7.442 2.681 o
3 -6 2 1156.090 1259.970 33.887 0.086 o
3 -6 3 35.812 38.712 3.072 36.426 o
3 -6 4 117.905 126.430 5.564 6.243 o
3 -6 5 0.012 1.603 2.813 85.002 o
3 -6 6 50.686 61.204 5.243 14.909 o
3 -6 7 6.694 9.860 7.664 11.343 o
3 -5 0 1.005 -0.574 0.867 840.592 o
3 -5 1 20.081 19.367 1.430 125.246 o
3 -5 2 47.827 44.838 2.299 35.390 o
3 -5 3 45.474 37.682 2.547 36.845 o
3 -5 4 19.944 19.429 2.137 85.556 o
3 -5 5 17.739 16.535 2.220 88.314 o
3 -5 6 24.586 24.163 2.809 53.891 o
3 -5 7 10.169 7.262 3.074 64.104 o
3 -5 8 1.017 -6.171 4.379 35.154 o
3 -4 0 7.869 5.850 1.149 320.243 o
3 -4 1 61.166 55.379 2.659 24.157 o
3 -4 2 37.753 38.662 2.044 48.823 o
3 -4 3 31.425 35.631 2.520 48.688 o
3 -4 4 58.343 57.958 4.075 18.332 o
3 -4 5 8.620 7.283 1.691 178.240 o
3 -4 6 99.944 98.868 6.200 7.319 o
3 -4 7 4.892 6.108 2.339 112.547 o
3 -4 8 15.928 16.367 3.644 43.036 o
3 -4 9 1.443 1.013 3.792 46.666 o
3 -3 0 110.080 110.886 2.912 9.160 o
3 -3 1 12.845 11.470 1.040 246.537 o
3 -3 2 20.393 18.267 1.197 142.486 o
3 -3 3 418.811 436.572 12.215 0.660 o
3 -3 4 8.871 10.247 1.361 227.615 o
3 -3 5 0.181 1.416 1.871 190.519 o
3 -3 6 0.127 -0.600 1.544 282.721 o
3 -3 7 27.231 26.235 2.684 53.503 o
3 -3 8 2.136 4.663 3.264 61.885 o
3 -3 9 2.923 6.840 3.681 48.458 o
3 -3 10 2.488 6.335 4.256 36.618 o
3 -2 0 667.898 675.094 14.911 0.285 o
3 -2 1 128.993 125.786 3.546 6.842 o
3 -2 2 91.734 84.192 2.925 12.863 o
3 -2 3 10.170 12.104 1.161 248.760 o
3 -2 4 15.636 17.476 1.320 160.421 o
3 -2 5 15.200 14.501 1.335 170.328 o
3 -2 6 1.333 2.157 1.169 450.311 o
3 -2 7 113.443 113.517 5.024 7.187 o
3 -2 8 10.488 10.505 2.236 107.047 o
3 -2 9 19.438 18.754 4.578 27.995 o
3 -2 10 2.737 -3.703 8.560 9.208 o
3 -1 0 78.478 76.597 2.039 17.597 o
3 -1 1 138.696 156.385 4.666 5.180 o
3 -1 2 18.194 19.176 0.948 172.755 o
3 -1 3 46.686 47.359 2.108 36.934 o
3 -1 4 409.926 435.457 14.539 0.637 o
3 -1 5 21.553 21.401 1.436 115.325 o
3 -1 6 8.872 6.267 1.121 312.296 o
3 -1 7 48.322 49.252 3.075 27.922 o
3 -1 8 5.999 5.858 2.886 75.539 o
3 -1 9 112.451 111.436 10.749 3.698 o
3 -1 10 6.468 8.902 3.444 53.402 o
3 -1 11 90.503 87.023 10.550 4.350 o
3 0 0 115.977 129.846 3.438 7.597 o
3 0 1 181.390 199.800 4.328 3.425 o
3 0 2 65.637 62.984 1.926 23.939 o
3 0 3 131.829 130.114 4.374 6.165 o
3 0 4 94.694 91.308 2.561 12.381 o
3 0 5 5.361 5.006 0.686 677.291 o
3 0 6 24.497 24.380 2.931 51.032 o
3 0 7 92.502 87.639 3.735 11.366 o
3 0 8 344.282 347.976 11.714 0.937 o
3 0 9 385.373 376.775 16.235 0.692 o
3 0 10 9.865 12.899 3.146 59.943 o
3 0 11 72.810 76.528 9.356 5.691 o
3 1 0 24.225 27.159 1.601 90.737 o
3 1 1 533.460 548.778 12.159 0.438 o
3 1 2 94.798 102.296 2.535 11.639 o
3 1 3 403.554 390.971 9.590 0.779 o
3 1 4 49.917 43.326 3.285 26.970 o
3 1 5 1.438 1.628 1.142 473.440 o
3 1 6 233.706 233.578 10.123 1.801 o
3 1 7 4.191 3.360 1.755 195.929 o
3 1 8 1336.100 1363.770 52.498 0.060 o
3 1 9 483.960 450.241 31.253 0.329 o
3 1 10 201.748 189.721 12.939 1.851 o
3 1 11 1.687 -0.264 3.587 52.170 o
3 1 12 1.695 -1.831 6.868 14.307 o
3 2 0 3.175 3.591 0.671 895.832 o
3 2 1 913.490 944.230 20.694 0.151 o
3 2 2 46.217 43.629 1.716 42.214 o
3 2 3 3.908 4.324 0.546 990.716 o
3 2 4 2.251 1.831 0.994 578.216 o
3 2 5 129.797 136.648 6.394 5.103 o
3 2 6 0.012 2.484 1.991 167.788 o
3 2 7 100.285 99.288 5.441 8.056 o
3 2 8 305.798 305.854 13.211 1.065 o
3 2 9 207.436 189.518 9.277 2.322 o
3 2 10 1.546 0.204 4.081 40.383 o
3 2 11 14.972 19.019 6.171 16.666 o
3 2 12 7.988 7.494 4.303 34.861 o
3 3 0 37.822 43.301 1.477 53.873 o
3 3 1 0.004 0.505 0.623 1683.470 o
3 3 2 495.484 487.256 14.447 0.490 o
3 3 3 55.676 52.762 2.607 27.097 o
3 3 4 35.651 34.169 1.724 59.160 o
3 3 5 2287.930 2378.700 89.719 0.020 o
3 3 6 221.108 231.478 10.058 1.910 o
3 3 7 112.912 121.386 6.174 6.172 o
3 3 8 2.959 2.183 2.289 123.369 o
3 3 9 0.833 2.544 2.487 107.290 o
3 3 10 26.030 21.989 3.511 39.649 o
3 3 11 8.536 5.610 3.395 54.659 o
3 3 12 1.632 -1.269 5.773 20.234 o
3 4 0 43.399 41.236 1.869 44.305 o
3 4 1 20.428 20.943 1.063 144.384 o
3 4 2 1348.380 1436.670 34.771 0.066 o
3 4 3 60.600 65.045 2.430 23.598 o
3 4 4 9.614 10.019 1.207 255.777 o
3 4 5 73.861 81.933 4.224 13.240 o
3 4 6 136.503 139.350 6.817 4.654 o
3 4 7 178.683 178.938 8.431 2.888 o
3 4 8 71.683 79.550 5.243 11.467 o
3 4 9 43.288 46.289 4.195 22.433 o
3 4 10 0.208 -3.063 4.877 28.413 o
3 4 11 4.815 3.614 3.587 50.850 o
3 4 12 12.423 14.176 4.560 29.948 o
3 4 13 83.451 95.662 20.394 1.475 o
3 5 0 25.951 24.427 1.711 85.680 o
3 5 1 11.531 6.729 1.218 250.306 o
3 5 2 964.489 976.987 23.733 0.135 o
3 5 3 450.892 473.883 11.801 0.584 o
3 5 4 168.344 164.438 5.315 3.944 o
3 5 5 46.833 43.449 2.121 38.098 o
3 5 6 54.058 53.371 2.264 29.692 o
3 5 7 42.176 39.581 3.571 28.318 o
3 5 8 74.349 70.919 5.343 11.425 o
3 5 9 1.891 7.401 2.742 85.931 o
3 5 10 139.145 147.507 8.374 3.861 o
3 5 11 8.669 8.678 3.769 44.422 o
3 5 12 46.751 50.081 5.751 14.257 o
3 5 13 6.898 2.397 5.277 23.811 o
3 6 0 20.657 19.168 1.760 103.489 o
3 6 1 16.951 16.741 1.553 134.369 o
3 6 2 347.329 351.118 9.131 0.997 o
3 6 3 1.784 2.674 1.141 456.365 o
3 6 4 113.008 121.001 3.807 7.875 o
3 6 5 235.792 238.012 7.253 2.036 o
3 6 6 89.064 89.059 3.870 11.491 o
3 6 7 109.977 107.869 3.851 8.561 o
3 6 8 19.094 18.851 1.848 103.175 o
3 6 9 21.205 25.558 4.280 30.126 o
3 6 10 7.110 5.375 3.519 51.689 o
3 6 11 17.039 13.371 5.872 18.343 o
3 6 12 3.604 8.858 4.645 30.567 o
3 6 13 10.820 16.134 5.625 20.278 o
3 7 0 260.603 269.151 9.454 1.558 o
3 7 1 7.699 8.710 1.485 216.691 o
3 7 2 155.531 146.821 5.201 4.582 o
3 7 3 0.364 -0.391 1.317 385.752 o
3 7 4 230.316 211.980 6.740 2.273 o
3 7 5 69.915 63.897 3.505 17.330 o
3 7 6 11.541 12.684 1.627 160.164 o
3 7 7 106.167 105.494 4.103 8.739 o
3 7 8 28.293 27.997 3.304 40.288 o
3 7 9 221.871 224.108 11.120 1.816 o
3 7 10 0.459 -1.465 3.728 48.562 o
3 7 11 56.989 54.237 5.840 12.738 o
3 7 12 28.118 28.160 5.266 20.139 o
3 7 13 0.091 10.252 6.270 17.056 o
3 8 0 22.416 23.898 3.662 38.391 o
3 8 1 470.162 457.696 15.238 0.527 o
3 8 2 5.344 1.806 1.699 205.844 o
3 8 3 6.360 7.470 1.902 155.765 o
3 8 4 42.842 42.443 2.755 34.900 o
3 8 5 59.682 57.851 3.273 21.446 o
3 8 6 12.311 11.251 1.807 139.535 o
3 8 7 18.010 19.064 2.096 91.762 o
3 8 8 80.453 66.573 4.536 12.702 o
3 8 9 0.330 0.166 3.240 64.288 o
3 8 10 78.370 81.046 9.555 5.336 o
3 8 11 1.743 7.411 4.534 32.354 o
3 8 12 5.762 1.435 5.015 26.448 o
3 8 13 25.733 21.737 6.394 14.851 o
3 9 0 0.083 -10.152 4.180 38.681 o
3 9 1 31.589 35.565 3.934 29.337 o
3 9 2 25.137 27.408 2.511 59.252 o
3 9 3 33.835 32.140 3.497 33.904 o
3 9 4 4.174 3.007 1.930 165.758 o
3 9 5 35.074 38.282 3.122 36.331 o
3 9 6 76.034 75.745 4.222 13.371 o
3 9 7 52.951 55.152 3.476 22.806 o
3 9 8 17.811 19.861 2.466 74.375 o
3 9 9 19.447 24.616 3.255 47.270 o
3 9 10 34.588 36.005 4.116 26.660 o
3 9 11 28.233 25.729 4.162 29.505 o
3 9 12 18.191 17.766 5.583 19.846 o
3 10 0 7.750 12.649 3.981 39.825 o
3 10 1 0.065 4.121 6.171 17.700 o
3 10 2 64.865 63.973 5.277 12.939 o
3 10 3 37.709 41.894 7.365 10.503 o
3 10 4 57.792 61.212 5.468 13.356 o
3 10 5 1.504 -0.439 2.343 121.373 o
3 10 6 2.463 3.987 2.440 108.710 o
3 10 7 1.129 7.515 3.678 48.910 o
3 10 8 19.656 23.056 3.150 49.973 o
3 10 9 70.327 77.414 5.468 11.243 o
3 10 10 3.477 -0.837 3.716 48.249 o
3 10 11 93.314 124.141 14.199 2.604 o
3 10 12 71.504 92.225 6.619 8.610 o
3 11 0 0.366 -1.079 3.995 42.313 o
3 11 1 19.688 24.350 5.275 21.426 o
3 11 2 3.301 3.119 3.769 46.617 o
3 11 3 0.183 7.324 3.681 49.091 o
3 11 4 18.539 25.558 4.357 29.904 o
3 11 5 6.367 11.446 4.082 38.458 o
3 11 6 0.296 2.055 3.934 43.494 o
3 11 7 11.500 1.698 3.571 49.371 o
3 11 8 20.188 19.887 4.626 27.245 o
3 11 9 1.676 8.973 3.815 45.225 o
3 11 10 0.177 -4.985 3.896 44.512 o
3 11 11 3.159 -0.221 4.431 34.114 o
3 12 2 84.350 79.790 11.148 4.157 o
3 12 3 14.243 18.203 4.730 27.381 o
3 12 4 11.082 15.707 4.780 27.539 o
3 12 5 69.489 79.625 12.143 3.802 o
3 12 6 19.560 16.232 4.872 25.286 o
3 12 7 0.685 4.257 5.474 22.442 o
3 12 8 7.695 15.565 5.136 24.439 o
3 12 9 156.227 180.331 16.323 1.669 o
3 12 10 2.222 -10.749 8.162 10.131 o
4 -10 0 16.532 16.890 4.578 28.738 o
4 -10 1 8.377 5.723 6.270 16.839 o
4 -9 0 105.118 113.746 13.427 2.782 o
4 -9 1 4.047 3.720 2.893 77.358 o
4 -9 2 54.097 57.666 5.931 12.596 o
4 -9 3 1.334 -1.044 3.708 48.926 o
4 -8 0 0.378 -0.796 3.484 55.624 o
4 -8 1 12.735 10.921 2.908 67.157 o
4 -8 2 0.001 0.879 2.586 100.729 o
4 -8 3 0.930 -6.223 6.171 17.732 o
4 -8 4 18.266 18.832 3.975 35.963 o
4 -7 0 0.392 0.891 1.635 248.713 o
4 -7 1 172.809 174.220 6.840 3.375 o
4 -7 2 139.900 129.451 5.833 5.145 o
4 -7 3 37.469 35.707 3.940 27.380 o
4 -7 4 0.662 2.611 2.832 83.160 o
4 -7 5 1.194 7.959 4.678 30.453 o
4 -7 6 18.418 16.323 5.574 19.953 o
4 -6 0 5.648 6.757 1.687 194.710 o
4 -6 1 12.115 11.652 1.635 158.912 o
4 -6 2 33.316 32.934 2.555 47.592 o
4 -6 3 16.594 11.742 2.066 104.671 o
4 -6 4 0.662 -0.106 2.146 145.683 o
4 -6 5 1.069 1.236 2.832 83.327 o
4 -6 6 3.331 8.294 3.527 52.273 o
4 -6 7 16.801 20.304 5.176 22.791 o
4 -5 0 77.297 79.590 3.168 15.205 o
4 -5 1 43.293 38.205 2.402 39.706 o
4 -5 2 121.446 112.423 4.692 6.999 o
4 -5 3 117.959 120.139 6.880 5.532 o
4 -5 4 3.784 6.307 1.930 161.908 o
4 -5 5 76.596 76.380 4.678 12.274 o
4 -5 6 3.336 1.141 2.614 95.722 o
4 -5 7 10.389 4.280 5.176 24.364 o
4 -5 8 0.123 4.379 5.375 23.301 o
4 -4 0 17.893 15.416 1.520 136.005 o
4 -4 1 21.265 19.284 1.495 116.776 o
4 -4 2 2.175 3.401 1.197 407.266 o
4 -4 3 7.080 5.671 1.565 214.046 o
4 -4 4 56.623 56.909 3.489 21.440 o
4 -4 5 15.477 14.496 3.042 58.904 o
4 -4 6 80.660 83.400 4.629 11.509 o
4 -4 7 418.767 405.617 17.349 0.596 o
4 -4 8 0.213 -3.951 3.376 59.261 o
4 -3 0 27.104 23.573 1.872 78.409 o
4 -3 1 6.046 6.487 0.915 454.380 o
4 -3 2 50.614 49.137 2.250 32.782 o
4 -3 3 12.026 12.743 1.511 172.399 o
4 -3 4 108.506 112.013 5.405 7.208 o
4 -3 5 0.043 -0.472 1.894 188.330 o
4 -3 6 2.471 -1.506 2.795 85.053 o
4 -3 7 119.702 124.008 13.835 2.511 o
4 -3 8 0.203 0.626 3.344 60.309 o
4 -3 9 88.072 81.413 6.768 7.789 o
4 -2 0 6.223 5.552 0.766 557.529 o
4 -2 1 80.978 79.138 2.565 15.762 o
4 -2 2 15.634 18.363 1.134 176.686 o
4 -2 3 100.577 110.991 3.317 9.724 o
4 -2 4 691.939 769.384 40.840 0.164 o
4 -2 5 5.916 6.265 1.468 242.764 o
4 -2 6 28.356 25.363 2.984 46.675 o
4 -2 7 1.356 1.229 3.105 69.359 o
4 -2 8 40.638 37.386 4.160 24.469 o
4 -2 9 7.350 9.782 3.386 54.539 o
4 -2 10 1.623 2.446 3.677 49.422 o
4 -1 0 349.513 383.313 8.730 0.949 o
4 -1 1 10.367 7.472 0.986 321.633 o
4 -1 2 30.630 28.992 1.983 64.680 o
4 -1 3 262.498 273.515 7.895 1.634 o
4 -1 4 146.719 157.143 4.329 4.985 o
4 -1 5 3.640 4.209 1.152 400.819 o
4 -1 6 0.100 -1.640 0.955 736.728 o
4 -1 7 75.721 64.316 3.695 15.610 o
4 -1 8 28.657 28.665 4.578 25.055 o
4 -1 9 19.888 20.860 3.864 36.788 o
4 -1 10 14.622 15.108 3.864 39.592 o
4 0 0 2691.630 2881.360 62.294 0.017 o
4 0 1 4871.970 5040.190 164.102 0.005 o
4 0 2 61.947 70.214 2.567 21.747 o
4 0 3 13.416 12.412 1.035 235.798 o
4 0 4 0.030 0.016 0.705 1354.640 o
4 0 5 114.979 110.224 3.551 8.310 o
4 0 6 5.480 3.461 1.814 179.640 o
4 0 7 0.477 0.073 2.056 158.998 o
4 0 8 275.218 287.257 13.264 1.204 o
4 0 9 33.667 34.817 4.065 27.549 o
4 0 10 79.997 94.938 6.917 7.676 o
4 0 11 6.587 7.011 4.352 34.377 o
4 1 0 2142.650 2379.360 100.957 0.020 o
4 1 1 2627.040 2773.800 93.802 0.016 o
4 1 2 944.934 976.640 21.425 0.141 o
4 1 3 113.910 118.665 3.782 7.912 o
4 1 4 18.656 19.358 1.190 149.462 o
4 1 5 257.267 242.096 10.532 1.582 o
4 1 6 10.728 12.771 2.283 101.057 o
4 1 7 0.000 -1.501 1.991 170.622 o
4 1 8 58.559 68.279 8.560 7.055 o
4 1 9 45.589 44.311 4.445 20.657 o
4 1 10 22.137 28.498 10.152 6.280 o
4 1 11 1.633 -3.236 4.303 36.349 o
4 2 0 119.795 116.700 3.762 7.585 o
4 2 1 0.017 0.059 0.741 1224.510 o
4 2 2 139.409 134.999 3.769 5.949 o
4 2 3 36.979 33.526 2.069 51.969 o
4 2 4 13.723 15.289 1.147 201.906 o
4 2 5 5.248 5.503 1.529 234.933 o
4 2 6 91.993 95.691 5.352 8.852 o
4 2 7 33.499 37.632 3.712 30.560 o
4 2 8 0.087 0.995 2.389 117.860 o
4 2 9 449.118 489.970 20.669 0.462 o
4 2 10 3.737 4.446 6.768 14.639 o
4 2 11 0.606 0.329 6.071 18.322 o
4 2 12 48.283 52.533 6.311 12.256 o
4 3 0 52.312 52.714 2.465 29.488 o
4 3 1 4.192 6.067 0.986 466.785 o
4 3 2 67.052 68.816 2.640 20.175 o
4 3 3 0.295 -0.157 0.766 1122.300 o
4 3 4 0.606 2.251 1.121 500.871 o
4 3 5 0.047 0.647 1.792 209.398 o
4 3 6 30.809 29.547 3.004 43.180 o
4 3 7 4.246 3.172 2.151 135.360 o
4 3 8 3.610 2.508 3.085 68.875 o
4 3 9 12.058 12.061 3.201 57.083 o
4 3 10 5.702 4.605 6.270 16.963 o
4 3 11 14.024 8.325 3.911 39.987 o
4 3 12 0.000 5.323 4.544 32.515 o
4 4 0 0.050 0.191 1.008 660.427 o
4 4 1 33.760 28.387 1.810 64.453 o
4 4 2 8.809 7.630 1.564 197.818 o
4 4 3 0.005 -0.346 0.911 814.955 o
4 4 4 91.994 86.861 3.124 12.351 o
4 4 5 48.438 47.199 2.162 35.373 o
4 4 6 22.526 23.528 2.773 56.934 o
4 4 7 12.269 14.651 2.601 78.992 o
4 4 8 23.672 26.290 3.782 35.601 o
4 4 9 3.889 5.176 3.384 56.969 o
4 4 10 3.213 4.715 3.683 48.608 o
4 4 11 0.205 -1.785 4.075 40.695 o
4 4 12 7.461 8.571 5.574 21.161 o
4 5 0 45.532 45.877 2.860 31.596 o
4 5 1 161.568 155.810 5.120 4.292 o
4 5 2 66.845 55.948 2.707 21.936 o
4 5 3 34.025 33.120 2.398 49.576 o
4 5 4 280.596 261.568 7.781 1.561 o
4 5 5 4.766 7.124 1.131 366.148 o
4 5 6 1.837 1.786 0.925 669.874 o
4 5 7 27.309 22.941 3.011 47.741 o
4 5 8 3.406 2.128 3.583 51.582 o
4 5 9 23.817 24.612 5.474 19.590 o
4 5 10 30.615 30.921 4.977 21.452 o
4 5 11 143.911 147.287 13.536 2.311 o
4 5 12 30.831 35.499 6.569 13.382 o
4 6 0 72.357 73.984 4.160 14.174 o
4 6 1 36.758 27.422 2.220 52.887 o
4 6 2 0.834 0.967 1.300 383.841 o
4 6 3 2.780 0.797 1.282 370.095 o
4 6 4 1.157 1.877 1.552 267.993 o
4 6 5 184.898 170.427 5.568 3.444 o
4 6 6 20.100 19.411 1.646 111.424 o
4 6 7 2.919 4.586 1.691 212.471 o
4 6 8 173.809 169.980 12.740 2.149 o
4 6 9 91.083 93.672 6.826 7.261 o
4 6 10 287.157 277.266 13.645 1.157 o
4 6 11 29.712 20.409 4.902 23.019 o
4 6 12 15.442 23.471 5.668 19.293 o
4 7 0 0.257 0.017 1.787 210.862 o
4 7 1 93.739 93.653 4.558 9.804 o
4 7 2 34.330 34.996 4.636 22.762 o
4 7 3 95.874 93.427 4.004 10.321 o
4 7 4 26.291 28.097 3.908 32.663 o
4 7 5 9.432 11.461 1.818 148.528 o
4 7 6 57.218 51.677 5.180 14.899 o
4 7 7 821.438 848.888 27.303 0.168 o
4 7 8 151.770 141.088 8.226 3.722 o
4 7 9 13.964 12.082 4.151 35.444 o
4 7 10 25.731 26.236 4.534 26.341 o
4 7 11 1.151 5.375 4.504 32.958 o
4 7 12 8.209 13.337 8.062 10.211 o
4 8 0 241.336 238.222 8.959 1.835 o
4 8 1 2.640 2.447 2.093 146.742 o
4 8 2 126.949 127.162 5.739 5.728 o
4 8 3 2.144 2.851 1.990 162.227 o
4 8 4 7.605 11.456 1.880 147.580 o
4 8 5 56.459 55.199 3.350 22.410 o
4 8 6 86.729 76.392 8.504 6.087 o
4 8 7 1362.190 1373.750 37.643 0.066 o
4 8 8 80.971 83.509 6.958 7.867 o
4 8 9 267.425 270.194 17.617 1.013 o
4 8 10 9.385 7.718 4.573 30.802 o
4 8 11 2.643 0.419 11.944 4.734 o
4 8 12 0.030 5.574 5.349 23.501 o
4 9 0 1.522 1.593 4.977 27.158 o
4 9 1 19.766 22.487 2.974 54.442 o
4 9 2 7.954 7.271 2.603 88.466 o
4 9 3 88.000 88.129 7.426 6.892 o
4 9 4 82.290 75.566 4.816 11.412 o
4 9 5 0.466 2.280 2.871 81.194 o
4 9 6 55.870 53.404 3.525 21.963 o
4 9 7 258.451 256.984 8.700 1.664 o
4 9 8 66.298 71.821 5.228 12.467 o
4 9 9 16.709 17.002 3.867 38.523 o
4 9 10 1.790 -1.935 6.019 18.614 o
4 9 11 23.107 19.423 6.569 14.368 o
4 9 12 0.067 1.792 9.555 7.401 o
4 10 0 2.993 -4.173 12.640 4.227 o
4 10 1 35.296 36.140 4.588 22.784 o
4 10 2 5.639 11.215 3.728 45.891 o
4 10 3 69.963 69.443 6.253 10.063 o
4 10 4 202.818 179.876 10.252 2.269 o
4 10 5 0.146 -0.199 3.660 50.452 o
4 10 6 5.041 -0.387 3.761 46.782 o
4 10 7 16.705 16.538 2.892 61.881 o
4 10 8 4.016 3.746 3.140 66.085 o
4 10 9 37.205 33.129 4.635 22.375 o
4 10 10 3.522 10.967 4.156 37.774 o
4 10 11 9.971 17.314 4.499 30.863 o
4 11 1 80.838 95.536 24.475 1.057 o
4 11 2 7.255 5.648 4.478 32.544 o
4 11 3 4.534 6.048 4.419 33.757 o
4 11 4 48.686 44.927 5.407 15.591 o
4 11 5 3.198 10.603 4.278 35.812 o
4 11 6 40.730 41.971 5.136 18.064 o
4 11 7 12.710 0.037 4.108 37.861 o
4 11 8 5.469 14.133 5.067 25.379 o
4 11 9 7.015 7.038 4.399 33.613 o
4 11 10 10.020 1.503 4.517 31.911 o
4 12 4 7.125 18.771 5.574 20.821 o
4 12 5 3.001 -8.481 8.560 9.206 o
4 12 6 0.665 8.146 5.277 24.031 o
4 12 7 31.768 33.841 8.560 8.382 o
4 12 8 0.011 3.782 6.967 13.899 o
5 -9 0 10.555 8.507 3.405 52.820 o
5 -9 1 13.494 14.133 4.050 36.901 o
5 -9 2 5.517 -1.120 3.858 44.395 o
5 -8 0 13.892 13.777 2.567 79.129 o
5 -8 1 10.727 11.094 3.164 59.383 o
5 -8 2 0.512 -2.966 4.479 33.659 o
5 -8 3 15.032 13.907 4.158 34.840 o
5 -7 0 58.853 61.909 4.770 15.343 o
5 -7 1 9.425 8.075 1.993 134.348 o
5 -7 2 691.576 725.506 40.410 0.169 o
5 -7 3 165.874 169.961 9.155 2.975 o
5 -7 4 2.965 3.672 4.778 29.248 o
5 -7 5 37.017 30.855 5.773 16.212 o
5 -6 0 43.427 47.884 2.814 32.549 o
5 -6 1 76.481 78.196 4.195 13.200 o
5 -6 2 1154.090 1148.050 31.376 0.093 o
5 -6 3 123.608 126.131 5.965 5.756 o
5 -6 4 112.427 122.165 14.484 2.405 o
5 -6 5 5.930 5.157 5.872 19.280 o
5 -6 6 14.954 13.536 4.778 27.144 o
5 -5 0 50.262 48.510 3.189 26.521 o
5 -5 1 1.351 2.622 1.399 320.766 o
5 -5 2 12.535 17.344 1.825 126.580 o
5 -5 3 101.348 103.548 4.291 9.027 o
5 -5 4 5.850 9.277 3.547 50.667 o
5 -5 5 6.699 8.490 3.066 66.240 o
5 -5 6 11.322 10.476 4.301 33.962 o
5 -5 7 11.878 8.560 5.375 22.350 o
5 -4 0 18.590 18.064 1.525 127.229 o
5 -4 1 62.160 54.106 2.621 24.201 o
5 -4 2 2.408 1.197 1.465 291.588 o
5 -4 3 0.757 1.846 2.197 137.513 o
5 -4 4 16.433 19.495 1.878 107.633 o
5 -4 5 23.031 24.360 2.234 72.285 o
5 -4 6 57.551 57.803 5.300 14.082 o
5 -4 7 8.726 8.713 3.708 45.783 o
5 -4 8 1.263 1.545 4.371 35.184 o
5 -3 0 0.048 1.070 1.859 193.913 o
5 -3 1 39.263 33.600 2.269 46.544 o
5 -3 2 30.109 30.812 1.994 63.827 o
5 -3 3 80.201 76.484 3.222 14.846 o
5 -3 4 0.003 -2.258 1.408 341.075 o
5 -3 5 10.864 14.120 1.629 159.774 o
5 -3 6 3.087 2.549 2.683 90.660 o
5 -3 7 52.765 63.516 5.588 13.425 o
5 -3 8 0.273 -0.879 4.050 41.193 o
5 -2 0 42.879 40.617 2.308 40.170 o
5 -2 1 51.920 49.163 2.715 28.871 o
5 -2 2 141.958 128.194 5.017 5.459 o
5 -2 3 1.687 -0.219 1.544 273.262 o
5 -2 4 120.690 122.109 4.208 7.075 o
5 -2 5 20.402 22.961 1.649 104.819 o
5 -2 6 10.691 7.915 2.798 74.950 o
5 -2 7 12.285 11.883 3.461 49.735 o
5 -2 8 29.169 31.001 4.445 25.837 o
5 -2 9 0.032 8.251 4.196 37.874 o
5 -1 0 57.096 55.990 2.324 27.299 o
5 -1 1 6.582 6.900 1.044 373.794 o
5 -1 2 109.517 109.554 4.760 7.764 o
5 -1 3 12.368 10.685 1.810 140.041 o
5 -1 4 17.104 15.543 1.580 133.975 o
5 -1 5 36.998 35.508 2.408 45.658 o
5 -1 6 15.185 10.351 4.977 25.359 o
5 -1 7 8.584 13.336 3.130 61.170 o
5 -1 8 0.069 -0.987 6.071 18.340 o
5 -1 9 103.789 101.573 7.475 5.964 o
5 -1 10 5.007 3.033 4.632 30.901 o
5 0 0 16.732 25.332 1.686 110.256 o
5 0 1 181.035 184.791 6.616 3.174 o
5 0 2 0.270 0.587 1.322 380.661 o
5 0 3 148.349 146.379 5.747 4.623 o
5 0 4 55.141 59.554 2.672 25.578 o
5 0 5 16.133 15.263 1.471 148.799 o
5 0 6 74.951 71.047 5.297 11.454 o
5 0 7 79.768 85.216 6.294 8.787 o
5 0 8 17.826 21.569 3.677 40.549 o
5 0 9 259.703 277.943 13.398 1.276 o
5 0 10 16.965 19.702 4.528 28.948 o
5 1 0 4.611 4.664 1.008 460.231 o
5 1 1 77.864 77.087 3.056 15.577 o
5 1 2 97.284 101.030 3.772 10.073 o
5 1 3 60.498 58.460 2.623 24.004 o
5 1 4 0.212 3.113 1.026 588.892 o
5 1 5 14.405 10.543 1.584 156.773 o
5 1 6 72.562 67.784 5.211 12.050 o
5 1 7 17.762 22.295 6.967 13.066 o
5 1 8 540.209 540.939 22.706 0.352 o
5 1 9 675.536 679.437 37.514 0.188 o
5 1 10 20.612 22.875 4.111 32.718 o
5 1 11 17.386 18.755 8.361 9.294 o
5 2 0 16.037 17.509 1.458 145.009 o
5 2 1 136.354 134.836 5.269 5.436 o
5 2 2 5.139 5.364 1.241 327.333 o
5 2 3 0.000 0.839 1.523 288.857 o
5 2 4 46.903 45.472 2.273 36.003 o
5 2 5 66.427 67.091 2.814 20.027 o
5 2 6 4.813 2.748 2.098 141.003 o
5 2 7 7.489 5.720 2.630 88.190 o
5 2 8 274.806 287.222 13.337 1.201 o
5 2 9 341.633 339.192 15.453 0.837 o
5 2 10 1.018 -0.251 3.981 42.511 o
5 2 11 38.880 40.592 5.739 15.644 o
5 3 0 1.307 1.165 1.078 534.403 o
5 3 1 7.771 10.377 1.552 197.938 o
5 3 2 39.212 36.908 2.455 42.621 o
5 3 3 125.344 124.540 5.028 6.264 o
5 3 4 7.480 8.670 1.365 245.637 o
5 3 5 624.377 615.730 17.016 0.316 o
5 3 6 267.135 290.242 12.929 1.249 o
5 3 7 15.381 14.297 3.093 57.462 o
5 3 8 9.543 9.608 3.384 53.624 o
5 3 9 1.652 0.892 3.444 56.465 o
5 3 10 13.096 16.246 3.822 40.678 o
5 3 11 16.985 16.477 5.110 23.543 o
5 4 0 2.936 1.223 1.245 385.017 o
5 4 1 2.641 2.846 1.695 217.087 o
5 4 2 186.602 178.063 6.787 3.103 o
5 4 3 40.874 44.038 2.945 33.658 o
5 4 4 19.350 20.442 1.686 109.721 o
5 4 5 36.191 41.967 3.247 33.410 o
5 4 6 232.878 239.716 11.250 1.678 o
5 4 7 55.499 68.230 6.071 11.637 o
5 4 8 113.746 109.887 9.545 4.258 o
5 4 9 15.901 18.627 4.053 35.532 o
5 4 10 0.025 5.620 3.627 50.765 o
5 4 11 6.521 10.259 5.067 25.465 o
5 5 0 4.872 6.184 1.745 188.703 o
5 5 1 38.502 38.230 3.020 35.691 o
5 5 2 326.595 331.275 9.896 1.080 o
5 5 3 503.673 501.903 16.533 0.452 o
5 5 4 33.386 34.226 3.140 38.143 o
5 5 5 42.182 37.434 4.178 23.928 o
5 5 6 22.054 25.067 2.351 69.201 o
5 5 7 18.134 5.903 4.445 31.079 o
5 5 8 24.167 23.657 3.793 35.764 o
5 5 9 8.567 12.078 4.250 35.126 o
5 5 10 61.055 67.364 6.394 10.508 o
5 5 11 0.400 5.914 5.015 26.680 o
5 6 0 0.326 2.831 1.888 184.830 o
5 6 1 0.103 -0.442 1.771 215.184 o
5 6 2 196.025 185.387 6.240 2.981 o
5 6 3 77.322 75.650 3.697 14.366 o
5 6 4 50.330 44.133 2.871 29.639 o
5 6 5 7.542 8.138 2.092 128.920 o
5 6 6 78.221 82.119 4.736 11.648 o
5 6 7 22.769 32.049 5.574 18.696 o
5 6 8 0.965 6.929 3.306 60.407 o
5 6 9 4.643 2.519 4.075 39.828 o
5 6 10 16.098 20.099 4.902 25.244 o
5 6 11 27.045 30.472 9.356 7.239 o
5 7 0 366.667 360.635 12.639 0.836 o
5 7 1 0.036 5.512 2.138 143.031 o
5 7 2 11.358 13.627 2.335 95.745 o
5 7 3 11.164 7.185 1.937 136.502 o
5 7 4 22.061 17.672 2.299 76.504 o
5 7 5 0.171 1.251 1.957 174.668 o
5 7 6 0.091 -1.574 2.288 129.087 o
5 7 7 18.101 14.969 5.082 23.736 o
5 7 8 0.716 2.964 3.854 45.158 o
5 7 9 51.390 46.526 7.465 9.510 o
5 7 10 22.515 21.158 5.208 21.753 o
5 7 11 11.491 8.300 5.343 22.648 o
5 8 0 68.587 75.607 4.939 12.681 o
5 8 1 217.737 205.609 8.351 2.258 o
5 8 2 40.866 35.831 3.995 25.880 o
5 8 3 7.253 10.684 2.483 94.742 o
5 8 4 1.762 -2.408 2.946 77.056 o
5 8 5 23.885 20.505 2.542 63.671 o
5 8 6 127.925 144.767 6.002 5.219 o
5 8 7 32.831 37.484 3.894 29.006 o
5 8 8 0.174 -1.053 4.108 40.046 o
5 8 9 62.742 66.108 6.893 9.464 o
5 8 10 17.576 16.376 9.356 7.494 o
5 8 11 24.226 23.684 6.189 15.785 o
5 9 0 0.148 -7.252 4.379 35.239 o
5 9 1 8.338 7.266 3.519 50.877 o
5 9 2 21.738 22.986 3.285 45.764 o
5 9 3 5.026 5.177 2.786 81.771 o
5 9 4 13.319 15.830 3.099 58.194 o
5 9 5 3.601 6.346 3.994 41.252 o
5 9 6 8.074 8.885 2.799 76.890 o
5 9 7 4.950 2.384 3.413 56.150 o
5 9 8 3.098 5.067 3.635 49.849 o
5 9 9 6.555 5.406 5.858 19.340 o
5 9 10 58.352 41.007 9.754 6.033 o
5 10 1 20.981 17.564 4.478 28.888 o
5 10 2 11.629 7.176 4.216 35.535 o
5 10 3 79.774 86.495 7.670 7.004 o
5 10 4 24.774 27.520 4.573 26.049 o
5 10 5 2.064 -2.419 3.293 61.693 o
5 10 6 3.908 12.313 3.130 64.281 o
5 10 7 3.894 -5.991 5.485 22.302 o
5 10 8 1.745 10.361 4.098 39.205 o
5 10 9 62.514 63.030 5.878 11.718 o
5 10 10 16.270 23.290 8.958 8.119 o
5 11 3 0.857 -0.799 4.714 30.366 o
5 11 4 5.795 6.882 6.669 14.986 o
5 11 5 7.505 18.120 4.921 26.387 o
5 11 6 1.844 4.180 6.569 15.584 o
5 11 7 10.229 0.398 6.171 17.409 o
5 11 8 0.003 10.152 5.583 21.476 o
6 -8 0 5.594 9.383 3.037 67.837 o
6 -8 1 12.480 19.664 3.485 47.237 o
6 -7 0 18.472 17.951 2.404 77.357 o
6 -7 1 22.205 22.839 3.071 50.118 o
6 -7 2 159.837 183.767 8.144 3.208 o
6 -7 3 48.407 49.538 4.158 21.040 o
6 -6 0 3.968 5.958 1.838 176.522 o
6 -6 1 2.049 2.178 1.973 165.984 o
6 -6 2 8.546 7.373 2.168 120.028 o
6 -6 3 18.920 16.471 2.626 68.927 o
6 -6 4 7.821 7.963 4.578 30.942 o
6 -5 0 64.870 62.257 3.628 18.181 o
6 -5 1 31.066 33.285 2.459 51.225 o
6 -5 2 14.916 20.751 2.211 90.144 o
6 -5 3 121.304 118.134 4.973 6.663 o
6 -5 4 3.885 1.473 2.626 94.263 o
6 -5 5 24.433 24.273 5.972 16.777 o
6 -4 0 2.910 1.499 1.567 253.279 o
6 -4 1 15.444 14.237 1.907 115.780 o
6 -4 2 0.145 -0.602 1.740 222.718 o
6 -4 3 0.056 0.635 1.828 201.174 o
6 -4 4 15.164 17.429 2.253 90.477 o
6 -4 5 2.603 4.219 3.252 62.245 o
6 -4 6 5.829 12.384 6.370 16.297 o
6 -3 0 19.652 21.033 2.705 62.937 o
6 -3 1 1.036 0.878 1.456 307.335 o
6 -3 2 0.034 -0.995 1.555 279.429 o
6 -3 3 0.858 0.747 1.763 213.125 o
6 -3 4 4.793 3.300 1.979 156.166 o
6 -3 5 0.037 -1.995 3.044 72.934 o
6 -3 6 0.845 3.487 3.609 51.342 o
6 -3 7 110.201 125.281 24.485 1.009 o
6 -2 0 0.973 1.512 1.418 321.342 o
6 -2 1 4.917 6.046 1.418 265.737 o
6 -2 2 15.649 16.454 1.885 113.590 o
6 -2 3 0.040 -0.719 1.566 275.435 o
6 -2 4 353.703 355.328 12.158 0.888 o
6 -2 5 70.924 54.543 6.569 9.918 o
6 -2 6 35.347 33.481 4.196 26.118 o
6 -2 7 4.227 8.102 5.375 22.958 o
6 -2 8 10.017 15.336 4.521 30.748 o
6 -1 0 66.720 75.937 3.663 16.290 o
6 -1 1 0.808 1.303 1.381 340.282 o
6 -1 2 45.178 48.221 3.414 26.884 o
6 -1 3 115.838 110.536 4.792 7.311 o
6 -1 4 197.512 187.653 7.108 2.798 o
6 -1 5 1.649 -0.379 3.683 49.527 o
6 -1 6 4.036 -3.199 3.484 54.638 o
6 -1 7 31.162 30.922 9.057 7.604 o
6 -1 8 5.807 8.357 4.088 38.806 o
6 -1 9 31.781 31.306 8.659 8.239 o
6 0 0 305.695 350.915 14.543 0.943 o
6 0 1 1921.580 1925.440 59.705 0.032 o
6 0 2 145.969 151.985 5.973 4.528 o
6 0 3 0.570 6.874 1.529 262.615 o
6 0 4 5.891 4.388 1.534 233.153 o
6 0 5 24.745 25.292 3.495 39.727 o
6 0 6 4.905 2.764 2.908 76.336 o
6 0 7 0.281 4.749 3.277 62.079 o
6 0 8 88.411 87.767 7.456 6.852 o
6 0 9 34.529 28.142 5.022 20.744 o
6 1 0 352.814 347.433 11.807 0.911 o
6 1 1 1854.250 1864.370 87.651 0.028 o
6 1 2 2.681 2.350 1.680 221.765 o
6 1 3 211.159 217.780 7.964 2.312 o
6 1 4 0.110 0.743 2.312 125.945 o
6 1 5 36.995 44.619 4.528 21.938 o
6 1 6 3.771 2.850 2.830 81.161 o
6 1 7 5.338 11.655 3.300 57.715 o
6 1 8 18.800 23.549 4.487 28.612 o
6 1 9 113.798 126.964 14.631 2.345 o
6 1 10 10.462 20.164 4.852 26.549 o
6 2 0 0.264 1.630 1.618 252.679 o
6 2 1 43.166 43.974 4.828 19.077 o
6 2 2 2.303 2.741 1.529 264.803 o
6 2 3 3.222 3.570 1.540 252.510 o
6 2 4 45.187 43.319 2.933 31.773 o
6 2 5 1.828 3.253 4.778 29.364 o
6 2 6 7.282 4.977 5.375 22.855 o
6 2 7 0.575 -3.861 2.965 76.625 o
6 2 8 4.269 0.956 3.644 49.840 o
6 2 9 165.968 169.652 11.745 2.403 o
6 2 10 22.643 28.965 5.265 20.820 o
6 3 0 31.513 35.656 2.338 51.882 o
6 3 1 60.182 62.439 3.972 17.897 o
6 3 2 29.661 31.456 2.700 48.727 o
6 3 3 42.727 48.419 3.254 29.018 o
6 3 4 6.462 7.232 1.730 181.968 o
6 3 5 0.298 5.120 2.965 75.494 o
6 3 6 1.413 15.328 5.574 21.329 o
6 3 7 3.266 2.202 3.277 61.448 o
6 3 8 23.196 19.277 4.050 33.294 o
6 3 9 21.838 13.698 4.552 28.306 o
6 3 10 5.523 0.237 7.564 11.744 o
6 4 0 13.414 14.880 2.151 102.620 o
6 4 1 0.130 -0.839 2.528 105.648 o
6 4 2 2.802 4.692 1.944 165.047 o
6 4 3 5.340 4.400 1.855 171.439 o
6 4 4 37.713 34.394 4.541 22.786 o
6 4 5 4.304 4.885 2.358 112.726 o
6 4 6 12.622 13.536 5.574 20.592 o
6 4 7 2.987 10.770 3.995 40.900 o
6 4 8 12.634 12.555 5.076 24.612 o
6 4 9 2.594 1.601 9.456 7.546 o
6 4 10 6.307 15.497 5.400 22.325 o
6 5 0 17.015 17.191 2.946 59.612 o
6 5 1 64.868 66.023 4.942 13.715 o
6 5 2 4.696 0.321 1.783 194.664 o
6 5 3 1.024 -0.409 2.004 166.155 o
6 5 4 57.132 62.427 9.953 5.645 o
6 5 5 6.814 3.824 2.092 135.877 o
6 5 6 8.164 15.982 6.171 17.141 o
6 5 7 12.267 8.107 4.017 38.596 o
6 5 8 10.073 14.692 5.176 23.889 o
6 5 9 1.501 3.842 4.831 28.729 o
6 5 10 1.977 2.417 5.474 22.425 o
6 6 0 12.536 11.353 2.560 82.797 o
6 6 1 4.686 5.232 2.742 84.506 o
6 6 2 0.485 3.257 3.563 52.779 o
6 6 3 3.317 3.462 3.584 51.390 o
6 6 4 36.054 43.593 3.678 28.872 o
6 6 5 22.926 22.631 3.683 38.118 o
6 6 6 31.976 41.164 5.275 18.658 o
6 6 7 0.184 -1.769 3.769 47.556 o
6 6 8 47.377 42.490 5.327 16.236 o
6 6 9 0.706 -3.325 4.714 30.377 o
6 6 10 126.054 125.897 10.273 3.571 o
6 7 0 3.169 4.369 2.805 82.481 o
6 7 1 0.407 -1.813 2.623 97.944 o
6 7 2 33.330 32.427 3.731 31.396 o
6 7 3 0.099 -3.532 2.173 143.069 o
6 7 4 0.087 -0.382 2.388 118.508 o
6 7 5 6.259 10.437 2.549 91.916 o
6 7 6 12.812 15.015 7.166 12.698 o
6 7 7 425.105 453.784 20.336 0.508 o
6 7 8 64.195 58.525 6.535 10.306 o
6 7 9 11.070 15.139 5.766 19.364 o
6 7 10 113.488 106.467 14.721 2.390 o
6 8 0 44.059 47.027 5.673 14.990 o
6 8 1 63.145 68.896 7.549 8.272 o
6 8 2 11.549 9.849 5.655 20.256 o
6 8 3 45.937 49.038 3.976 22.762 o
6 8 4 1.530 3.922 2.665 92.535 o
6 8 5 1.339 3.766 2.787 85.042 o
6 8 6 2.018 4.227 3.388 57.681 o
6 8 7 579.321 597.101 20.983 0.324 o
6 8 8 393.058 399.262 19.003 0.603 o
6 8 9 62.379 73.537 10.650 4.868 o
6 9 1 26.306 23.281 6.370 14.861 o
6 9 2 45.785 53.133 4.552 19.169 o
6 9 3 20.703 23.460 3.823 36.648 o
6 9 4 142.621 160.107 9.412 3.332 o
6 9 5 6.976 9.766 9.428 7.531 o
6 9 6 7.925 1.184 3.716 46.990 o
6 9 7 342.848 348.566 13.974 0.870 o
6 9 8 102.682 107.591 7.533 5.851 o
6 9 9 33.787 37.206 5.429 17.868 o
6 10 4 116.752 106.554 9.005 4.514 o
6 10 5 24.093 16.478 5.343 20.890 o
6 10 6 0.894 9.479 6.118 17.898 o
6 10 7 10.256 6.772 4.411 32.916 o
7 -7 0 1.822 3.014 7.166 13.116 o
7 -6 0 29.659 26.606 5.130 20.908 o
7 -6 1 1.347 2.202 2.794 85.126 o
7 -6 2 595.542 595.349 20.019 0.321 o
7 -5 0 39.509 36.991 3.052 35.121 o
7 -5 1 0.247 1.891 2.394 116.722 o
7 -5 2 41.819 45.614 5.999 14.101 o
7 -5 3 109.792 108.955 8.060 5.226 o
7 -5 4 4.855 -8.556 4.088 39.761 o
7 -4 0 99.767 88.103 4.791 9.232 o
7 -4 1 13.557 16.350 2.500 81.129 o
7 -4 2 10.533 5.239 2.361 102.421 o
7 -4 3 0.179 2.787 3.376 58.879 o
7 -4 4 14.660 17.075 4.778 26.914 o
7 -4 5 9.197 6.616 4.678 29.597 o
7 -3 0 22.952 11.213 2.765 62.647 o
7 -3 1 38.952 37.775 4.046 25.747 o
7 -3 2 21.179 20.823 2.797 58.797 o
7 -3 3 11.813 9.617 3.833 41.972 o
7 -3 4 0.848 -4.633 3.252 63.658 o
7 -3 5 2.217 -5.574 3.611 51.371 o
7 -3 6 1.223 -0.009 11.048 5.536 o
7 -2 0 0.000 0.262 1.772 214.853 o
7 -2 1 20.013 17.703 3.985 35.441 o
7 -2 2 55.080 60.356 3.836 19.799 o
7 -2 3 1.446 1.520 4.479 33.499 o
7 -2 4 51.574 55.409 5.773 13.412 o
7 -2 5 0.012 -4.106 4.081 40.599 o
7 -2 6 1.403 -10.258 3.888 44.495 o
7 -2 7 7.593 8.482 4.702 29.390 o
7 -1 0 2.001 0.432 2.620 96.799 o
7 -1 1 18.876 19.537 2.251 82.196 o
7 -1 2 23.235 21.826 2.316 71.017 o
7 -1 3 3.431 3.688 2.934 75.693 o
7 -1 4 9.199 6.402 3.225 59.579 o
7 -1 5 20.043 18.921 3.737 39.147 o
7 -1 6 0.206 -0.659 3.826 46.149 o
7 -1 7 9.071 10.690 9.256 7.785 o
7 0 0 0.080 10.244 3.353 58.474 o
7 0 1 38.416 37.939 2.834 38.006 o
7 0 2 38.659 40.226 3.122 33.965 o
7 0 3 25.044 30.150 2.665 54.154 o
7 0 4 2.125 7.763 6.171 17.579 o
7 0 5 14.734 14.838 4.280 33.042 o
7 0 6 6.179 4.846 3.737 46.453 o
7 0 7 20.698 23.930 4.671 26.316 o
7 0 8 0.051 10.850 5.574 21.527 o
7 1 0 18.778 17.808 2.445 75.311 o
7 1 1 0.305 2.252 3.457 56.198 o
7 1 2 24.572 25.156 2.551 60.027 o
7 1 3 7.658 10.072 2.843 74.603 o
7 1 4 16.830 17.025 3.609 43.215 o
7 1 5 1.962 -2.848 3.376 58.763 o
7 1 6 0.047 -1.600 3.683 49.844 o
7 1 7 18.947 25.823 4.702 26.166 o
7 1 8 65.479 62.480 6.731 9.707 o
7 2 0 0.125 -2.897 2.501 107.976 o
7 2 1 1.263 0.944 2.154 142.879 o
7 2 2 6.532 6.937 2.206 121.114 o
7 2 3 1.839 1.792 2.956 76.035 o
7 2 4 54.981 54.689 5.015 15.575 o
7 2 5 37.244 35.184 4.392 23.871 o
7 2 6 5.376 -2.399 3.864 44.301 o
7 2 7 4.144 8.437 4.678 30.111 o
7 2 8 202.341 205.464 12.039 1.911 o
7 3 0 4.357 10.710 3.981 40.878 o
7 3 1 7.033 9.076 2.270 112.346 o
7 3 2 0.206 -1.159 3.088 70.807 o
7 3 3 99.707 101.652 5.257 8.209 o
7 3 4 2.801 6.248 6.071 18.157 o
7 3 5 101.244 95.111 7.822 5.892 o
7 3 6 260.181 264.321 22.494 0.799 o
7 3 7 2.853 9.178 4.445 33.393 o
7 3 8 0.883 13.886 5.067 25.807 o
7 3 9 12.019 17.320 8.261 9.633 o
7 4 0 0.680 1.674 6.868 14.310 o
7 4 1 0.058 4.881 2.530 103.398 o
7 4 2 16.308 15.032 2.374 84.244 o
7 4 3 22.646 21.197 2.981 52.526 o
7 4 4 7.673 7.202 3.869 42.777 o
7 4 5 30.504 30.862 6.171 15.092 o
7 4 6 158.349 151.577 9.604 3.101 o
7 4 7 9.204 2.146 9.256 7.823 o
7 4 8 50.891 60.359 7.664 8.837 o
7 4 9 7.926 15.110 6.669 14.777 o
7 5 0 19.256 18.427 4.081 34.176 o
7 5 1 16.156 11.642 3.154 56.013 o
7 5 2 111.651 117.536 5.663 6.690 o
7 5 3 262.329 232.487 9.453 1.664 o
7 5 4 0.086 -6.768 4.977 27.295 o
7 5 5 6.179 3.971 4.136 38.280 o
7 5 6 22.562 17.280 8.460 8.993 o
7 5 7 34.276 42.909 6.174 14.262 o
7 5 8 0.013 -2.200 5.327 23.829 o
7 5 9 0.647 -1.804 5.418 23.007 o
7 6 0 34.779 35.092 10.351 5.854 o
7 6 1 3.813 6.580 8.759 8.760 o
7 6 2 37.431 30.413 3.079 37.748 o
7 6 3 174.482 166.361 9.370 2.831 o
7 6 4 0.039 -2.453 3.304 61.941 o
7 6 5 27.301 23.391 5.349 20.033 o
7 6 6 22.612 20.693 7.564 11.056 o
7 6 7 2.920 -3.111 4.902 27.938 o
7 6 8 10.899 14.452 5.981 18.090 o
7 7 0 309.203 346.529 23.290 0.644 o
7 7 1 0.169 5.742 4.496 33.168 o
7 7 2 7.952 18.020 4.576 30.187 o
7 7 3 1.482 7.197 3.011 72.087 o
7 7 4 6.990 8.286 3.661 47.532 o
7 7 5 5.167 5.853 4.499 32.524 o
7 7 6 8.805 4.563 4.042 39.412 o
7 7 7 0.410 -1.991 9.754 7.105 o
7 7 8 0.054 -1.675 6.122 18.040 o
7 8 2 98.064 91.388 7.365 6.471 o
7 8 3 19.229 21.303 4.074 33.857 o
7 8 4 12.013 24.358 4.322 32.009 o
7 8 5 0.846 -1.548 4.280 36.815 o
7 8 6 132.442 137.407 8.687 3.983 o
7 8 7 7.455 8.115 4.587 30.867 o
8 -4 0 1.958 7.534 7.365 12.381 o
8 -4 1 1.208 -9.679 5.673 20.964 o
8 -4 2 0.377 -4.124 3.888 44.660 o
8 -3 0 10.314 18.048 3.858 40.619 o
8 -3 1 0.156 -1.455 3.376 59.276 o
8 -3 2 3.199 5.910 3.814 45.253 o
8 -3 3 1.122 6.094 7.863 10.892 o
8 -2 0 0.061 6.576 4.578 31.959 o
8 -2 1 6.634 10.937 3.345 55.826 o
8 -2 2 8.608 12.723 3.888 41.363 o
8 -2 3 0.001 -2.036 3.708 49.181 o
8 -2 4 97.957 83.878 7.341 6.651 o
8 -1 0 0.035 2.175 3.324 60.864 o
8 -1 1 5.391 8.483 6.669 14.974 o
8 -1 2 14.601 18.117 3.826 39.760 o
8 -1 3 3.966 8.679 3.975 41.310 o
8 -1 4 151.200 148.192 12.242 2.534 o
8 -1 5 67.547 64.769 9.555 5.773 o
8 0 0 45.522 49.637 4.898 17.868 o
8 0 1 703.559 695.467 41.803 0.165 o
8 0 2 113.603 105.628 6.455 6.280 o
8 0 3 7.287 11.015 4.235 35.731 o
8 0 4 33.714 26.363 4.487 24.962 o
8 0 5 0.732 -2.235 4.419 34.555 o
8 0 6 0.514 -16.522 8.958 8.423 o
8 1 0 18.326 14.191 3.718 41.086 o
8 1 1 1004.200 932.313 54.145 0.090 o
8 1 2 205.436 209.746 17.418 1.302 o
8 1 3 120.947 125.102 10.328 3.636 o
8 1 4 20.661 24.644 7.763 10.530 o
8 1 5 0.210 -4.740 4.400 34.909 o
8 1 6 0.020 -9.555 5.773 20.287 o
8 2 0 4.558 12.218 6.171 17.399 o
8 2 1 105.633 108.587 7.604 5.677 o
8 2 2 2.705 8.437 6.569 15.506 o
8 2 3 27.098 24.396 4.974 22.577 o
8 2 4 21.014 19.768 6.768 13.697 o
8 2 5 2.042 1.533 4.902 27.946 o
8 2 6 0.073 -0.025 6.868 14.334 o
8 3 0 14.741 9.197 4.379 32.290 o
8 3 1 54.191 61.019 8.958 6.798 o
8 3 2 4.577 5.923 3.814 44.923 o
8 3 3 29.105 28.271 5.349 19.489 o
8 3 4 1.494 5.018 4.714 30.107 o
8 3 5 0.108 3.807 4.925 27.754 o
8 3 6 9.645 8.385 7.963 10.482 o
8 4 0 12.247 15.154 11.048 5.458 o
8 4 1 0.438 3.084 7.166 13.137 o
8 4 2 2.246 -2.555 4.050 40.917 o
8 4 3 0.422 -7.763 6.370 16.653 o
8 4 4 9.158 6.821 5.327 23.044 o
8 4 5 4.085 -1.281 4.960 27.216 o
8 4 6 4.036 4.285 5.625 21.106 o
8 5 1 14.736 15.369 5.673 19.672 o
8 5 2 5.567 5.106 5.202 24.484 o
8 5 3 0.378 15.925 8.162 10.064 o
8 5 4 0.610 7.771 7.266 12.742 o
8 5 5 4.425 3.674 5.830 19.661 o
8 5 6 22.549 21.621 6.189 15.982 o
8 6 3 8.998 10.749 8.560 9.084 o
8 6 4 39.158 44.329 5.092 18.346 o
;
_olex2_submission_special_instructions 'No special instructions were received'
loop_
_space_group_symop_id
_space_group_symop_operation_xyz
1 x,y,z
2 -x,-y,-z
loop_
_atom_site_label
_atom_site_type_symbol
_atom_site_fract_x
_atom_site_fract_y
_atom_site_fract_z
_atom_site_U_iso_or_equiv
_atom_site_adp_type
_atom_site_occupancy
_atom_site_refinement_flags_posn
O10 O 0.25928(15) 0.63581(11) 0.34169(10) 0.0144(3) Uani 1.000000 .
O3 O 0.33548(16) 0.21577(11) 0.22691(11) 0.0183(3) Uani 1.000000 .
O9 O 0.28659(17) 0.73341(11) 0.10135(11) 0.0203(3) Uani 1.000000 .
O5 O 0.26693(18) 0.08831(11) 0.46866(11) 0.0227(3) Uani 1.000000 .
C4 C 0.2933(2) 0.20365(16) 0.36150(16) 0.0154(3) Uani 1.000000 .
C18 C 0.2090(2) 0.72803(17) 0.69464(16) 0.0160(3) Uani 1.000000 .
C13 C 0.2518(2) 0.25709(16) 0.63706(15) 0.0147(3) Uani 1.000000 .
C6 C 0.2823(2) 0.35348(16) 0.35911(15) 0.0134(3) Uani 1.000000 .
C11 C 0.2510(2) 0.51574(16) 0.47551(15) 0.0127(3) Uani 1.000000 .
C7 C 0.2938(2) 0.47315(16) 0.22877(16) 0.0147(3) Uani 1.000000 .
C16 C 0.2326(2) 0.55201(16) 0.59482(15) 0.0124(3) Uani 1.000000 .
C12 C 0.2610(2) 0.37262(16) 0.49186(15) 0.0124(3) Uani 1.000000 .
C8 C 0.2809(2) 0.62173(16) 0.21422(15) 0.0144(3) Uani 1.000000 .
C19 C 0.1987(2) 0.61222(17) 0.83637(16) 0.0169(3) Uani 1.000000 .
C20 C 0.2061(2) 0.46923(17) 0.85747(16) 0.0165(3) Uani 1.000000 .
C14 C 0.2335(2) 0.28751(16) 0.75407(16) 0.0161(3) Uani 1.000000 .
C17 C 0.2252(2) 0.69913(16) 0.57579(16) 0.0140(3) Uani 1.000000 .
C15 C 0.2234(2) 0.43406(16) 0.73765(16) 0.0140(3) Uani 1.000000 .
C2 C 0.3545(2) 0.07949(17) 0.21086(17) 0.0205(4) Uani 1.000000 .
C1 C 0.1486(3) 0.02690(18) 0.19974(18) 0.0233(4) Uani 1.000000 .
H13 H 0.2585(2) 0.15761(16) 0.65224(15) 0.0177(4) Uiso 1.000000 R
H14 H 0.2274(2) 0.20839(16) 0.84921(16) 0.0193(4) Uiso 1.000000 R
H17 H 0.2314(2) 0.77807(16) 0.48054(16) 0.0168(4) Uiso 1.000000 R
H20 H 0.1995(2) 0.39212(17) 0.95374(16) 0.0198(4) Uiso 1.000000 R
H19 H 0.1866(2) 0.63348(17) 0.91782(16) 0.0203(4) Uiso 1.000000 R
H18 H 0.2046(2) 0.82701(17) 0.68108(16) 0.0192(4) Uiso 1.000000 R
H7 H 0.3112(2) 0.45921(16) 0.14305(16) 0.0176(4) Uiso 1.000000 R
H2a H 0.4441(2) 0.09648(17) 0.12235(17) 0.0246(4) Uiso 1.000000 R
H2b H 0.4180(2) 0.00282(17) 0.29569(17) 0.0246(4) Uiso 1.000000 R
H1a H 0.0813(7) 0.1056(4) 0.1204(8) 0.0350(6) Uiso 1.000000 GR
H1b H 0.1659(3) -0.0591(7) 0.1801(11) 0.0350(6) Uiso 1.000000 GR
H1c H 0.0648(6) -0.0000(11) 0.2915(4) 0.0350(6) Uiso 1.000000 GR
loop_
_atom_site_aniso_label
_atom_site_aniso_U_11
_atom_site_aniso_U_22
_atom_site_aniso_U_33
_atom_site_aniso_U_12
_atom_site_aniso_U_13
_atom_site_aniso_U_23
O10 0.0193(6) 0.0133(6) 0.0104(5) -0.0005(4) -0.0007(4) -0.0054(4)
O3 0.0250(6) 0.0147(6) 0.0176(6) -0.0024(4) 0.0022(5) -0.0098(4)
O9 0.0303(7) 0.0158(6) 0.0132(5) -0.0006(5) -0.0018(5) -0.0049(5)
O5 0.0353(7) 0.0136(6) 0.0180(6) -0.0009(5) -0.0010(5) -0.0060(5)
C4 0.0118(7) 0.0178(8) 0.0178(8) 0.0000(6) -0.0019(6) -0.0087(6)
C18 0.0148(7) 0.0162(8) 0.0192(8) 0.0005(6) -0.0013(6) -0.0098(6)
C13 0.0119(7) 0.0150(8) 0.0169(7) -0.0003(5) -0.0019(6) -0.0065(6)
C6 0.0100(7) 0.0159(8) 0.0160(7) -0.0013(5) -0.0014(6) -0.0085(6)
C11 0.0103(7) 0.0150(8) 0.0122(7) -0.0010(5) -0.0010(6) -0.0053(6)
C7 0.0148(7) 0.0169(8) 0.0147(7) -0.0001(6) -0.0014(6) -0.0090(6)
C16 0.0103(7) 0.0147(8) 0.0128(7) 0.0001(5) -0.0016(6) -0.0064(6)
C12 0.0101(7) 0.0133(7) 0.0130(7) -0.0013(5) -0.0010(6) -0.0049(6)
C8 0.0140(7) 0.0178(8) 0.0124(7) -0.0006(6) -0.0016(6) -0.0073(6)
C19 0.0160(8) 0.0232(9) 0.0145(7) 0.0005(6) -0.0012(6) -0.0109(6)
C20 0.0165(8) 0.0186(8) 0.0120(7) -0.0011(6) -0.0002(6) -0.0046(6)
C14 0.0162(8) 0.0145(8) 0.0133(7) -0.0012(6) -0.0013(6) -0.0021(6)
C17 0.0115(7) 0.0158(8) 0.0135(7) -0.0001(5) -0.0015(6) -0.0053(6)
C15 0.0101(7) 0.0177(8) 0.0151(7) -0.0011(5) -0.0012(6) -0.0079(6)
C2 0.0267(9) 0.0160(8) 0.0231(8) -0.0004(6) 0.0036(7) -0.0134(7)
C1 0.0301(9) 0.0179(9) 0.0255(9) -0.0013(7) -0.0018(7) -0.0128(7)
loop_
_atom_type_symbol
_atom_type_scat_dispersion_real
_atom_type_scat_dispersion_imag
_atom_type_scat_Cromer_Mann_a1
_atom_type_scat_Cromer_Mann_a2
_atom_type_scat_Cromer_Mann_a3
_atom_type_scat_Cromer_Mann_a4
_atom_type_scat_Cromer_Mann_b1
_atom_type_scat_Cromer_Mann_b2
_atom_type_scat_Cromer_Mann_b3
_atom_type_scat_Cromer_Mann_b4
_atom_type_scat_Cromer_Mann_c
_atom_type_scat_source
_atom_type_scat_dispersion_source
H 0.00000 0.00000 0.49300 0.32291 0.14019 0.04081 10.51090 26.12570 3.14236
57.79970 0.0030380000826
'International Tables Volume C Table 6.1.1.4 (pp. 500-502)'
'Henke, Gullikson and Davis, At. Data and Nucl. Data Tables, 1993, 54, 2'
C 0.00347 0.00161 2.31000 1.02000 1.58860 0.86500 20.84390 10.20750 0.56870
51.65120 0.215599998832
'International Tables Volume C Table 6.1.1.4 (pp. 500-502)'
'Henke, Gullikson and Davis, At. Data and Nucl. Data Tables, 1993, 54, 2'
O 0.01158 0.00611 3.04850 2.28680 1.54630 0.86700 13.27710 5.70110 0.32390
32.90890 0.250800013542
'International Tables Volume C Table 6.1.1.4 (pp. 500-502)'
'Henke, Gullikson and Davis, At. Data and Nucl. Data Tables, 1993, 54, 2'
loop_
_geom_angle_atom_site_label_1
_geom_angle_atom_site_label_2
_geom_angle_atom_site_label_3
_geom_angle
C8 O10 C11 122.00(11)
C2 O3 C4 117.36(11)
O5 C4 O3 124.11(13)
C6 C4 O3 110.59(12)
C6 C4 O5 125.29(13)
C17 C18 C19 120.54(14)
H18 C18 C19 119.73(9)
H18 C18 C17 119.73(9)
C14 C13 C12 121.04(14)
H13 C13 C12 119.48(8)
H13 C13 C14 119.48(9)
C7 C6 C4 118.27(13)
C12 C6 C4 122.27(13)
C12 C6 C7 119.46(13)
C16 C11 O10 113.97(12)
C12 C11 O10 122.63(13)
C12 C11 C16 123.39(13)
C8 C7 C6 122.73(13)
H7 C7 C6 118.64(9)
H7 C7 C8 118.64(8)
C17 C16 C11 122.54(13)
C15 C16 C11 117.70(13)
C15 C16 C17 119.76(13)
C6 C12 C13 125.86(13)
C11 C12 C13 117.26(13)
C11 C12 C6 116.88(13)
O9 C8 O10 117.51(13)
C7 C8 O10 116.29(12)
C7 C8 O9 126.20(13)
C20 C19 C18 120.35(14)
H19 C19 C18 119.83(9)
H19 C19 C20 119.83(9)
C15 C20 C19 121.08(14)
H20 C20 C19 119.46(9)
H20 C20 C15 119.46(9)
C15 C14 C13 121.83(13)
H14 C14 C13 119.08(9)
H14 C14 C15 119.08(8)
C16 C17 C18 120.17(13)
H17 C17 C18 119.91(9)
H17 C17 C16 119.91(8)
C20 C15 C16 118.11(13)
C14 C15 C16 118.78(13)
C14 C15 C20 123.12(13)
C1 C2 O3 110.80(12)
H2a C2 O3 109.48(7)
H2a C2 C1 109.48(8)
H2b C2 O3 109.48(8)
H2b C2 C1 109.48(9)
H2b C2 H2a 108.1
H1a C1 C2 109.5
H1b C1 C2 109.5
H1b C1 H1a 109.5
H1c C1 C2 109.5
H1c C1 H1a 109.5
H1c C1 H1b 109.5
loop_
_geom_bond_atom_site_label_1
_geom_bond_atom_site_label_2
_geom_bond_distance
O10 C11 1.3734(16)
O10 C8 1.3758(16)
O3 C4 1.3392(17)
O3 C2 1.4626(17)
O9 C8 1.2091(17)
O5 C4 1.2048(18)
C4 C6 1.508(2)
C18 C19 1.407(2)
C18 C17 1.373(2)
C18 H18 0.9500
C13 C12 1.4301(19)
C13 C14 1.364(2)
C13 H13 0.9500
C6 C7 1.350(2)
C6 C12 1.4568(19)
C11 C16 1.4241(19)
C11 C12 1.385(2)
C7 C8 1.447(2)
C7 H7 0.9500
C16 C17 1.416(2)
C16 C15 1.423(2)
C19 C20 1.367(2)
C19 H19 0.9500
C20 C15 1.422(2)
C20 H20 0.9500
C14 C15 1.419(2)
C14 H14 0.9500
C17 H17 0.9500
C2 C1 1.506(2)
C2 H2a 0.9900
C2 H2b 0.9900
C1 H1a 0.9800
C1 H1b 0.9800
C1 H1c 0.9800
loop_
_refln_index_h
_refln_index_k
_refln_index_l
_refln_F_squared_meas
_refln_F_squared_sigma
-1 0 0 16.3 1.8
-1 0 0 14.4 1.6
1 0 0 13.9 1.8
1 0 0 14.2 1.6
-2 0 0 8827.22 482.55
-2 0 0 8935.91 482.85
-2 0 0 9999 483.25
2 0 0 8540.55 482.45
2 0 0 9462.05 483.25
2 0 0 9134.19 483.05
-3 0 0 65.99 4.3
-3 0 0 66.39 3.7
-3 0 0 65.89 3.8
3 0 0 66.39 3.7
3 0 0 60.99 3.9
-4 0 0 1439.96 76.59
-4 0 0 1343.37 76.49
-4 0 0 1544.35 76.39
4 0 0 1479.05 76.59
4 0 0 1334.87 76.99
4 0 0 1514.65 76.29
-5 0 0 12.4 1.6
-5 0 0 13.6 1.8
5 0 0 12.8 2
5 0 0 12.3 1.5
-6 0 0 180.48 9.9
-6 0 0 160.78 10
6 0 0 187.58 11.1
-7 0 0 3.3 1.5
-7 0 0 4 1.7
7 0 0 9.3 2.6
-8 0 0 23.2 3
8 0 0 27.9 4.3
8 -1 0 2 3.5
-8 1 0 0.6 1.9
7 -1 0 2.4 2.7
-7 1 0 -2.2 1.6
-7 1 0 1.2 1.4
6 -1 0 39.7 4.2
-6 1 0 39.8 2.8
-6 1 0 35.1 3
5 -1 0 30.3 3
5 -1 0 26.8 2.2
-5 1 0 27.9 2.1
-5 1 0 28.4 2.3
4 -1 0 191.18 10.8
4 -1 0 192.88 10.5
4 -1 0 186.58 11.1
-4 1 0 175.38 10.6
-4 1 0 197.08 10.5
-4 1 0 209.58 11
3 -1 0 39 2.6
3 -1 0 38.7 2.3
-3 1 0 38.3 2.3
-3 1 0 39.8 2.6
-3 1 0 36.3 2.9
-3 1 0 38.2 2.5
2 -1 0 581.44 33.8
2 -1 0 657.73 33.7
2 -1 0 641.94 34
-2 1 0 603.64 33.6
-2 1 0 675.83 33.8
-2 1 0 651.13 34
-2 1 0 638.44 33.8
1 -1 0 67.49 3.8
1 -1 0 64.69 3.9
1 -1 0 70.99 3.9
-1 1 0 68.99 3.8
-1 1 0 70.39 3.9
-1 1 0 73.39 3.9
0 -1 0 0 0.1
-1 -1 0 209.28 11
-1 -1 0 180.58 10.9
-1 -1 0 213.78 10.9
1 1 0 208.38 11
1 1 0 210.08 10.9
1 1 0 187.08 11
1 1 0 214.58 10.9
-2 -1 0 2714.13 146.89
-2 -1 0 2363.86 146.69
-2 -1 0 3062.19 147.09
2 1 0 2767.92 146.79
2 1 0 2823.82 146.69
2 1 0 2958.2 146.99
-3 -1 0 16.5 1.2
-3 -1 0 14.2 1.2
-3 -1 0 9.2 1.5
3 1 0 11.8 1.5
3 1 0 13 1.1
3 1 0 13.2 1.3
-4 -1 0 1339.37 62.99
-4 -1 0 1095.39 62.99
4 1 0 1102.19 63.49
4 1 0 1209.58 62.79
-5 -1 0 2.6 1.1
-5 -1 0 2.8 1
5 1 0 1.8 1.4
5 1 0 2.1 0.8
-6 -1 0 172.28 9.9
-6 -1 0 178.98 10.1
6 1 0 171.88 10.9
-7 -1 0 8.9 2
-7 -1 0 9.3 1.8
7 1 0 8 3.1
-8 -1 0 6 2.3
8 1 0 8.7 3.2
8 -2 0 6.2 3.4
-8 2 0 1.6 2
7 -2 0 -1 2.5
-7 2 0 0.1 1.3
-7 2 0 0.8 1.4
6 -2 0 -0.3 1.9
-6 2 0 2.1 1.2
-6 2 0 0.2 1
5 -2 0 18.4 2.6
-5 2 0 21.3 2
-5 2 0 20.5 1.7
4 -2 0 3.7 1.2
4 -2 0 2.3 0.9
-4 2 0 2.9 0.7
-4 2 0 2.6 0.6
3 -2 0 346.47 18.4
3 -2 0 337.57 18.2
-3 2 0 351.46 18.6
-3 2 0 326.37 18.4
-3 2 0 334.57 18.1
-3 2 0 337.67 18.4
2 -2 0 13.4 1.1
2 -2 0 13.5 1.3
2 -2 0 14.4 1.3
-2 2 0 13.3 1
-2 2 0 14.2 1.4
-2 2 0 14.2 1.4
1 -2 0 1581.44 73.89
1 -2 0 1281.27 73.69
1 -2 0 1341.87 73.79
-1 2 0 1549.05 73.89
-1 2 0 1329.67 73.69
-1 2 0 1290.67 73.69
0 -2 0 35.3 2.2
0 -2 0 33.9 2.2
0 2 0 39.1 2.2
0 2 0 35.9 2.2
-1 -2 0 492.95 25.9
-1 -2 0 494.55 25.9
-1 -2 0 499.25 25.9
1 2 0 480.45 25.9
1 2 0 455.75 25.8
1 2 0 493.25 25.9
-2 -2 0 247.58 13.9
-2 -2 0 264.87 14.1
2 2 0 264.57 13.9
2 2 0 252.67 14.1
2 2 0 254.77 13.9
2 2 0 258.17 13.9
-3 -2 0 1.6 0.7
-3 -2 0 2 1.2
3 2 0 1.1 0.9
3 2 0 1.1 0.7
3 2 0 2.6 0.6
-4 -2 0 59.39 3.7
-4 -2 0 54.49 3.7
4 2 0 56.59 4.2
4 2 0 62.69 3.6
-5 -2 0 10.1 1.9
-5 -2 0 8.8 1.4
5 2 0 8.5 1.1
5 2 0 8 2
-6 -2 0 0.2 1.2
-6 -2 0 0 1.4
6 2 0 2.8 1.8
-7 -2 0 -1.1 1.5
7 2 0 -2 2.3
-8 -2 0 3.8 2.3
8 2 0 10 3.8
8 -3 0 11.1 3.6
-8 3 0 7.9 2.3
7 -3 0 5.7 2.8
-7 3 0 5.6 1.6
6 -3 0 7.8 2.3
-6 3 0 9.7 1.4
-6 3 0 12.7 1.8
5 -3 0 2.8 1.5
-5 3 0 0.9 0.9
-5 3 0 -0.8 0.7
4 -3 0 12.5 1.6
4 -3 0 14 1.8
-4 3 0 9.1 1.2
-4 3 0 12.8 1.6
3 -3 0 56.19 3.5
3 -3 0 58.79 3.8
3 -3 0 52.39 3.6
-3 3 0 60.39 3.9
-3 3 0 54.59 3.5
-3 3 0 52.59 3.3
2 -3 0 45.6 2.8
2 -3 0 42.2 2.8
2 -3 0 45.6 2.9
-2 3 0 41.9 2.7
-2 3 0 43.2 3
-2 3 0 43.3 2.8
1 -3 0 244.48 12.6
1 -3 0 251.27 12.9
1 -3 0 225.48 12.9
-1 3 0 240.08 12.8
-1 3 0 216.48 12.9
0 -3 0 143.69 8
0 -3 0 137.39 8
0 3 0 145.29 8
0 3 0 150.98 8
-1 -3 0 18.8 1.4
-1 -3 0 18.6 1.5
-1 -3 0 18.9 1.5
1 3 0 19.6 1.5
1 3 0 19 1.4
1 3 0 16.9 1.3
1 3 0 16.6 1.5
-2 -3 0 58.09 3.6
-2 -3 0 56.99 3.7
2 3 0 66.39 3.6
2 3 0 55.99 3.6
2 3 0 57.59 3.6
2 3 0 55.09 3.6
-3 -3 0 20.2 2.4
-3 -3 0 21.8 1.9
-3 -3 0 20.7 1.8
3 3 0 21.7 1.9
3 3 0 23.6 1.9
3 3 0 20.1 1.9
3 3 0 23.5 2.1
-4 -3 0 20.1 2.8
-4 -3 0 29.3 2.2
4 3 0 24.9 2.7
4 3 0 27.8 2.4
4 3 0 26.2 2.1
-5 -3 0 1.7 1
-5 -3 0 -0.6 1.1
5 3 0 2.1 1.1
5 3 0 0.7 1.6
5 3 0 -0.9 1
-6 -3 0 16.3 2.1
-6 -3 0 17 2.1
6 3 0 17.8 2.4
6 3 0 22.4 3.2
-7 -3 0 3.7 2.1
7 3 0 7.7 2.9
-8 -3 0 6.6 2.7
8 3 0 2.2 3.3
8 -4 0 8.3 3.6
-8 4 0 0.9 2.3
7 -4 0 43.7 5.4
-7 4 0 42.2 4.2
-7 4 0 45.8 3.5
6 -4 0 0.3 1.9
-6 4 0 0.9 1.1
-6 4 0 0.9 1.4
5 -4 0 8.7 1.9
5 -4 0 8.9 1.6
-5 4 0 9.4 1.3
-5 4 0 9 1.5
4 -4 0 7.6 1.5
4 -4 0 5.9 1.3
-4 4 0 9.4 1.1
-4 4 0 6.1 1.3
3 -4 0 1.5 0.9
3 -4 0 2.1 1
-3 4 0 3.5 0.7
-3 4 0 4.1 1.2
2 -4 0 3.8 0.7
2 -4 0 3 0.9
2 -4 0 5.9 1.1
-2 4 0 2.7 0.7
-2 4 0 3.4 1.2
-2 4 0 3.5 0.8
1 -4 0 13.9 1
1 -4 0 16 1.6
1 -4 0 13.1 1.5
-1 4 0 12.6 1.6
-1 4 0 14.4 1.3
-1 4 0 16.1 1
0 -4 0 99.89 6.1
0 4 0 99.69 6.3
0 4 0 113.49 6.1
-1 -4 0 35.1 2.3
-1 -4 0 36.5 2.6
-1 -4 0 30.6 2.5
1 4 0 34.7 2.6
1 4 0 37.5 2.5
1 4 0 35.9 2.5
1 4 0 35.2 2.2
-2 -4 0 35.9 2.8
-2 -4 0 43.8 3
-2 -4 0 45 3.1
2 4 0 46.4 3.2
2 4 0 44.6 3
2 4 0 47.5 2.9
-3 -4 0 18.4 2.4
-3 -4 0 21.5 2
3 4 0 21 2.2
3 4 0 22.2 2.1
3 4 0 19.7 1.9
-4 -4 0 -0.4 0.8
4 4 0 0.9 0.9
4 4 0 -0.4 1.4
4 4 0 0.2 1.3
-5 -4 0 1.5 1.1
-5 -4 0 -0.1 1.3
5 4 0 1.2 1.2
5 4 0 -0.5 1.5
-6 -4 0 6.9 1.9
6 4 0 8.9 2.3
6 4 0 7 1.6
-7 -4 0 -2 2.1
7 4 0 4.9 3
-8 -4 0 11.7 2.9
8 4 0 0.6 3.7
7 -5 0 18.7 3.5
-7 5 0 18.1 2.2
-7 5 0 19.2 2.7
6 -5 0 27.1 3.5
-6 5 0 33.1 2.8
-6 5 0 31.8 3.3
5 -5 0 20.2 2.8
5 -5 0 27.2 3
-5 5 0 22 2.7
-5 5 0 26.1 2.2
4 -5 0 38.8 3.2
4 -5 0 40.7 3.4
-4 5 0 39.5 2.9
-4 5 0 41.1 3.3
3 -5 0 -0.6 0.9
3 -5 0 -1.1 1
-3 5 0 0.6 0.7
-3 5 0 -0.4 1
2 -5 0 16.3 1.5
2 -5 0 14.2 2
-2 5 0 17.5 1.7
-2 5 0 20.6 1.5
1 -5 0 106.69 6.6
-1 5 0 114.89 6.5
0 -5 0 10.6 1.5
0 5 0 9.4 1.3
-1 -5 0 122.19 6.7
-1 -5 0 123.99 7.1
1 5 0 124.29 6.6
1 5 0 108.09 7
-2 -5 0 22.4 2.1
-2 -5 0 22.2 2.2
2 5 0 21.5 2
2 5 0 23.8 2
-3 -5 0 11.8 2.1
-3 -5 0 12.9 1.7
3 5 0 11.8 1.6
3 5 0 12.4 1.6
-4 -5 0 21.4 2.4
4 5 0 22.9 2.4
4 5 0 25 2.7
-5 -5 0 3 1.5
5 5 0 2.8 1.4
5 5 0 3.6 1.7
-6 -5 0 9.9 2.2
6 5 0 7.2 2
-7 -5 0 10.9 2.7
7 5 0 6.8 3
7 -6 0 6 3
-7 6 0 16.3 2.9
-7 6 0 14 2.3
6 -6 0 4.5 2.2
6 -6 0 1.5 2.2
-6 6 0 2 1.4
-6 6 0 4.4 2
5 -6 0 23.6 2.7
5 -6 0 25.1 3.2
-5 6 0 22 2.4
-5 6 0 26.8 3.3
4 -6 0 2.4 1.3
4 -6 0 2.2 1.5
-4 6 0 4.8 1.2
3 -6 0 4.6 1.4
3 -6 0 5.1 1.1
-3 6 0 3.8 1
-3 6 0 0.8 1.3
2 -6 0 8.3 1.1
2 -6 0 4.6 1.5
-2 6 0 9 1
-2 6 0 7 1.3
1 -6 0 30.9 2.9
-1 6 0 36.2 2.6
0 -6 0 94.39 6
0 6 0 94.89 5.8
-1 -6 0 0.6 1.1
-1 -6 0 2.3 0.7
1 6 0 2.3 0.5
1 6 0 1.9 1
-2 -6 0 110.39 7
-2 -6 0 117.29 6.7
2 6 0 120.49 6.6
2 6 0 108.19 6.9
-3 -6 0 9.4 1.5
3 6 0 9.7 1.5
3 6 0 9.8 1.6
-4 -6 0 35.3 3.4
4 6 0 34.5 3.2
4 6 0 41.5 3.5
-5 -6 0 1.1 1.6
5 6 0 3.1 1.9
5 6 0 0.4 1.5
-6 -6 0 4.9 2.3
6 6 0 7.6 2.1
6 6 0 4 2.3
-7 -6 0 11.7 3.1
7 6 0 22.1 3.7
-7 7 0 -2.6 2.8
-7 7 0 4.6 2.1
6 -7 0 8.1 2.6
6 -7 0 9.7 2.8
-6 7 0 9.5 2.5
-6 7 0 8.8 2
5 -7 0 34.9 3.9
5 -7 0 25.9 3.5
-5 7 0 27.8 3.8
-5 7 0 35.4 4.2
4 -7 0 0.7 1.9
4 -7 0 -0.5 1.4
-4 7 0 1.1 1.2
3 -7 0 155.88 8.9
3 -7 0 157.38 9.8
-3 7 0 164.58 8.9
-3 7 0 155.98 9.3
2 -7 0 75.49 5.1
-2 7 0 64.09 4.6
1 -7 0 124.09 7.6
-1 7 0 113.29 7.1
0 -7 0 104.69 6.6
0 7 0 96.09 6.3
-1 -7 0 1.4 1.4
1 7 0 1.6 1
-2 -7 0 21.9 2.3
-2 -7 0 20.8 2.7
2 7 0 24.5 2
2 7 0 18.9 2.4
-3 -7 0 139.49 8.5
3 7 0 128.79 8.2
3 7 0 137.09 8
-4 -7 0 -0.7 1.4
4 7 0 2 1.6
4 7 0 -1.1 1.5
-5 -7 0 191.48 11.1
5 7 0 180.98 11.1
5 7 0 170.38 10.8
-6 -7 0 4.6 2.5
6 7 0 1.8 2.7
6 7 0 0.4 2.2
-7 -7 0 174.08 11.7
6 -8 0 5.5 3.1
-6 8 0 3.6 2.9
-6 8 0 5 2.2
5 -8 0 7.2 2.9
-5 8 0 8.2 1.8
-5 8 0 4.1 2.4
4 -8 0 -2.6 2.2
-4 8 0 0.9 1.3
3 -8 0 34.2 4
-3 8 0 38.6 3.4
2 -8 0 0.8 1.7
-2 8 0 2.5 1.2
1 -8 0 144.49 8.4
-1 8 0 116.09 7.8
0 -8 0 41.8 4.1
0 8 0 46.9 3.6
-1 -8 0 125.09 8.3
1 8 0 132.39 8.1
-2 -8 0 172.18 10.9
2 8 0 198.88 9.9
2 8 0 163.18 10.6
-3 -8 0 16.4 2.6
3 8 0 11.4 1.6
3 8 0 9.2 1.8
-4 -8 0 114.89 8
4 8 0 122.39 7.6
4 8 0 121.09 7.8
-5 -8 0 37.5 4.3
5 8 0 40.3 4.4
5 8 0 36.1 4.2
-6 -8 0 25.9 3.6
6 8 0 20.2 3.9
5 -9 0 3.9 3.3
-5 9 0 4.5 2
4 -9 0 48.2 5.7
-4 9 0 61.69 4.6
3 -9 0 22.1 3.4
-3 9 0 28.1 3.1
2 -9 0 86.89 6.8
-2 9 0 91.99 6
1 -9 0 23.4 4.3
-1 9 0 26.2 2.8
0 9 0 14.1 3
-1 -9 0 7.9 2.2
1 9 0 9.2 2.1
-2 -9 0 -0.1 1.8
2 9 0 -0.1 2
-3 -9 0 -5.1 2.1
-4 -9 0 0.8 2.5
-5 -9 0 -1.4 2.6
5 9 0 -5.8 2.5
4 -10 0 5.3 3.3
-4 10 0 9.9 2.2
3 -10 0 -4.8 2.6
-3 10 0 3.5 1.8
2 -10 0 5.1 2.9
-2 10 0 11.7 2.2
1 -10 0 5.8 2.8
-1 10 0 6.4 2
0 -10 0 -5.2 2.2
0 10 0 -1.3 1.8
-1 -10 0 18.1 3.2
1 10 0 12.6 2.6
-2 -10 0 2.2 2.7
2 10 0 -2 2
-3 -10 0 8.6 3.2
3 10 0 4.6 2.5
-4 -10 0 -8.9 3
4 10 0 3.8 2.6
3 -11 0 9.3 3.8
-3 11 0 11.6 2.9
2 -11 0 133.79 10
-2 11 0 140.39 9
1 -11 0 1.7 3.6
-1 11 0 4.5 2.5
0 -11 0 154.58 11.5
0 11 0 185.08 10.9
-1 -11 0 7.4 3.4
1 11 0 -0.9 2.1
-2 -11 0 121.19 9.2
2 11 0 105.89 8
-3 -11 0 -1.7 3
3 11 0 0.5 2.7
1 -12 0 0.6 3.9
-1 12 0 1.7 2.8
0 -12 0 59.59 7.2
0 12 0 50.29 5.7
-1 -12 0 -0.6 4
1 12 0 3 3
2 11 -1 2.8 2.7
-2 -11 1 7.9 3.5
1 11 -1 5.3 2.6
-1 -11 1 4.8 3.8
0 11 -1 0.7 2.5
0 -11 1 1.3 3.7
-1 11 -1 6.5 2.7
1 -11 1 15 4
-2 11 -1 28.6 3.6
2 -11 1 16.2 4.5
4 10 -1 -4.8 2.7
-4 -10 1 -2.8 3.4
3 10 -1 3.2 2.4
-3 -10 1 1.3 3
2 10 -1 4.6 2.2
-2 -10 1 13.3 3.3
1 10 -1 -0.4 2.2
-1 -10 1 1.3 2.5
0 10 -1 11 2.3
0 -10 1 8 3.1
-1 10 -1 1.2 2.1
1 -10 1 1.3 2.8
-2 10 -1 3.5 2.2
2 -10 1 7.3 3.2
-3 10 -1 5.5 2.4
3 -10 1 -1.2 3
-4 10 -1 5.5 2.5
4 -10 1 -0.8 3.5
5 9 -1 -5.3 3.4
-5 -9 1 -3.1 2.8
4 9 -1 0.4 2.3
-4 -9 1 5.3 3.1
3 9 -1 11.2 2.3
-3 -9 1 9.3 2.9
2 9 -1 6.4 2.1
-2 -9 1 7.8 2.6
1 9 -1 12.5 2.4
-1 -9 1 16.8 3
0 9 -1 37.8 3.7
0 -9 1 37.9 4.4
-1 9 -1 1.8 1.6
1 -9 1 5.2 2.6
-2 9 -1 25.2 2.9
2 -9 1 21.9 3.4
-3 9 -1 23.1 2.8
3 -9 1 13.8 3.3
-4 9 -1 2.7 1.7
4 -9 1 0.5 2.8
-5 9 -1 6.6 2.5
5 -9 1 7.8 3.5
6 8 -1 -2.3 3.1
-6 -8 1 3.7 3.4
5 8 -1 151.98 9.8
5 8 -1 157.88 9.8
-5 -8 1 162.58 10.5
4 8 -1 8 2.2
4 8 -1 6.6 2
-4 -8 1 4.1 2.4
3 8 -1 303.37 16.2
3 8 -1 282.37 16.6
-3 -8 1 290.47 17.1
2 8 -1 22.1 2.1
2 8 -1 22.7 2.6
-2 -8 1 22.8 4.4
1 8 -1 139.69 8
-1 -8 1 114.79 8.2
0 8 -1 34.9 3.2
0 -8 1 25.7 3.3
-1 8 -1 2.3 1.4
1 -8 1 -0.8 1.7
-2 8 -1 13.5 2.3
2 -8 1 12.7 2.6
-3 8 -1 24.2 2.8
3 -8 1 17.5 4.2
-4 8 -1 4.9 1.8
4 -8 1 6.3 2.5
-5 8 -1 4.9 1.9
5 -8 1 6.6 2.9
-6 8 -1 10.4 2.6
-6 8 -1 12.2 3.4
6 -8 1 6.3 3.3
6 7 -1 34.8 4.2
-6 -7 1 38.8 4.8
5 7 -1 544.35 29.5
5 7 -1 486.25 29.1
-5 -7 1 573.44 29.7
4 7 -1 24.7 3.1
4 7 -1 20.5 2.6
-4 -7 1 29.6 3.4
3 7 -1 795.12 43.1
3 7 -1 786.92 43.3
-3 -7 1 828.42 43.7
2 7 -1 38.7 2.8
2 7 -1 38.1 3.3
-2 -7 1 40.1 3.4
-2 -7 1 40.4 3.7
1 7 -1 1027.6 56.09
1 7 -1 1088.39 55.39
-1 -7 1 1049.3 55.39
-1 -7 1 995.9 56.29
-1 -7 1 1067.69 55.29
0 7 -1 134.59 7.9
0 -7 1 128.59 8.3
-1 7 -1 720.83 40.5
1 -7 1 784.22 40.9
-2 7 -1 210.68 11.9
2 -7 1 203.98 12.3
-3 7 -1 132.99 7.8
3 -7 1 131.89 7.5
3 -7 1 122.89 8.4
-4 7 -1 86.39 5.9
4 -7 1 88.69 6.3
4 -7 1 87.59 5.7
-5 7 -1 4.6 2.1
-5 7 -1 2.6 1.6
5 -7 1 4.9 2.2
5 -7 1 4.7 2.4
-6 7 -1 10.7 2.8
-6 7 -1 12.7 2.4
6 -7 1 10.1 2.9
7 6 -1 57.29 6.3
-7 -6 1 42.8 4.9
6 6 -1 28.7 3.8
-6 -6 1 22.4 3.2
5 6 -1 158.48 9.1
5 6 -1 144.99 9.6
-5 -6 1 154.48 9.6
4 6 -1 71.99 4.8
4 6 -1 66.39 4.5
-4 -6 1 51.89 4.6
3 6 -1 226.18 12.7
3 6 -1 225.18 12.8
-3 -6 1 226.08 13
2 6 -1 15.6 2.1
2 6 -1 19.6 2
-2 -6 1 19.6 2.3
-2 -6 1 19.9 2.4
1 6 -1 207.48 11.4
1 6 -1 201.68 10.8
-1 -6 1 213.38 11
-1 -6 1 175.68 11.5
0 6 -1 28.4 2.4
0 -6 1 29.7 2.7
-1 6 -1 136.29 8
1 -6 1 137.99 8.3
-2 6 -1 72.69 4.1
-2 6 -1 63.39 4.5
2 -6 1 81.29 4.2
2 -6 1 68.79 5.1
2 -6 1 65.99 4.2
-3 6 -1 105.59 5.9
-3 6 -1 93.79 5.9
3 -6 1 101.39 5.9
3 -6 1 87.29 6.4
-4 6 -1 6.2 1.2
4 -6 1 5.2 1.4
4 -6 1 6 1.9
-5 6 -1 35 3.2
-5 6 -1 43.3 4
5 -6 1 43 4
5 -6 1 36.7 3.9
-6 6 -1 2.7 1.6
-6 6 -1 0.8 2.1
6 -6 1 0.5 2.4
6 -6 1 -0.2 2.1
-7 6 -1 0.9 2.5
-7 6 -1 0.9 2
7 -6 1 1.7 3.2
7 5 -1 6.6 3.1
-7 -5 1 1.7 2.5
6 5 -1 2.6 2.3
-6 -5 1 3.2 2.1
5 5 -1 1.7 1.4
5 5 -1 1.9 1.9
-5 -5 1 1.2 1.7
4 5 -1 8.4 1.7
4 5 -1 6.7 1.4
-4 -5 1 7.2 1.6
3 5 -1 6.6 1.3
3 5 -1 6.5 1.4
-3 -5 1 3.6 1.1
2 5 -1 49.7 3.5
2 5 -1 54.59 3.4
-2 -5 1 52.39 3.7
-2 -5 1 48 3.6
1 5 -1 25.5 2.2
1 5 -1 27.4 1.8
-1 -5 1 24.6 2
-1 -5 1 24.7 2.3
0 5 -1 75.69 4.6
0 -5 1 78.79 4.4
0 -5 1 69.19 4.8
0 -5 1 74.19 4.1
-1 5 -1 27.4 2.2
1 -5 1 26.9 2.5
1 -5 1 31.6 1.8
1 -5 1 31.4 1.9
-2 5 -1 4.8 1
-2 5 -1 6.9 0.9
2 -5 1 7 1
2 -5 1 5.9 1.4
-3 5 -1 10.5 1.5
-3 5 -1 8.8 1.3
3 -5 1 10.2 1.4
3 -5 1 9.4 1.6
-4 5 -1 20.1 1.8
4 -5 1 19.1 2.3
4 -5 1 17.6 2.3
-5 5 -1 2.2 1.5
-5 5 -1 0.9 1.1
5 -5 1 1.6 1.5
5 -5 1 0.6 1.8
-6 5 -1 11.8 2.2
-6 5 -1 18.4 2.1
6 -5 1 18.2 2.8
6 -5 1 17.2 2.3
-7 5 -1 1.7 2.1
-7 5 -1 0.9 1.7
7 -5 1 0 2.9
8 4 -1 10.3 4.1
-8 -4 1 11.6 3.1
7 4 -1 17.6 3.4
-7 -4 1 20.8 3.2
6 4 -1 12.1 1.9
-6 -4 1 9.5 2.4
5 4 -1 22.3 2.5
5 4 -1 22.1 3.1
-5 -4 1 24 2.6
4 4 -1 18.5 2.5
4 4 -1 18.9 2.1
4 4 -1 21.5 2.5
-4 -4 1 18.6 2.2
3 4 -1 4.3 1.1
3 4 -1 2.6 1.4
3 4 -1 3 0.9
-3 -4 1 3.3 1
2 4 -1 44.1 3.1
2 4 -1 43.4 2.8
2 4 -1 36.6 2.8
-2 -4 1 36.9 2.8
-2 -4 1 41.7 3
-2 -4 1 41.1 3
1 4 -1 3.9 0.8
1 4 -1 5.8 0.8
-1 -4 1 5.7 1
-1 -4 1 6.8 0.9
-1 -4 1 2.6 1
0 4 -1 30.2 1.9
0 4 -1 30.5 2.3
0 4 -1 33.9 2.4
0 -4 1 32.8 2.5
0 -4 1 35.1 2
0 -4 1 34.1 1.9
0 -4 1 32.8 2.5
-1 4 -1 -0.5 0.9
-1 4 -1 0.5 0.5
-1 4 -1 -0.4 0.3
1 -4 1 0.5 0.4
1 -4 1 0.1 0.5
1 -4 1 -0.3 1
1 -4 1 1.1 0.7
-2 4 -1 1.3 0.6
-2 4 -1 1.5 0.7
-2 4 -1 2 1.3
2 -4 1 0.6 0.8
2 -4 1 0.8 0.7
-3 4 -1 29.7 2.5
-3 4 -1 27.5 2.1
3 -4 1 26.3 2.4
-4 4 -1 10.5 1.5
-4 4 -1 8 1.3
4 -4 1 10.1 1.6
4 -4 1 10.4 1.7
-5 4 -1 26.7 2.6
-5 4 -1 27.8 2.3
5 -4 1 23.9 2.6
5 -4 1 30.8 3.3
-6 4 -1 6.1 1.4
-6 4 -1 7.7 1.6
6 -4 1 8.2 2.3
-7 4 -1 9.8 2.2
-7 4 -1 7.6 1.8
7 -4 1 6.5 2.9
-8 4 -1 -2.7 2.2
8 -4 1 -8.4 3.6
8 3 -1 16.4 4.3
-8 -3 1 23.5 3.4
7 3 -1 0.7 2.8
-7 -3 1 2.8 2
6 3 -1 2.1 2.1
6 3 -1 0.5 1.2
-6 -3 1 0.7 1.4
5 3 -1 -0.9 1.5
5 3 -1 -0.1 1.4
5 3 -1 0.4 1
-5 -3 1 0.9 1.2
4 3 -1 46.7 3.1
4 3 -1 51.29 3.1
4 3 -1 38.8 3.5
-4 -3 1 43.3 3.2
3 3 -1 6.9 1.2
3 3 -1 7 1
3 3 -1 6.4 1.2
-3 -3 1 8.6 1.2
2 3 -1 95.29 5.7
2 3 -1 92.59 5.7
2 3 -1 97.39 5.6
2 3 -1 107.29 5.8
-2 -3 1 101.59 5.7
-2 -3 1 89.79 5.7
-2 -3 1 100.49 5.8
1 3 -1 11.1 1
1 3 -1 10.9 1.1
1 3 -1 10.7 1.1
-1 -3 1 10.4 1.2
-1 -3 1 10.7 1.2
-1 -3 1 9.7 1.2
0 3 -1 0.2 0.3
0 3 -1 0.6 0.5
0 3 -1 1 0.6
0 -3 1 0.4 0.5
0 -3 1 0.9 0.4
0 -3 1 0.8 0.3
0 -3 1 0.4 0.5
-1 3 -1 5.4 0.6
-1 3 -1 4.9 0.9
-1 3 -1 3.5 0.6
1 -3 1 5.8 0.8
1 -3 1 4.8 0.9
1 -3 1 4.3 0.9
-2 3 -1 36.6 2.4
-2 3 -1 41.5 2.7
-2 3 -1 31.8 2.2
2 -3 1 31.7 2.5
2 -3 1 37.3 2.5
2 -3 1 32.3 2.4
-3 3 -1 5.9 1.4
-3 3 -1 7 1.3
-3 3 -1 5.7 0.8
3 -3 1 4.7 1
-4 3 -1 3.5 1
-4 3 -1 3.4 0.7
4 -3 1 3.2 1.2
4 -3 1 2.7 1
-5 3 -1 16.1 1.7
-5 3 -1 17.9 2
5 -3 1 16.8 2.4
-6 3 -1 -0.7 1
-6 3 -1 1.2 1.3
6 -3 1 1.5 1.9
-7 3 -1 15.5 2
-7 3 -1 23.4 2.9
7 -3 1 19.7 3.5
-8 3 -1 0 2
8 -3 1 -1.9 3.2
8 2 -1 -2.1 3.4
-8 -2 1 0.8 2.4
7 2 -1 24 3.9
-7 -2 1 27.4 3.4
6 2 -1 7 2.2
6 2 -1 8 1.3
-6 -2 1 3.7 1.6
-6 -2 1 5.8 1.4
5 2 -1 33.4 3.4
5 2 -1 30.9 2.5
5 2 -1 33.3 2.3
-5 -2 1 31.4 2.7
-5 -2 1 31.6 2.6
4 2 -1 39.5 2.3
4 2 -1 35.2 2.4
4 2 -1 33.4 3
-4 -2 1 29.1 2.4
-4 -2 1 34.7 2.6
3 2 -1 18.4 1.8
3 2 -1 18.2 1.4
3 2 -1 17.7 1.5
-3 -2 1 16.6 1.5
-3 -2 1 19.3 2.4
2 2 -1 0.3 0.6
2 2 -1 0.2 0.4
2 2 -1 1.1 0.6
2 2 -1 1.3 0.5
-2 -2 1 1.3 0.8
-2 -2 1 -0.4 0.4
1 2 -1 69.39 4.1
1 2 -1 70.99 4.1
1 2 -1 72.69 4.1
-1 -2 1 68.89 4.1
-1 -2 1 74.79 4.2
-1 -2 1 74.99 4.2
0 2 -1 587.04 28.4
0 2 -1 542.15 28.3
0 2 -1 499.95 28.2
0 -2 1 528.05 28.4
0 -2 1 545.85 28.4
0 -2 1 494.35 28.2
-1 2 -1 165.48 8.9
-1 2 -1 159.48 9
-1 2 -1 166.48 8.9
1 -2 1 169.98 8.9
1 -2 1 154.28 9
1 -2 1 167.98 9
-2 2 -1 390.86 20.9
-2 2 -1 378.36 20.9
-2 2 -1 387.46 20.8
2 -2 1 401.16 20.9
2 -2 1 378.36 21
2 -2 1 394.66 20.8
-3 2 -1 65.39 3.9
-3 2 -1 60.79 3.7
-3 2 -1 56.19 4
-3 2 -1 67.49 4.2
3 -2 1 67.99 3.8
3 -2 1 59.99 3.8
-4 2 -1 40.3 2.6
-4 2 -1 39.8 3.2
-4 2 -1 39 2.7
4 -2 1 40.4 2.8
4 -2 1 39 3.3
-5 2 -1 23.5 2.2
-5 2 -1 25 2.1
5 -2 1 26.2 3.1
-6 2 -1 2.4 1
-6 2 -1 4.2 1.2
6 -2 1 2.1 1.9
-7 2 -1 8.4 1.7
-7 2 -1 6 1.7
7 -2 1 14 3.1
-8 2 -1 4.2 2
8 -2 1 7.5 3.1
8 1 -1 3.8 3.6
-8 -1 1 0.8 2.2
7 1 -1 3.7 2.5
6 1 -1 35.4 4
-6 -1 1 36.1 2.9
-6 -1 1 29.2 2.9
5 1 -1 0 1.4
5 1 -1 0.4 0.6
-5 -1 1 -0.1 0.9
-5 -1 1 1.1 1
4 1 -1 91.19 4.7
4 1 -1 80.99 5.5
-4 -1 1 79.19 4.8
-4 -1 1 80.99 5
3 1 -1 2.4 1
3 1 -1 3.1 0.5
3 1 -1 2.9 0.8
3 1 -1 2.7 0.5
-3 -1 1 2 0.6
-3 -1 1 1.3 0.5
-3 -1 1 4.8 1.3
2 1 -1 4.8 0.6
2 1 -1 4.8 0.5
2 1 -1 5.2 0.7
2 1 -1 3.5 0.7
-2 -1 1 4.1 0.5
-2 -1 1 6 0.7
-2 -1 1 4.7 1
1 1 -1 633.24 32.9
1 1 -1 606.94 32.7
1 1 -1 625.44 32.8
-1 -1 1 580.14 32.8
-1 -1 1 663.93 32.9
-1 -1 1 601.64 32.8
0 1 -1 322.07 16.7
0 1 -1 282.97 16.6
0 1 -1 304.57 16.7
0 -1 1 320.17 16.7
0 -1 1 336.07 16.7
-1 1 -1 1044 56.39
-1 1 -1 988.2 56.39
-1 1 -1 1083.69 56.39
1 -1 1 1090.99 56.49
1 -1 1 1111.29 56.39
1 -1 1 1084.29 56.39
-2 1 -1 50.79 2.8
-2 1 -1 51.99 3.1
-2 1 -1 44.4 2.9
-2 1 -1 46.7 2.8
2 -1 1 51.49 2.8
2 -1 1 41.1 2.8
2 -1 1 48.3 3.1
-3 1 -1 82.09 4.7
-3 1 -1 70.89 4.9
-3 1 -1 82.89 4.5
-3 1 -1 80.69 4.5
3 -1 1 81.59 4.5
3 -1 1 61.79 5.1
3 -1 1 81.29 4.5
-4 1 -1 3 0.7
-4 1 -1 3.1 0.7
-4 1 -1 4.8 1.3
4 -1 1 6 1.4
4 -1 1 3.5 0.9
-5 1 -1 3.1 0.8
-5 1 -1 4.1 0.8
5 -1 1 2.4 1.4
-6 1 -1 0.6 1
-6 1 -1 -0.3 1.1
6 -1 1 2.5 2
-7 1 -1 10.2 1.8
-7 1 -1 8.7 1.7
7 -1 1 11.3 2.8
-8 1 -1 7.2 2.5
8 -1 1 0.5 3.2
8 0 -1 11.3 3.4
-8 0 1 13.7 2.6
7 0 -1 2.4 2.6
-7 0 1 1.6 1.6
6 0 -1 36.8 4.1
-6 0 1 32.5 2.9
-6 0 1 36.3 3
5 0 -1 31 2.1
5 0 -1 27 3.3
-5 0 1 29.2 2.5
-5 0 1 35.2 2.4
4 0 -1 65.29 4.7
4 0 -1 75.69 4
-4 0 1 74.99 4.1
-4 0 1 64.09 4.3
3 0 -1 12.6 1.6
3 0 -1 12.5 0.9
3 0 -1 13.1 1.5
-3 0 1 13.2 1
-3 0 1 16.3 1.9
2 0 -1 4.3 0.6
2 0 -1 3.5 0.7
2 0 -1 6.1 0.4
-2 0 1 4.9 0.5
-2 0 1 5.6 0.7
-2 0 1 4.5 0.8
1 0 -1 337.87 17.4
1 0 -1 331.27 17.3
-1 0 1 319.67 17.3
-1 0 1 307.67 17.3
-1 0 -1 223.88 11.7
-1 0 -1 202.58 11.5
-1 0 -1 224.08 11.5
-1 0 -1 219.08 11.6
1 0 1 213.58 11.7
1 0 1 227.18 11.6
1 0 1 209.58 11.5
-2 0 -1 3985.6 198.78
-2 0 -1 3837.62 198.68
-2 0 -1 3651.43 198.88
-2 0 -1 3585.54 198.88
2 0 1 3765.72 198.58
2 0 1 3742.73 198.88
2 0 1 3787.82 198.88
-3 0 -1 100.09 6.1
-3 0 -1 102.99 5.6
-3 0 -1 110.79 5.6
-3 0 -1 90.79 5.6
3 0 1 103.69 5.7
3 0 1 100.29 5.6
3 0 1 89.39 6
-4 0 -1 2388.36 133.39
4 0 1 2373.06 133.99
4 0 1 2654.93 133.49
4 0 1 2677.63 133.29
-5 0 -1 93.49 5.5
-5 0 -1 91.89 5.5
5 0 1 93.19 6.4
-6 0 -1 940.81 51.59
-6 0 -1 978 51.59
6 0 1 982.5 52.69
-7 0 -1 19.8 2.3
-7 0 -1 18.6 2.2
7 0 1 18.5 3.2
8 0 1 349.37 21
8 -1 -1 12.3 3.9
-8 1 1 9.3 2.4
7 -1 -1 23.7 3.6
-7 1 1 18.7 2.4
6 -1 -1 16.4 3
-6 1 1 22.8 2.4
5 -1 -1 64.39 5.2
5 -1 -1 72.19 4.1
-5 1 1 64.49 4.4
-5 1 1 76.69 4.2
4 -1 -1 56.59 4.3
4 -1 -1 61.59 3.6
-4 1 1 58.29 3.8
-4 1 1 66.99 3.6
3 -1 -1 61.39 4.3
3 -1 -1 70.29 4.2
3 -1 -1 72.69 3.8
-3 1 1 74.29 4.6
-3 1 1 68.79 3.8
-3 1 1 64.79 4.2
2 -1 -1 151.88 7.9
2 -1 -1 147.39 8.3
2 -1 -1 152.58 8.2
-2 1 1 141.79 8.1
-2 1 1 149.49 7.9
-2 1 1 149.19 8.3
-2 1 1 144.19 8.2
1 -1 -1 59.49 3.5
1 -1 -1 61.49 3.3
1 -1 -1 58.79 3.5
1 -1 -1 62.69 3.5
-1 1 1 66.09 3.5
-1 1 1 61.29 3.3
-1 1 1 58.99 3.5
-1 1 1 62.39 3.5
0 -1 -1 3.1 0.3
0 -1 -1 3.7 0.3
0 -1 -1 3.6 0.3
-1 -1 -1 0 0.3
-1 -1 -1 0.2 0.2
-1 -1 -1 0.5 0.2
1 1 1 0.8 0.2
1 1 1 0.6 0.3
1 1 1 0.2 0.2
-2 -1 -1 1029.5 50.89
-2 -1 -1 918.61 50.49
-2 -1 -1 910.01 50.59
2 1 1 955 50.59
2 1 1 964.9 50.89
2 1 1 956.6 50.49
-3 -1 -1 270.27 15.3
-3 -1 -1 255.77 14.8
-3 -1 -1 276.07 14.8
3 1 1 259.37 15.3
3 1 1 298.47 14.8
3 1 1 287.87 14.8
-4 -1 -1 1294.97 73.59
4 1 1 1437.26 73.59
4 1 1 1501.65 73.49
4 1 1 1317.47 74.19
-5 -1 -1 37.2 2.8
-5 -1 -1 39.3 2.7
5 1 1 37.7 3.7
5 1 1 40.7 3.4
-6 -1 -1 978.7 49.8
-6 -1 -1 837.02 49.7
6 1 1 981.7 50.89
-7 -1 -1 -1.8 1.5
-7 -1 -1 1.4 1.9
7 1 1 5.3 2.3
8 1 1 468.35 27.2
8 -2 -1 4.8 3.5
-8 2 1 1.3 2.2
7 -2 -1 5 2.3
-7 2 1 8.3 2.1
6 -2 -1 6.4 2
-6 2 1 10.7 1.5
-6 2 1 8.2 1.3
5 -2 -1 22.8 2.1
5 -2 -1 19.8 2.7
-5 2 1 24.7 2.2
4 -2 -1 81.39 5.3
4 -2 -1 81.39 4.7
-4 2 1 76.49 4.9
-4 2 1 81.39 4.5
3 -2 -1 45 2.8
3 -2 -1 43.4 3.1
-3 2 1 47.1 3
-3 2 1 48.5 2.7
-3 2 1 44.3 3.3
-3 2 1 50.99 3.5
2 -2 -1 447.16 22.3
2 -2 -1 423.86 22.3
2 -2 -1 423.86 22.1
-2 2 1 363.26 22.3
-2 2 1 408.96 22.1
-2 2 1 405.96 22.3
-2 2 1 431.36 22.4
1 -2 -1 109.29 6.1
1 -2 -1 104.19 6
1 -2 -1 112.69 6
-1 2 1 107.89 6
-1 2 1 110.29 6
0 -2 -1 479.35 25.4
0 -2 -1 487.55 25.2
0 -2 -1 451.55 25.3
0 2 1 504.55 25.4
0 2 1 462.95 25.3
0 2 1 470.75 25.2
0 2 1 480.15 25.4
0 2 1 474.45 25.2
-1 -2 -1 121.59 6.6
-1 -2 -1 118.39 6.5
-1 -2 -1 122.29 6.6
1 2 1 122.59 6.6
1 2 1 117.79 6.5
1 2 1 115.49 6.6
-2 -2 -1 10.2 1.3
-2 -2 -1 9.7 1.1
-2 -2 -1 11.5 0.9
2 2 1 10.5 1
2 2 1 12.2 0.9
2 2 1 10.6 1.2
-3 -2 -1 510.85 25.3
-3 -2 -1 471.65 25.8
-3 -2 -1 474.55 25.4
3 2 1 459.05 25.3
3 2 1 453.95 25.7
3 2 1 471.05 25.3
-4 -2 -1 -0.3 0.6
4 2 1 0.4 0.8
4 2 1 0.8 1.1
4 2 1 -0.4 0.7
-5 -2 -1 71.49 4.3
-5 -2 -1 65.39 4.4
5 2 1 64.99 5.2
-6 -2 -1 20.3 2.7
-6 -2 -1 19.8 2.3
6 2 1 28.3 3.6
-7 -2 -1 -0.7 1.5
-7 -2 -1 1.3 2
7 2 1 1.4 2.5
-8 -2 -1 56.19 4.9
8 2 1 51.79 6.1
8 -3 -1 1.9 3.2
-8 3 1 1.2 2.1
7 -3 -1 17.7 3.4
-7 3 1 13.4 2.1
6 -3 -1 5 2.1
-6 3 1 1.8 0.9
-6 3 1 2.2 1.4
5 -3 -1 10.6 2
-5 3 1 7.9 1
-5 3 1 9.2 1.5
4 -3 -1 1.8 1
4 -3 -1 1.6 1.2
4 -3 -1 2.4 0.9
-4 3 1 0.9 0.5
-4 3 1 1.1 0.8
3 -3 -1 5.1 0.9
3 -3 -1 2.2 0.8
3 -3 -1 4.2 1.6
-3 3 1 5.9 1.4
-3 3 1 4.1 0.6
-3 3 1 3.8 0.9
2 -3 -1 31.2 2.2
2 -3 -1 26.9 2
2 -3 -1 27.6 2
-2 3 1 33.1 2.3
-2 3 1 29.7 2.2
-2 3 1 27.1 1.9
1 -3 -1 49.1 2.9
1 -3 -1 46.2 3
1 -3 -1 43.6 2.7
-1 3 1 47.8 2.7
-1 3 1 45.3 2.8
0 -3 -1 56.59 3.3
0 -3 -1 51.99 3.3
0 3 1 54.49 3.3
0 3 1 59.89 3.4
0 3 1 55.19 3.4
0 3 1 55.29 3
0 3 1 56.19 3
-1 -3 -1 13.4 1.2
-1 -3 -1 15.1 1.3
-1 -3 -1 15.7 1.3
-1 -3 -1 14.9 1.1
1 3 1 12.7 1.1
1 3 1 14.1 1.3
1 3 1 12 1.2
1 3 1 17.7 1.2
-2 -3 -1 6.3 1
-2 -3 -1 7.9 0.9
-2 -3 -1 6.7 1
2 3 1 6.2 0.9
2 3 1 6.2 0.9
2 3 1 6.8 0.9
2 3 1 6.5 1
-3 -3 -1 0.5 1.2
-3 -3 -1 -0.4 0.8
-3 -3 -1 -0.4 0.6
3 3 1 0.9 0.8
3 3 1 0.8 0.8
3 3 1 0.4 0.7
-4 -3 -1 3 0.8
-4 -3 -1 2.4 1
4 3 1 3.5 1.4
4 3 1 3.4 1
-5 -3 -1 5.1 1.1
-5 -3 -1 4.5 1.4
5 3 1 6.3 1.8
-6 -3 -1 29 2.9
-6 -3 -1 29.9 3.3
6 3 1 36 3.7
-7 -3 -1 4.6 2.2
-7 -3 -1 7.5 1.8
7 3 1 1.3 1.9
7 3 1 2.9 2.9
-8 -3 -1 34.1 4.5
8 3 1 25.1 4.9
8 -4 -1 -1.6 3.3
-8 4 1 0.9 2.3
7 -4 -1 214.08 13
-7 4 1 203.98 12.2
6 -4 -1 3.2 1.9
-6 4 1 2.9 1.5
-6 4 1 2.5 1
5 -4 -1 558.14 30.3
-5 4 1 549.45 30
-5 4 1 547.35 29.5
4 -4 -1 20.5 2.4
4 -4 -1 24 2.3
-4 4 1 22.8 2.2
-4 4 1 23.7 1.8
3 -4 -1 969.1 50.39
3 -4 -1 991.1 50.59
3 -4 -1 910.31 50.89
-3 4 1 975.6 50.49
-3 4 1 914.41 50.49
-3 4 1 913.61 50.19
2 -4 -1 88.49 4.8
2 -4 -1 88.59 5
2 -4 -1 77.19 5.1
-2 4 1 87.39 4.9
-2 4 1 71.99 5.1
1 -4 -1 606.94 31.2
1 -4 -1 580.34 31.4
1 -4 -1 576.94 30.8
-1 4 1 602.64 31.2
-1 4 1 543.05 31.2
0 -4 -1 85.69 5
0 -4 -1 83.39 4.9
0 4 1 78.19 4.9
0 4 1 84.79 4.9
-1 -4 -1 94.89 5.3
-1 -4 -1 96.39 5.6
-1 -4 -1 93.89 5.6
1 4 1 91.19 5.3
1 4 1 96.39 5.6
1 4 1 102.59 5.5
1 4 1 90.59 5.6
-2 -4 -1 117.99 6.7
2 4 1 114.69 6.7
2 4 1 114.39 6.6
2 4 1 115.89 6.7
-3 -4 -1 11.3 1.8
-3 -4 -1 11.2 1.4
-3 -4 -1 9.5 1.2
3 4 1 10.9 1.7
3 4 1 12.6 1.5
3 4 1 9.2 1.4
3 4 1 9.5 1.2
-4 -4 -1 16 1.7
-4 -4 -1 15.2 1.9
4 4 1 12.9 1.7
4 4 1 12 1.9
-5 -4 -1 -0.1 1.4
-5 -4 -1 3 1.1
5 4 1 2.4 1.2
5 4 1 -0.4 1.6
-6 -4 -1 -2.4 1.7
-6 -4 -1 3.5 1.5
6 4 1 0.1 2.1
6 4 1 -2.8 1.4
-7 -4 -1 -0.1 2.3
-7 -4 -1 6.3 1.9
7 4 1 0.8 1.9
7 4 1 1.7 2.9
-8 -4 -1 4.5 2.5
8 4 1 -2.7 3.6
8 -5 -1 -2.9 3.4
-8 5 1 1.3 2.4
7 -5 -1 26.7 3.7
-7 5 1 22.7 2.8
-7 5 1 23.2 2.9
6 -5 -1 7.7 2.1
-6 5 1 5.6 1.7
-6 5 1 7.4 1.3
5 -5 -1 67.39 4.9
5 -5 -1 65.89 5
-5 5 1 65.89 4.2
-5 5 1 70.39 4.7
4 -5 -1 18.4 2.3
4 -5 -1 19.7 2.3
-4 5 1 16.9 1.7
-4 5 1 19.2 2.3
3 -5 -1 207.08 12.8
3 -5 -1 237.18 12.6
-3 5 1 235.08 12.7
-3 5 1 223.68 12.5
2 -5 -1 4 0.8
2 -5 -1 3.6 1.1
-2 5 1 2.8 0.8
-2 5 1 4 0.9
1 -5 -1 406.36 21.9
-1 5 1 395.66 21.7
0 -5 -1 -0.1 0.6
0 -5 -1 0.4 0.9
0 5 1 1.7 0.7
0 5 1 0.7 0.9
-1 -5 -1 95.69 5.2
-1 -5 -1 81.49 5.6
-1 -5 -1 89.39 6
1 5 1 91.99 5.7
1 5 1 95.59 6.1
1 5 1 97.89 5.2
1 5 1 102.09 5.7
-2 -5 -1 63.29 3.9
-2 -5 -1 57.19 3.9
2 5 1 57.29 3.9
2 5 1 60.79 3.8
-3 -5 -1 3.6 1
-3 -5 -1 0.7 1.4
3 5 1 4.5 1.1
3 5 1 3.6 1
-4 -5 -1 76.99 5.1
-4 -5 -1 73.99 5
4 5 1 80.59 5.1
4 5 1 81.59 5.4
-5 -5 -1 23.8 2.7
-5 -5 -1 18.5 2.5
5 5 1 17.7 2.3
5 5 1 15.5 2.7
-6 -5 -1 38.4 3.8
-6 -5 -1 27.9 3.4
6 5 1 36.7 4.3
6 5 1 30 3.4
-7 -5 -1 6.3 2.8
-7 -5 -1 3.8 2.3
7 5 1 8.4 3.5
-8 -5 -1 5.3 3.1
8 5 1 11 4.2
7 -6 -1 0.8 2.8
-7 6 1 0.1 2.2
-7 6 1 -0.7 1.6
6 -6 -1 38.1 3.9
6 -6 -1 31.1 4.1
-6 6 1 37.9 3.8
-6 6 1 37.5 3.1
5 -6 -1 -1 1.5
5 -6 -1 0.4 1.6
-5 6 1 0.6 1.7
-5 6 1 0.1 1.1
4 -6 -1 5.4 1.4
4 -6 -1 4.4 1.6
-4 6 1 5.8 1.1
-4 6 1 6.8 1.6
3 -6 -1 2.3 1
3 -6 -1 1.8 1.2
-3 6 1 1.4 1.2
-3 6 1 0.8 0.9
2 -6 -1 60.49 3.4
2 -6 -1 62.99 4.3
-2 6 1 54.19 3.8
-2 6 1 55.19 3.5
1 -6 -1 2 1.1
-1 6 1 3.1 0.8
0 -6 -1 106.69 6.6
0 6 1 108.69 6.5
-1 -6 -1 24.7 2.3
-1 -6 -1 24.6 1.7
1 6 1 28.2 1.7
1 6 1 20.7 2.2
-2 -6 -1 1.2 0.9
-2 -6 -1 -0.1 1
2 6 1 -0.7 0.8
2 6 1 -0.5 0.9
-3 -6 -1 9.2 1.8
-3 -6 -1 7.1 1.5
3 6 1 7.9 1.5
3 6 1 9.3 1.5
-4 -6 -1 13 1.9
4 6 1 14.9 2
4 6 1 13.4 1.9
-5 -6 -1 -0.3 1.5
5 6 1 1 1.4
5 6 1 -1.7 1.8
-6 -6 -1 1.5 2
6 6 1 3.7 1.9
-7 -6 -1 -0.4 2.4
7 6 1 8.4 3.3
7 -7 -1 2.1 3.1
-7 7 1 0.4 2
-7 7 1 0.7 2.5
6 -7 -1 6.5 2.4
6 -7 -1 1.2 2.4
-6 7 1 0.4 2.1
5 -7 -1 -0.4 2
5 -7 -1 2.2 1.7
-5 7 1 3.6 1.4
-5 7 1 2.4 1.8
4 -7 -1 5.4 1.9
-4 7 1 3.6 1.3
3 -7 -1 3.8 1.6
3 -7 -1 5.9 1.2
-3 7 1 6.8 1.4
-3 7 1 4.2 1
2 -7 -1 30.1 3.1
-2 7 1 27.9 2.5
1 -7 -1 67.99 4.6
-1 7 1 57.59 4.2
0 -7 -1 1.1 1.1
0 7 1 0 1.1
-1 -7 -1 48.5 3.6
1 7 1 42.1 3.4
-2 -7 -1 80.59 5.3
-2 -7 -1 73.79 4.8
2 7 1 78.79 5.3
2 7 1 85.09 4.8
-3 -7 -1 5.5 2
-3 -7 -1 3.2 1.5
3 7 1 4.4 1.4
3 7 1 4.6 1.3
-4 -7 -1 48.8 4
4 7 1 45.7 3.9
4 7 1 46.6 4
-5 -7 -1 0.6 1.8
5 7 1 3.7 2
5 7 1 4.1 1.8
-6 -7 -1 0.4 2.3
6 7 1 -0.8 2.5
6 7 1 -2.2 2.1
-7 -7 -1 4 2.9
7 7 1 1.5 3.6
6 -8 -1 2.9 2.8
-6 8 1 5.5 2.6
-6 8 1 2.9 1.9
5 -8 -1 1.9 2.5
-5 8 1 2.1 2.2
-5 8 1 1.1 1.6
4 -8 -1 3.1 1.6
4 -8 -1 4.3 2.2
-4 8 1 1.9 1.4
3 -8 -1 18.5 2.6
3 -8 -1 23.2 2
-3 8 1 23.4 2.6
2 -8 -1 14.3 2.2
-2 8 1 15 2
1 -8 -1 2.1 1.6
-1 8 1 1.7 1.3
0 -8 -1 51.79 4.3
0 8 1 59.29 4.3
-1 -8 -1 94.09 6.3
1 8 1 90.59 6
-2 -8 -1 38.3 3.6
-2 -8 -1 34.7 2.8
2 8 1 30.1 3.2
2 8 1 38.5 2.6
-3 -8 -1 231.88 13.5
3 8 1 225.78 13.4
3 8 1 231.88 12.9
-4 -8 -1 0.8 1.8
4 8 1 2.8 2
4 8 1 0.3 1.7
-5 -8 -1 96.59 7.3
5 8 1 104.79 7.2
5 8 1 107.79 7.3
-6 -8 -1 40.1 4.8
6 8 1 26 4.1
6 8 1 36.6 4.4
6 -9 -1 -3.6 3.3
-6 9 1 -2.5 2.9
-6 9 1 -2.6 2.2
5 -9 -1 2.2 2.7
-5 9 1 1.6 2.6
-5 9 1 -0.5 1.9
4 -9 -1 0.2 2.5
-4 9 1 -3.1 1.5
3 -9 -1 5.1 2.3
-3 9 1 2.6 1.6
1 -9 -1 1.4 2.1
-1 9 1 3.2 1.5
0 -9 -1 8 2.1
0 9 1 7.5 1.9
-1 -9 -1 41 4.1
1 9 1 38.7 3.8
-2 -9 -1 10.8 2.3
2 9 1 9.8 2.2
-3 -9 -1 16.5 2.9
3 9 1 18.9 2.7
-4 -9 -1 8.8 2.7
4 9 1 12.6 2.4
4 9 1 11.4 2.7
-5 -9 -1 3.6 2.5
5 9 1 3.7 2.5
-6 -9 -1 8 3.1
6 9 1 14.4 3.3
5 -10 -1 15.8 3.9
-5 10 1 7 2.5
-5 10 1 12 3.5
4 -10 -1 -4.7 2.9
-4 10 1 1.2 2.2
3 -10 -1 2.2 2.8
-3 10 1 6.6 2.1
2 -10 -1 -0.9 2.3
-2 10 1 -0.7 1.9
1 -10 -1 10.4 2.6
-1 10 1 8 2.1
0 -10 -1 14.4 2.8
0 10 1 19.7 2.7
-1 -10 -1 13.3 2.7
1 10 1 10 2.2
-2 -10 -1 28.1 3.8
2 10 1 26.5 3.5
-3 -10 -1 5.5 2.6
3 10 1 -0.7 2.1
-4 -10 -1 20.3 3.6
4 10 1 16.3 3
-5 -10 -1 7.2 3.4
5 10 1 10.1 3
4 -11 -1 -0.8 3.6
-4 11 1 3.1 2.5
3 -11 -1 5.9 3.3
-3 11 1 5.4 2.3
2 -11 -1 25.2 4
-2 11 1 18.9 2.8
1 -11 -1 7.6 3.1
-1 11 1 8.1 2.4
0 -11 -1 67.69 6
0 11 1 65.59 5.3
-1 -11 -1 16.9 3.7
1 11 1 18.7 3.2
-2 -11 -1 81.09 6.8
2 11 1 78.69 6.5
-3 -11 -1 15 3.9
3 11 1 9.7 3
-4 -11 -1 61.39 6.5
4 11 1 36.8 4.6
2 -12 -1 -5.1 3.5
-2 12 1 -2.3 2.5
1 -12 -1 54.09 6.8
-1 12 1 64.59 5.8
0 -12 -1 6.9 4.1
0 12 1 14 3.3
-1 -12 -1 16.5 4
1 12 1 10 2.8
-2 -12 -1 68.09 7.3
2 12 1 49.1 6
1 11 -2 -1.1 2.6
-1 -11 2 2.3 3.7
0 11 -2 -1.4 2.8
0 -11 2 -11.2 3.8
-1 11 -2 1.8 2.5
1 -11 2 -8.7 3.7
3 10 -2 14 3
-3 -10 2 13 3.8
2 10 -2 3.8 2.3
-2 -10 2 4.8 3.1
1 10 -2 10.3 2.4
-1 -10 2 6.1 3.2
0 10 -2 7.3 2.5
0 -10 2 13.1 3.6
-1 10 -2 -0.4 2
1 -10 2 7 3.2
-2 10 -2 7.8 2.2
2 -10 2 15.9 4
-3 10 -2 1.1 2.2
3 -10 2 0 3.4
4 9 -2 4.4 2.4
-4 -9 2 3 3.1
3 9 -2 -0.3 2.1
-3 -9 2 -0.3 2.6
2 9 -2 2.6 2
-2 -9 2 -1.9 2.5
1 9 -2 1.4 1.9
-1 -9 2 1.1 2.6
0 9 -2 5.5 1.9
0 -9 2 3.9 2.4
-1 9 -2 16.7 2.6
1 -9 2 23.7 3.3
-2 9 -2 38.8 3.6
2 -9 2 30.1 4.1
-3 9 -2 25.7 3.2
3 -9 2 27.5 4
-4 9 -2 29.6 3.8
4 -9 2 27.9 4.8
-5 9 -2 0.1 2.3
5 -9 2 -1.6 3.6
-5 -8 2 6.2 3.1
4 8 -2 0.6 1.8
-4 -8 2 0.8 2.5
3 8 -2 -1.1 1.6
-3 -8 2 1 2.2
2 8 -2 -1.2 1.5
-2 -8 2 1.9 2.4
1 8 -2 7.7 1.6
-1 -8 2 8.4 1.9
0 8 -2 4.7 1.6
0 -8 2 2.4 2.8
-1 8 -2 11.2 2.1
1 -8 2 18.7 2.9
-2 8 -2 11.8 1.8
2 -8 2 9.7 3.6
-3 8 -2 3.1 1.7
3 -8 2 4.2 2.4
-4 8 -2 -0.4 1.5
4 -8 2 1.9 2.6
-5 8 -2 -3.2 1.9
5 -8 2 1.3 3.1
6 7 -2 9.6 3.2
-6 -7 2 18.4 3.6
5 7 -2 13.4 3
5 7 -2 11.1 2.6
-5 -7 2 18.3 3.1
4 7 -2 76.09 5.5
4 7 -2 73.79 5.6
-4 -7 2 84.49 6.2
3 7 -2 84.89 5.7
3 7 -2 82.99 5.7
-3 -7 2 93.19 6.3
2 7 -2 79.49 5.2
2 7 -2 76.89 4.8
-2 -7 2 72.19 5.6
1 7 -2 387.36 22.2
1 7 -2 420.16 21.7
-1 -7 2 404.06 21.6
-1 -7 2 402.56 22.6
0 7 -2 24.2 2.5
0 -7 2 27.8 1.9
0 -7 2 28.6 3.1
0 -7 2 25.2 2
-1 7 -2 809.72 40.2
1 -7 2 678.13 40.4
-2 7 -2 18.8 2.3
2 -7 2 18 1.8
2 -7 2 14.9 2.5
-3 7 -2 755.42 43.3
3 -7 2 810.82 42.7
3 -7 2 781.52 41.8
-4 7 -2 67.69 4.8
4 -7 2 66.39 5
4 -7 2 59.19 5.5
-5 7 -2 364.46 20.3
-6 7 -2 87.69 7.3
-6 7 -2 90.79 6.5
6 -7 2 98.69 7.6
6 6 -2 -4.4 2.5
-6 -6 2 -2.9 2.4
5 6 -2 7.2 2.3
5 6 -2 6.4 1.9
-5 -6 2 8.4 2.6
4 6 -2 -1.6 1.3
4 6 -2 -3.9 1.5
3 6 -2 112.49 7.1
3 6 -2 121.19 7.2
-3 -6 2 118.59 7.5
2 6 -2 38.1 2.7
2 6 -2 28.5 2.9
-2 -6 2 38.1 3.5
-2 -6 2 39.2 3.3
1 6 -2 259.47 14.2
1 6 -2 264.57 14.6
-1 -6 2 242.78 14.9
-1 -6 2 278.97 14.4
0 6 -2 116.69 6.7
0 -6 2 112.79 6.2
0 -6 2 113.69 6.3
0 -6 2 95.79 6.9
-1 6 -2 387.66 23
1 -6 2 443.56 22.7
1 -6 2 433.76 23.4
1 -6 2 426.96 22.6
-2 6 -2 88.59 5.6
2 -6 2 83.99 6
2 -6 2 90.19 5.1
2 -6 2 88.39 5.3
-3 6 -2 624.04 33.8
-3 6 -2 584.64 34
3 -6 2 654.03 34.5
3 -6 2 663.63 33.9
-4 6 -2 17.9 2.1
4 -6 2 15 2.4
4 -6 2 16.1 2.2
-5 6 -2 600.34 31.3
-5 6 -2 583.24 31.6
5 -6 2 570.04 31.7
5 -6 2 550.64 31.5
-6 6 -2 2.4 2.3
-6 6 -2 3.2 1.7
6 -6 2 5 2.5
6 -6 2 4.6 2.6
-7 6 -2 303.47 17.3
-7 6 -2 305.17 17
7 -6 2 286.77 18
7 5 -2 -1.3 3.3
-7 -5 2 -1 2.7
6 5 -2 -1.5 2.5
-6 -5 2 -0.5 2.2
5 5 -2 -0.4 1.4
5 5 -2 -1.7 1.9
-5 -5 2 0.7 1.9
4 5 -2 18 2.3
4 5 -2 20.1 2.5
-4 -5 2 16.2 2.2
3 5 -2 2.4 1.2
3 5 -2 2.6 1.1
-3 -5 2 2.5 1.3
2 5 -2 102.39 6.3
2 5 -2 103.59 6.2
-2 -5 2 105.79 6.6
-2 -5 2 114.39 6.7
1 5 -2 43.6 3.2
1 5 -2 47.6 2.9
-1 -5 2 41.4 3.4
-1 -5 2 49.9 3.3
0 5 -2 242.68 14
0 -5 2 251.17 13.7
0 -5 2 267.37 13.8
-1 5 -2 70.39 4.4
1 -5 2 71.29 4.1
1 -5 2 64.19 4.7
1 -5 2 73.89 4.2
-2 5 -2 178.78 9.5
-2 5 -2 158.78 9.7
2 -5 2 177.18 9.7
2 -5 2 176.48 10.1
2 -5 2 171.38 9.6
-3 5 -2 21.9 2
-3 5 -2 23.2 2.3
3 -5 2 24 2.4
3 -5 2 20.5 2.7
-4 5 -2 54.99 3.8
4 -5 2 54.39 4.2
4 -5 2 60.19 4.3
-5 5 -2 9.4 1.7
-5 5 -2 7 1.8
5 -5 2 9.1 1.8
5 -5 2 8.9 2.1
-6 5 -2 12.3 2
-6 5 -2 10.7 2.1
6 -5 2 10 2.8
6 -5 2 6.1 2.2
-7 5 -2 16.5 2.8
-7 5 -2 25.8 3.1
7 -5 2 26.4 4
7 4 -2 3.7 3.1
-7 -4 2 7 2.7
6 4 -2 4.6 2.5
-6 -4 2 5.4 2.2
5 4 -2 6.2 1.3
5 4 -2 8.5 2.2
-5 -4 2 8.5 1.8
4 4 -2 0.8 1.3
4 4 -2 2.9 1.6
4 4 -2 0.7 1
-4 -4 2 3.3 1.3
3 4 -2 34.9 3.2
3 4 -2 32.6 2.8
3 4 -2 33 2.6
-3 -4 2 39.5 3
-3 -4 2 31.9 2.8
2 4 -2 35.7 2.6
2 4 -2 31.9 2.6
-2 -4 2 39.1 3.1
-2 -4 2 36 2.8
-2 -4 2 38.1 2.9
1 4 -2 96.69 6
1 4 -2 101.99 5.9
-1 -4 2 113.09 6.3
-1 -4 2 107.99 6.1
-1 -4 2 99.59 6.2
0 4 -2 45.2 2.9
0 4 -2 46.2 2.8
0 -4 2 48.6 2.8
0 -4 2 46.3 2.8
0 -4 2 39.3 3.1
-1 4 -2 95.59 5.6
1 -4 2 98.39 5.3
1 -4 2 101.79 5.4
1 -4 2 80.89 5.7
-2 4 -2 1.6 0.7
-2 4 -2 2.4 0.8
2 -4 2 0.7 0.9
2 -4 2 1.1 0.8
-3 4 -2 18.1 2.2
-3 4 -2 19.7 1.7
3 -4 2 20 2.2
3 -4 2 19.6 2.3
-4 4 -2 1.7 0.8
4 -4 2 2.5 1.2
4 -4 2 0.8 1.4
-5 4 -2 1.7 1
-5 4 -2 1.7 1.3
5 -4 2 -0.3 1.3
5 -4 2 -1.4 1.6
-6 4 -2 -0.5 1.3
-6 4 -2 0.1 1.4
6 -4 2 -0.6 2.2
-7 4 -2 2 1.7
-7 4 -2 4.8 1.9
7 -4 2 0.4 2.9
-8 4 -2 -2.8 2.3
8 -4 2 -0.9 3.7
8 3 -2 62.09 7.7
-8 -3 2 69.79 6.2
7 3 -2 6.8 3.3
-7 -3 2 4.8 2.3
6 3 -2 117.29 7.9
-6 -3 2 103.39 8.3
5 3 -2 66.59 5.3
5 3 -2 73.09 4.4
-5 -3 2 74.79 5
4 3 -2 118.39 7.1
4 3 -2 124.29 7.7
4 3 -2 137.79 7.1
-4 -3 2 119.99 7.4
3 3 -2 209.38 11.9
3 3 -2 204.88 12.1
3 3 -2 230.28 11.8
-3 -3 2 216.78 12.1
2 3 -2 49.2 3
2 3 -2 48.5 3.3
-2 -3 2 46.8 3.1
-2 -3 2 39.9 3.1
-2 -3 2 46.5 3.4
1 3 -2 263.17 14.4
1 3 -2 278.67 14.4
1 3 -2 247.98 14.4
-1 -3 2 260.37 14.4
-1 -3 2 272.57 14.4
0 3 -2 30.5 2.1
0 3 -2 32.2 2.2
0 3 -2 28.7 2
0 -3 2 32 2.3
0 -3 2 29.8 2
0 -3 2 32.2 2
-1 3 -2 47.8 3.4
-1 3 -2 59.59 3.2
-1 3 -2 45.7 3.2
1 -3 2 54.69 3.5
1 -3 2 57.39 3.2
1 -3 2 56.89 3.5
1 -3 2 56.59 3.3
-2 3 -2 120.39 6.5
-2 3 -2 113.39 6.3
-2 3 -2 100.19 6.2
2 -3 2 110.09 6.4
2 -3 2 101.19 6.6
-3 3 -2 10.3 1.6
-3 3 -2 8 1.1
-3 3 -2 10.4 1.5
3 -3 2 9.6 1.3
3 -3 2 8 1.4
-4 3 -2 25.3 2
-4 3 -2 23 2.2
4 -3 2 25.1 2.3
4 -3 2 25.3 2.7
-5 3 -2 16.4 2
-5 3 -2 14.8 1.7
5 -3 2 15.6 2.1
5 -3 2 15.2 2.4
-6 3 -2 -1.7 1.2
-6 3 -2 0.1 1.2
6 -3 2 0.5 2
-7 3 -2 12.4 2
-7 3 -2 9.3 1.8
7 -3 2 7.6 3.2
-8 3 -2 2.5 2.2
8 -3 2 3.8 3.9
8 2 -2 42.4 5.6
-8 -2 2 42.6 4.8
7 2 -2 0 2.7
-7 -2 2 1.1 1.9
-6 -2 2 61.59 4.5
5 2 -2 45.6 4.4
5 2 -2 55.79 3.2
5 2 -2 55.79 3.4
-5 -2 2 54.49 3.9
4 2 -2 89.89 4.9
4 2 -2 87.39 4.8
4 2 -2 77.99 5.5
-4 -2 2 80.39 5.2
3 2 -2 241.58 12
3 2 -2 234.98 12
3 2 -2 205.08 12.4
-3 -2 2 204.28 12.3
2 2 -2 121.49 7.3
2 2 -2 131.69 7.2
2 2 -2 138.59 7.5
-2 -2 2 134.29 7.3
-2 -2 2 122.79 7.4
-2 -2 2 136.09 7.6
1 2 -2 179.88 9.5
1 2 -2 164.88 9.6
1 2 -2 183.08 9.6
-1 -2 2 176.18 9.6
-1 -2 2 179.38 9.7
-1 -2 2 166.78 9.6
0 2 -2 60.09 3.6
0 2 -2 65.29 3.5
0 2 -2 61.09 3.5
0 -2 2 61.79 3.6
0 -2 2 57.99 3.6
0 -2 2 60.89 3.5
0 -2 2 60.49 3.5
-1 2 -2 14.7 1.2
-1 2 -2 16 1.2
-1 2 -2 14.7 1.3
1 -2 2 18 1.3
1 -2 2 18.5 1.4
1 -2 2 16.2 1.3
1 -2 2 16.8 1.4
-2 2 -2 0.4 0.4
-2 2 -2 0.9 0.7
-2 2 -2 0.1 0.6
2 -2 2 0.3 0.6
2 -2 2 1.2 0.7
2 -2 2 0.3 0.6
-3 2 -2 45.4 3
-3 2 -2 41.1 3.1
-3 2 -2 36.7 2.7
3 -2 2 41.4 3.1
3 -2 2 46.2 2.9
-4 2 -2 8.5 1.1
-4 2 -2 10.6 1.6
-4 2 -2 9 1.1
4 -2 2 10.3 1.3
4 -2 2 7.6 1.5
-5 2 -2 62.69 4.1
-5 2 -2 64.39 4.1
5 -2 2 66.89 5.1
-6 2 -2 7 1.5
-6 2 -2 8.9 1.4
6 -2 2 9 2.5
-7 2 -2 27.4 3.1
-7 2 -2 31.9 3
7 -2 2 31.9 4.3
-8 2 -2 6.2 2.3
8 -2 2 6.7 3.7
8 1 -2 21.2 4.4
-8 -1 2 22.7 3.4
7 1 -2 2.4 2.6
-7 -1 2 -0.3 1.7
6 1 -2 7.3 2.2
-6 -1 2 8.7 1.7
5 1 -2 14.1 1.4
5 1 -2 17.3 2.3
5 1 -2 13.9 1.2
-5 -1 2 13.3 1.7
4 1 -2 0.4 1.1
4 1 -2 1.2 0.4
4 1 -2 0.5 0.5
-4 -1 2 0.6 0.7
3 1 -2 -0.1 0.4
3 1 -2 0.3 0.4
3 1 -2 0 0.7
-3 -1 2 -0.2 0.5
2 1 -2 1.3 0.6
2 1 -2 1.4 0.5
2 1 -2 0.8 0.5
2 1 -2 1.2 0.3
-2 -1 2 0.9 0.5
-2 -1 2 1.4 0.9
-2 -1 2 0.7 0.4
1 1 -2 301.47 16.8
1 1 -2 305.57 16.8
1 1 -2 315.97 16.6
-1 -1 2 319.17 16.9
-1 -1 2 310.37 16.8
-1 -1 2 323.97 16.7
0 1 -2 109.79 6.7
0 1 -2 133.39 6.7
0 1 -2 126.09 6.7
0 -1 2 123.29 6.7
0 -1 2 124.09 6.7
0 -1 2 117.09 6.7
-1 1 -2 320.57 16.9
-1 1 -2 310.77 16.8
-1 1 -2 321.77 16.8
1 -1 2 316.77 16.9
1 -1 2 306.47 16.8
1 -1 2 308.27 16.8
-2 1 -2 19.1 1.4
-2 1 -2 17.7 1.5
-2 1 -2 21.1 1.7
2 -1 2 20.5 1.4
2 -1 2 19.5 1.5
2 -1 2 20.3 1.7
-3 1 -2 9.8 1.1
-3 1 -2 8.6 1.4
-3 1 -2 7.4 1.1
-3 1 -2 8.5 1
3 -1 2 10.5 1.5
3 -1 2 10.5 1.1
3 -1 2 11.5 1.2
-4 1 -2 13.8 1.7
-4 1 -2 12.2 1.4
-4 1 -2 16 1.5
4 -1 2 16.9 2.2
-5 1 -2 59.09 3.5
-5 1 -2 49.7 3.5
5 -1 2 55.79 4.5
-6 1 -2 26.7 2.4
-6 1 -2 20.8 2.2
6 -1 2 25.6 3.3
-7 1 -2 12.1 1.7
-7 1 -2 8.5 1.8
7 -1 2 12.3 3.1
-8 1 -2 7.8 2.3
8 -1 2 11.2 3.5
8 0 -2 -1.4 3
-8 0 2 -0.5 2.3
7 0 -2 0.5 2.4
-7 0 2 2.8 1.8
6 0 -2 13.3 2.5
6 0 -2 15.9 2.1
-6 0 2 22.9 2.5
-6 0 2 24.5 1.9
5 0 -2 7.2 1.7
5 0 -2 8.8 0.9
5 0 -2 10 1
-5 0 2 9.5 1.5
-5 0 2 8.3 1
4 0 -2 33.1 2
4 0 -2 34.7 3
4 0 -2 35.5 2
-4 0 2 35.7 2.6
-4 0 2 32.5 2.1
3 0 -2 0.5 0.7
3 0 -2 0 0.7
-3 0 2 0 0.5
2 0 -2 74.49 4.6
-2 0 2 79.49 4.5
-2 0 2 79.09 4.8
1 0 -2 79.59 4.5
1 0 -2 77.09 4.2
1 0 -2 78.19 4.4
-1 0 2 77.29 4.2
-1 0 2 75.79 4.3
-1 0 2 78.79 4.5
0 0 -2 1225.18 63.99
0 0 -2 1279.17 63.99
0 0 -2 1099.19 64.09
0 0 2 1250.07 63.99
0 0 2 1176.98 64.09
0 0 2 1243.38 63.99
-1 0 -2 8.4 0.8
-1 0 -2 8.5 0.6
-1 0 -2 8.5 0.7
1 0 2 8.3 0.8
1 0 2 8 0.7
1 0 2 7.8 0.6
-2 0 -2 182.18 9.8
-2 0 -2 181.58 9.9
2 0 2 187.28 9.9
2 0 2 178.08 10.2
2 0 2 185.68 9.8
-3 0 -2 36.7 2.2
-3 0 -2 30.2 2.6
-3 0 -2 31.8 2.2
-3 0 -2 30.2 2
3 0 2 31.3 2.1
3 0 2 27.1 2.5
-4 0 -2 36.1 2.3
-4 0 -2 37.3 2.8
-4 0 -2 33.4 2.4
4 0 2 34.1 3
-5 0 -2 2.8 1.7
-5 0 -2 0.4 0.7
-5 0 -2 0.1 0.8
5 0 2 -1.5 1.3
-6 0 -2 75.19 4.9
-6 0 -2 74.59 4.8
6 0 2 80.79 6.2
-7 0 -2 20.9 2.4
-7 0 -2 19.5 2.5
7 0 2 20 3.7
-8 0 -2 55.49 5.4
-8 0 -2 53.39 5.3
8 0 2 48.8 6.3
8 -1 -2 3.1 3.4
-8 1 2 4.7 2.3
7 -1 -2 12 2.8
-7 1 2 11.4 2.3
6 -1 -2 10.6 2.4
-6 1 2 9.4 1.3
-6 1 2 10.5 1.8
5 -1 -2 18.5 1.5
5 -1 -2 12.8 2.3
-5 1 2 16.1 2
-5 1 2 17.9 1.6
4 -1 -2 48.2 2.7
4 -1 -2 40.5 3.4
-4 1 2 45 3.2
-4 1 2 49.2 2.7
3 -1 -2 10.7 1.3
3 -1 -2 11.1 1.4
3 -1 -2 12.6 0.9
-3 1 2 11.9 1.8
-3 1 2 7.3 1.2
-3 1 2 10.4 1.3
-3 1 2 12.3 0.8
2 -1 -2 85.89 4.9
2 -1 -2 84.09 5
-2 1 2 83.89 4.8
-2 1 2 83.09 5
1 -1 -2 0.2 0.2
1 -1 -2 0.5 0.4
1 -1 -2 -0.5 0.3
-1 1 2 0.2 0.2
-1 1 2 0.5 0.4
-1 1 2 -0.1 0.3
-1 1 2 0.3 0.2
0 -1 -2 334.07 17.9
0 -1 -2 334.27 18
0 -1 -2 337.47 18
0 1 2 333.07 18
0 1 2 355.16 17.9
0 1 2 319.47 17.9
0 1 2 344.17 18
0 1 2 342.87 18
-1 -1 -2 17 1.1
-1 -1 -2 15.1 1.2
1 1 2 16.3 1.2
1 1 2 16 1.1
-2 -1 -2 1404.16 74.39
-2 -1 -2 1346.47 74.19
-2 -1 -2 1458.45 74.69
2 1 2 1427.16 74.39
2 1 2 1400.46 74.69
-3 -1 -2 50.49 3
-3 -1 -2 50.79 3.2
-3 -1 -2 51.19 3
3 1 2 52.99 3.1
3 1 2 54.29 3
3 1 2 46.9 3.5
-4 -1 -2 512.75 26.3
-4 -1 -2 500.85 26.2
-4 -1 -2 469.75 26.3
4 1 2 485.95 26.2
4 1 2 463.35 26.9
4 1 2 505.75 26.3
-5 -1 -2 47.1 3.2
-5 -1 -2 49.7 3.4
-5 -1 -2 59.89 3.9
5 1 2 49.2 3.7
5 1 2 47.2 4.3
-6 -1 -2 2.6 1.1
-6 -1 -2 0.2 1.3
6 1 2 0 2.2
-7 -1 -2 14 2.3
-7 -1 -2 11 1.8
7 1 2 13.9 3
-8 -1 -2 97.89 7
8 1 2 115.39 8.8
8 -2 -2 1.6 3.6
-8 2 2 0.9 2.2
7 -2 -2 3 2.4
-7 2 2 4 1.7
6 -2 -2 28.7 3.7
-6 2 2 24 2.8
-6 2 2 30.7 2.3
5 -2 -2 3.1 1
5 -2 -2 -0.5 1.4
-5 2 2 1.7 1.1
-5 2 2 1.2 0.7
4 -2 -2 40.3 2.3
4 -2 -2 30 2.8
-4 2 2 30.7 2.5
-4 2 2 37.1 2.1
3 -2 -2 34.3 2.8
3 -2 -2 40.5 2.4
-3 2 2 41.6 2.3
-3 2 2 38.7 2.7
-3 2 2 42.3 3.1
2 -2 -2 16.8 1.2
2 -2 -2 17.4 1.5
2 -2 -2 14.1 1.4
2 -2 -2 15.8 1.4
-2 2 2 14.2 1.3
-2 2 2 15.2 1.6
-2 2 2 15.2 1
-2 2 2 16.1 1.5
1 -2 -2 381.86 20.2
1 -2 -2 382.56 20.3
1 -2 -2 353.16 20.2
-1 2 2 402.16 20.2
-1 2 2 415.36 20.3
-1 2 2 365.86 20.3
-1 2 2 358.06 20.3
-1 2 2 370.96 20.2
0 -2 -2 -0.2 0.2
0 -2 -2 0.5 0.3
0 -2 -2 -0.4 0.3
0 2 2 -0.2 0.3
0 2 2 0.3 0.3
0 2 2 0 0.3
0 2 2 0.1 0.2
-1 -2 -2 314.17 16.3
-1 -2 -2 323.57 16.2
-1 -2 -2 296.27 16.3
1 2 2 302.17 16.2
1 2 2 287.57 16.3
1 2 2 293.87 16.1
-2 -2 -2 228.38 12.9
-2 -2 -2 239.98 13.1
2 2 2 244.28 13
2 2 2 244.98 12.9
2 2 2 249.88 13.3
-3 -2 -2 22.2 2.4
-3 -2 -2 20.9 1.5
-3 -2 -2 16.7 1.7
3 2 2 24.1 2.1
3 2 2 23.4 1.5
3 2 2 23.3 1.7
-4 -2 -2 70.29 4
-4 -2 -2 67.09 4.3
4 2 2 65.69 4.1
4 2 2 63.29 4.8
4 2 2 70.79 4.1
-5 -2 -2 3.1 0.9
-5 -2 -2 2.2 1.1
5 2 2 2.6 1.4
-6 -2 -2 0.5 1.5
-6 -2 -2 1.3 1
6 2 2 2.7 2
-7 -2 -2 1.3 2
-7 -2 -2 5.3 1.6
7 2 2 3.1 2.4
-8 -2 -2 1.7 2
8 2 2 8.3 3.2
8 -3 -2 -1.4 3.3
-8 3 2 7.4 2.4
7 -3 -2 2.9 2.5
-7 3 2 1.8 1.8
6 -3 -2 5.6 2.2
-6 3 2 6.8 1.1
-6 3 2 7.3 1.6
5 -3 -2 2.1 1.4
5 -3 -2 1.1 1.1
-5 3 2 0.9 1.1
-5 3 2 1 0.6
4 -3 -2 4 1
4 -3 -2 3.9 1.3
-4 3 2 2 1
-4 3 2 3.4 0.6
3 -3 -2 6.4 1.1
3 -3 -2 8.5 1
3 -3 -2 7.5 1.2
-3 3 2 8.8 0.9
-3 3 2 9.1 1.7
-3 3 2 8.7 1.2
2 -3 -2 20.7 1.6
2 -3 -2 23.1 1.7
-2 3 2 19.5 1.9
-2 3 2 19.7 1.8
-2 3 2 22.1 1.5
1 -3 -2 76.79 5.1
1 -3 -2 86.89 5.1
1 -3 -2 91.29 5
-1 3 2 86.19 5
-1 3 2 94.09 5.1
-1 3 2 99.09 5.2
-1 3 2 90.39 5
0 -3 -2 335.77 17.6
0 -3 -2 358.86 17.9
0 -3 -2 325.77 17.8
0 3 2 336.17 17.8
0 3 2 324.77 17.8
0 3 2 322.47 17.8
0 3 2 314.87 17.6
0 3 2 330.67 17.6
-1 -3 -2 394.36 21.1
-1 -3 -2 373.16 21.3
-1 -3 -2 416.76 21.2
1 3 2 403.96 21.1
1 3 2 406.46 21.3
1 3 2 392.46 21.3
1 3 2 382.56 21.2
-2 -3 -2 74.19 4.3
-2 -3 -2 70.69 4.1
-2 -3 -2 72.89 4.3
2 3 2 72.19 4
2 3 2 61.09 4.2
2 3 2 72.19 4.4
-3 -3 -2 225.58 13.4
-3 -3 -2 262.87 13.3
3 3 2 260.07 13.2
3 3 2 226.38 13.3
3 3 2 243.18 13.7
-4 -3 -2 34.4 2.7
-4 -3 -2 32.5 2.4
4 3 2 37.1 2.5
4 3 2 33.8 3.2
-5 -3 -2 19.9 2.3
-5 -3 -2 18 1.8
5 3 2 17.8 2.5
-6 -3 -2 16.6 2.3
-6 -3 -2 16.8 2.2
6 3 2 12.6 2.6
-7 -3 -2 1.8 1.6
-7 -3 -2 -0.1 2.4
7 3 2 -4.3 2.2
-8 -3 -2 3.3 2.2
8 3 2 2.4 3.9
8 -4 -2 1.6 3.3
-8 4 2 1.8 2.5
7 -4 -2 2.9 2.6
-7 4 2 6.2 2
6 -4 -2 18.2 3
-6 4 2 23.8 2
-6 4 2 24.8 2.9
5 -4 -2 64.09 4.7
-5 4 2 61.29 4.3
-5 4 2 58.69 3.7
4 -4 -2 53.39 3.6
4 -4 -2 49 3.5
4 -4 -2 47.8 3.7
-4 4 2 54.69 3.7
-4 4 2 47 3
3 -4 -2 425.26 24.3
3 -4 -2 471.45 24.2
3 -4 -2 456.35 24.4
-3 4 2 451.95 24.1
-3 4 2 423.86 24.4
-3 4 2 467.25 24.5
2 -4 -2 4.8 0.8
2 -4 -2 1.8 0.9
2 -4 -2 4 1
-2 4 2 4.6 0.8
-2 4 2 3.7 1.2
-2 4 2 5 1
1 -4 -2 1320.87 69.69
1 -4 -2 1250.57 69.49
1 -4 -2 1344.07 69.79
-1 4 2 1297.87 69.49
-1 4 2 1310.37 69.69
-1 4 2 1364.56 69.79
0 -4 -2 141.59 7.7
0 -4 -2 129.19 7.6
0 4 2 139.19 7.6
0 4 2 134.49 7.3
0 4 2 131.49 7.6
0 4 2 131.89 7.6
0 4 2 136.19 7.3
-1 -4 -2 1599.54 83.39
-1 -4 -2 1616.44 83.69
-1 -4 -2 1544.95 83.59
1 4 2 1557.44 83.49
1 4 2 1598.64 83.69
1 4 2 1528.75 83.59
1 4 2 1606.24 83.69
-2 -4 -2 40.1 2.6
-2 -4 -2 38.4 2.6
-2 -4 -2 31.8 2.6
2 4 2 38.7 2.7
2 4 2 36.6 2.6
2 4 2 36.9 2.4
2 4 2 37.3 2.7
-3 -4 -2 707.33 38.6
-3 -4 -2 698.83 38.5
3 4 2 665.63 38.6
3 4 2 722.23 38.3
3 4 2 802.52 39.1
-4 -4 -2 4.9 1
-4 -4 -2 3 1.3
4 4 2 2.4 1.3
-5 -4 -2 85.09 5.5
-5 -4 -2 94.19 6
5 4 2 89.39 6.3
-6 -4 -2 1.6 1.3
-6 -4 -2 2.3 2
6 4 2 3.7 2.2
-7 -4 -2 7.6 2
-7 -4 -2 7.1 2.8
7 4 2 7.7 2.9
7 4 2 7.7 2.2
-8 -4 -2 0.3 2.5
8 4 2 -3.5 3.5
8 -5 -2 3 3.6
-8 5 2 2.9 2.5
7 -5 -2 8.6 2.8
-7 5 2 5.8 2.2
6 -5 -2 -0.9 1.9
-6 5 2 1.6 2.8
-6 5 2 1.5 1
5 -5 -2 -0.3 1.5
5 -5 -2 -0.4 1.3
-5 5 2 0.1 1.3
-5 5 2 -0.8 0.8
4 -5 -2 2.6 1.3
4 -5 -2 -0.4 1.1
-4 5 2 0.1 1.1
-4 5 2 3.4 0.7
3 -5 -2 93.39 5.5
3 -5 -2 81.59 5.6
-3 5 2 86.69 5.6
-3 5 2 101.29 5.8
-3 5 2 90.09 5.3
2 -5 -2 37.8 3
2 -5 -2 33.7 2.9
2 -5 -2 40 2.6
-2 5 2 44.3 2.8
-2 5 2 37.8 2.7
1 -5 -2 1067.69 54.59
1 -5 -2 1013.4 54.09
1 -5 -2 1045.1 54.59
-1 5 2 974.7 54.49
-1 5 2 1017.6 54.19
0 -5 -2 37.4 2.9
0 -5 -2 35.3 2.7
0 5 2 39.5 2.9
0 5 2 33.2 2.6
0 5 2 38.3 2.2
0 5 2 36.9 2.9
-1 -5 -2 1470.35 76.09
-1 -5 -2 1326.97 76.49
-1 -5 -2 1444.26 76.49
1 5 2 1343.97 76.49
1 5 2 1534.15 76.59
1 5 2 1549.14 76.49
1 5 2 1413.36 76.19
-2 -5 -2 17.2 1.8
-2 -5 -2 15.9 1.8
-2 -5 -2 18.3 1.8
2 5 2 18.8 1.8
2 5 2 19 1.9
2 5 2 17.6 1.8
-3 -5 -2 490.25 26.7
-3 -5 -2 487.45 26.5
-3 -5 -2 495.45 26.7
3 5 2 485.55 26.7
3 5 2 495.15 26.7
-4 -5 -2 26.1 2.4
-4 -5 -2 28.2 2.9
4 5 2 30.5 2.7
4 5 2 27.7 3
-5 -5 -2 163.38 10
-5 -5 -2 166.38 9.7
5 5 2 164.08 9.8
5 5 2 171.98 10.3
-6 -5 -2 1.3 1.5
-6 -5 -2 -2.4 2
6 5 2 0.4 1.7
6 5 2 1 2.2
-7 -5 -2 60.39 5.5
-7 -5 -2 58.39 4.9
7 5 2 51.79 6.5
7 5 2 63.89 6.3
-8 -5 -2 3.1 3.6
8 5 2 2 3.8
7 -6 -2 7.5 3.2
-7 6 2 1.4 2.3
6 -6 -2 3.1 2.1
-6 6 2 2.4 1.2
-6 6 2 2.2 1.8
5 -6 -2 15.8 2.3
5 -6 -2 15.8 2.4
-5 6 2 17.2 2.4
-5 6 2 14.9 1.9
4 -6 -2 59.59 4.2
4 -6 -2 53.59 4.1
-4 6 2 54.29 4.2
-4 6 2 55.39 3.7
3 -6 -2 -0.2 1.2
-3 6 2 0.6 0.8
-3 6 2 -1.6 1.3
2 -6 -2 207.08 10.6
2 -6 -2 193.18 11.2
-2 6 2 189.88 10.9
-2 6 2 185.28 10.7
1 -6 -2 12.3 1.7
1 -6 -2 17.1 1.1
-1 6 2 16.8 1.1
-1 6 2 15.1 1.8
0 -6 -2 99.99 6.4
0 6 2 110.29 6.4
-1 -6 -2 24 2.3
-1 -6 -2 23.3 1.6
1 6 2 21.9 2.3
1 6 2 25.2 1.7
-2 -6 -2 4.4 1.2
-2 -6 -2 4.7 1.1
2 6 2 4.5 1
2 6 2 5.3 1.2
-3 -6 -2 181.58 10.5
-3 -6 -2 170.38 10.1
-3 -6 -2 185.98 10.3
3 6 2 175.38 10.3
3 6 2 168.08 10.1
-4 -6 -2 1.4 1.2
-4 -6 -2 0.3 1.4
4 6 2 0.4 1.5
4 6 2 -0.2 1.2
-5 -6 -2 100.19 6.1
-5 -6 -2 86.49 6.3
5 6 2 89.89 6.5
5 6 2 94.09 6.2
-6 -6 -2 2.5 1.7
-6 -6 -2 1.5 2.2
6 6 2 -2.4 1.8
6 6 2 9 4.1
-7 -6 -2 14.6 3.2
-7 -6 -2 13.6 2.8
7 6 2 11.2 3.5
7 6 2 18.9 3
7 -7 -2 18.2 3.6
-7 7 2 17.8 3.3
6 -7 -2 8 2.5
6 -7 -2 8.7 2.6
-6 7 2 9.9 1.7
-6 7 2 7.6 2.5
5 -7 -2 10.2 2.1
5 -7 -2 8.2 2.1
-5 7 2 10.8 2.2
-5 7 2 11.9 1.7
4 -7 -2 2.9 1.4
4 -7 -2 4.7 1.8
-4 7 2 3 1.6
-4 7 2 5.5 1.2
3 -7 -2 1.1 1
3 -7 -2 0.3 1.4
-3 7 2 2.2 1
-3 7 2 0.5 1.4
2 -7 -2 3.5 0.7
2 -7 -2 1.6 1.4
-2 7 2 0.9 1.1
-2 7 2 2.8 0.9
1 -7 -2 1.3 1.3
-1 7 2 2.9 1.2
0 -7 -2 17.7 2.1
0 7 2 17.4 2.2
-1 -7 -2 35.3 3.4
-1 -7 -2 44.9 2.5
1 7 2 46.1 2.6
1 7 2 38.4 3.3
1 7 2 43.7 2.5
-2 -7 -2 -0.8 0.9
-2 -7 -2 1.8 1.2
2 7 2 1.4 0.9
2 7 2 -0.4 1.1
-3 -7 -2 80.79 6.1
-3 -7 -2 71.59 5
3 7 2 67.89 4.7
3 7 2 76.79 5.1
-4 -7 -2 14.3 2.2
4 7 2 16 2.3
4 7 2 22.6 2.8
-5 -7 -2 6.9 2
5 7 2 6.2 2.1
5 7 2 7.3 2
-6 -7 -2 16.5 4.1
6 7 2 17.9 2.8
6 7 2 13.3 3.2
-7 -7 -2 12.6 2.9
7 7 2 2.9 3.5
7 7 2 9 3.8
6 -8 -2 5 3
-6 8 2 6.9 2.1
-6 8 2 14 2.9
5 -8 -2 12.7 4.1
5 -8 -2 22.1 3.2
-5 8 2 22.2 3.1
-5 8 2 14.8 2.1
4 -8 -2 25.8 2.7
4 -8 -2 27.4 3.7
-4 8 2 27 2.7
3 -8 -2 46.6 3.2
-3 8 2 47.3 3.6
2 -8 -2 29 3.5
-2 8 2 32.8 2.9
1 -8 -2 8.7 1.8
-1 8 2 10.5 1.6
0 -8 -2 1.2 1.5
0 8 2 -0.6 1.2
-1 -8 -2 8.3 1.7
1 8 2 11.5 2
-2 -8 -2 77.59 4.4
-2 -8 -2 71.39 5.1
2 8 2 67.09 5.1
2 8 2 69.39 4.4
-3 -8 -2 -0.6 1.6
3 8 2 1 1.3
3 8 2 2.3 1.6
-4 -8 -2 66.19 5.1
4 8 2 64.29 5.1
4 8 2 61.29 4.8
5 8 2 19 3
5 8 2 17.1 2.7
-6 -8 -2 -1.1 2.5
6 8 2 9.8 2.8
6 8 2 6.1 2.9
-7 -8 -2 46.4 5
7 8 2 45.3 5.5
6 -9 -2 82.09 7.3
-6 9 2 80.19 5.7
-6 9 2 76.19 7
5 -9 -2 5.8 2.8
-5 9 2 6.1 2
-5 9 2 6.1 2.7
4 -9 -2 22.9 3.5
-4 9 2 33.4 3.2
3 -9 -2 -5.6 2
-3 9 2 1.2 1.6
2 -9 -2 2.7 1.8
-2 9 2 5.5 1.5
1 -9 -2 2.3 1.7
-1 9 2 0.8 1.6
0 -9 -2 13.3 2.2
0 9 2 12.3 2.2
-1 -9 -2 10.3 2.3
1 9 2 4.5 1.5
-2 -9 -2 10.5 2.3
2 9 2 14.4 1.7
2 9 2 9.8 2.1
-3 -9 -2 16 2.5
3 9 2 14.4 2.5
3 9 2 11.8 1.8
-4 -9 -2 0.9 2.1
4 9 2 5.5 1.9
4 9 2 4.6 2.8
-5 -9 -2 11.8 3
5 9 2 10.7 2.9
5 9 2 12 2.7
-6 -9 -2 27 3.8
6 9 2 25.5 4
6 9 2 27.5 4.1
5 -10 -2 4.8 3.3
-5 10 2 9.9 3.3
-5 10 2 0.8 2.2
4 -10 -2 17.3 3.3
-4 10 2 25.5 3.3
3 -10 -2 17.2 3.1
-3 10 2 22.9 2.9
2 -10 -2 2.7 2.4
-2 10 2 6.1 1.9
1 -10 -2 51.89 4.7
-1 10 2 55.39 4.7
0 -10 -2 2.8 2.1
0 10 2 4.8 1.7
-1 -10 -2 59.59 5.2
1 10 2 52.39 4.6
-2 -10 -2 3.2 2.2
2 10 2 4.4 2.2
-3 -10 -2 29.9 3.7
3 10 2 34.2 3.8
-4 -10 -2 6.5 2.7
4 10 2 4.8 2.6
-5 -10 -2 5 3.1
5 10 2 2.3 2.9
4 -11 -2 4.5 3.4
-4 11 2 2.7 2.3
3 -11 -2 3.1 3.1
-3 11 2 10.4 2.3
2 -11 -2 -1.7 2.7
-2 11 2 2.7 2.1
1 -11 -2 5.5 2.9
-1 11 2 9.2 2.1
0 -11 -2 0.4 2.6
0 11 2 -0.2 2.2
-1 -11 -2 -0.9 2.5
1 11 2 1.5 2.5
-2 -11 -2 5.4 2.8
-3 -11 -2 3.5 2.9
3 11 2 -0.1 2.5
-4 -11 -2 3.9 3.4
4 11 2 1.9 3
3 -12 -2 0.3 3.8
-3 12 2 0.9 2.6
2 -12 -2 108.79 8.7
-2 12 2 93.89 7.4
1 -12 -2 6.2 3.3
-1 12 2 7.7 2.9
0 -12 -2 51.89 6.4
0 12 2 46.1 5.5
-1 -12 -2 40.4 5.1
1 12 2 25.1 4
-2 -12 -2 9.8 3.8
2 12 2 10.9 3.4
-3 -12 -2 45.9 5.5
3 12 2 34.7 4.6
2 10 -3 16.7 3
-2 -10 3 19.5 4
1 10 -3 5 2.5
-1 -10 3 8.9 3.8
0 10 -3 13.6 2.7
0 -10 3 9.7 3.6
-1 10 -3 5.8 2.5
1 -10 3 10.2 3.7
-2 10 -3 2 2.5
2 -10 3 1.5 3.8
-4 -9 3 21.8 4
3 9 -3 13.6 2.7
-3 -9 3 18.2 4
2 9 -3 46.2 4.4
-2 -9 3 53.99 5.8
1 9 -3 13.3 2.6
-1 -9 3 18.8 3.1
0 9 -3 19.3 2.6
0 -9 3 19 3.6
-1 9 -3 -0.6 1.8
-2 9 -3 0.5 1.8
2 -9 3 0.5 3.1
-3 9 -3 0.3 2.1
3 -9 3 3.5 3.5
-4 9 -3 -0.1 2.2
4 -9 3 -1.2 3.5
-5 -8 3 4.8 3.3
-4 -8 3 3.9 3
-3 -8 3 14.6 2.9
-2 -8 3 2.4 2.2
1 8 -3 11.6 2.2
-1 -8 3 18.9 3.1
0 8 -3 -0.8 1.5
0 -8 3 -0.2 2.2
-1 8 -3 -2 1.6
1 -8 3 0.4 2.2
-2 8 -3 2.7 1.5
2 -8 3 1.6 2.5
-3 8 -3 -1.7 1.7
3 -8 3 -6.3 2.6
-4 8 -3 -0.7 1.8
4 -8 3 -6.9 2.8
-5 8 -3 7.8 2.5
5 -8 3 5.7 3.8
5 7 -3 -1.4 2.7
-5 -7 3 1.7 2.7
4 7 -3 5.3 1.8
4 7 -3 -1.2 2.1
-4 -7 3 2.7 2.2
3 7 -3 3.2 1.6
3 7 -3 1.4 1.6
-3 -7 3 2.3 1.8
2 7 -3 18.8 2.3
2 7 -3 18 2.3
-2 -7 3 20.7 2.9
1 7 -3 11.4 1.6
1 7 -3 12.4 1.9
-1 -7 3 14.2 1.7
-1 -7 3 14.2 2.4
0 7 -3 29.9 3.1
0 -7 3 33.9 2.5
0 -7 3 32.7 3.5
-1 7 -3 29.9 2.9
1 -7 3 32.1 2.5
1 -7 3 22.8 3.1
-2 7 -3 19.7 2.5
2 -7 3 20 2.8
-3 7 -3 1.7 1.5
3 -7 3 0.4 2.2
-4 7 -3 17.1 2.4
4 -7 3 19.5 3.5
-5 7 -3 86.19 6.1
5 -7 3 84.29 7
-6 7 -3 27.2 3.9
-6 7 -3 25.1 3.2
6 -7 3 21.6 3.9
6 6 -3 -2.4 2.8
-6 -6 3 -1.3 2.8
5 6 -3 75.49 7.2
-5 -6 3 79.79 6.3
4 6 -3 7.6 2.2
4 6 -3 5.9 1.6
-4 -6 3 3.4 2.1
3 6 -3 135.99 7.8
3 6 -3 126.29 7.6
-3 -6 3 111.39 9.4
2 6 -3 8.4 1.5
2 6 -3 9.4 1.5
-2 -6 3 10.4 2
1 6 -3 37 3.6
1 6 -3 48.5 3.5
-1 -6 3 56.09 3.9
-1 -6 3 51.29 4.1
0 6 -3 -0.3 1.1
0 -6 3 1.5 0.8
0 -6 3 1.5 1.3
0 -6 3 3 1.2
-1 6 -3 1.3 1
1 -6 3 -1.6 1.3
1 -6 3 2.1 1.1
1 -6 3 0.2 1
-2 6 -3 8.6 1.6
2 -6 3 10.5 2
2 -6 3 10.4 1.7
2 -6 3 9.8 1.6
-3 6 -3 22 2.4
3 -6 3 18.4 2.5
3 -6 3 16.5 2.7
-4 6 -3 7.2 1.5
4 -6 3 4 2.2
4 -6 3 4.9 1.9
-5 6 -3 61.89 4.7
5 -6 3 66.69 5.5
5 -6 3 61.79 5.5
-6 6 -3 9.3 2.3
-6 6 -3 7.9 2.7
6 -6 3 5.3 2.7
6 -6 3 10 3
7 5 -3 4 3.2
-7 -5 3 3 3.1
6 5 -3 3.5 2.6
-6 -5 3 -1.6 2.4
5 5 -3 5.3 2.1
-5 -5 3 6.7 2.4
4 5 -3 2.1 1.6
4 5 -3 0 1.1
-4 -5 3 -1 2.2
3 5 -3 5.7 1.3
3 5 -3 10.2 1.7
-3 -5 3 7.3 1.8
2 5 -3 4.5 1.2
2 5 -3 6.9 1.2
-2 -5 3 4.9 1.3
1 5 -3 7.1 1.2
1 5 -3 8.3 1.3
-1 -5 3 6.4 1.4
-1 -5 3 7.9 1.6
0 5 -3 9.1 1.4
0 -5 3 6.4 1.4
0 -5 3 13.1 1.7
0 -5 3 7.5 1.1
-1 5 -3 6.9 1.2
1 -5 3 10.8 1.3
1 -5 3 11.7 1.8
1 -5 3 13.1 1.6
-2 5 -3 3 0.9
2 -5 3 4.7 1.2
2 -5 3 2.8 1.4
2 -5 3 3.7 1.2
-3 5 -3 19 1.9
3 -5 3 18.5 2.5
3 -5 3 19.2 2.4
-4 5 -3 58.79 4.1
4 -5 3 54.09 4.7
4 -5 3 67.19 4.7
-5 5 -3 48.1 3.9
-5 5 -3 49.6 4.2
5 -5 3 58.09 4.5
5 -5 3 52.79 4.8
-6 5 -3 58.19 4.9
-6 5 -3 54.69 4.5
6 -5 3 65.29 5.1
6 -5 3 59.59 5.7
-7 5 -3 53.59 5
7 -5 3 56.79 6.9
7 4 -3 7.1 3.5
-7 -4 3 11.8 3
6 4 -3 -0.1 2.5
-6 -4 3 3.7 2.1
5 4 -3 7.9 2.1
-5 -4 3 12.6 2
4 4 -3 9.9 2.5
4 4 -3 5.8 1.7
4 4 -3 6.2 1.1
-4 -4 3 4.1 1.6
3 4 -3 8.5 1.2
3 4 -3 7.5 1.4
3 4 -3 9.3 2.2
-3 -4 3 10.5 1.8
-3 -4 3 6.9 1.4
2 4 -3 0.3 0.9
2 4 -3 2.4 0.8
-2 -4 3 0.2 1
1 4 -3 10.1 1.4
1 4 -3 11.6 1.3
-1 -4 3 14.3 1.8
-1 -4 3 9.6 1.4
0 4 -3 1.2 0.7
0 4 -3 -0.1 0.7
0 -4 3 1.3 0.6
0 -4 3 0.1 0.8
0 -4 3 1 0.8
-1 4 -3 25.8 2.1
1 -4 3 25.5 2.3
1 -4 3 28.4 2.1
1 -4 3 28.6 2.1
-2 4 -3 0.8 0.7
-2 4 -3 1.4 0.9
2 -4 3 0.3 0.9
2 -4 3 -0.4 1
2 -4 3 0.1 1
-3 4 -3 17.7 1.9
3 -4 3 17 2.4
3 -4 3 19 2.4
-4 4 -3 3.4 1.1
4 -4 3 3.5 1.7
4 -4 3 1.5 1.5
-5 4 -3 2.5 1.4
-5 4 -3 1.5 1.3
5 -4 3 2 1.4
5 -4 3 -3.5 1.9
-6 4 -3 -2.5 1.4
-6 4 -3 0.9 1.5
6 -4 3 2.2 1.6
6 -4 3 1.4 2.4
-7 4 -3 2.4 2
7 -4 3 -0.2 3.2
7 3 -3 9.6 3.5
-7 -3 3 14.3 3
6 3 -3 67.19 6
-6 -3 3 76.99 5.5
5 3 -3 0.9 1.8
5 3 -3 4.6 1
-5 -3 3 3.6 1.5
4 3 -3 330.77 17.2
4 3 -3 304.37 17.8
4 3 -3 344.37 17.2
-4 -3 3 289.17 17.6
3 3 -3 14 1.4
3 3 -3 11.3 1.6
3 3 -3 10 1.6
-3 -3 3 9.3 1.4
-3 -3 3 12.9 1.6
2 3 -3 620.04 32.1
2 3 -3 662.03 32.4
-2 -3 3 612.74 32.2
-2 -3 3 548.65 32.3
-2 -3 3 562.24 32.5
1 3 -3 118.19 6.7
1 3 -3 108.09 6.6
-1 -3 3 118.59 6.8
-1 -3 3 122.59 6.9
-1 -3 3 119.79 6.8
0 3 -3 469.15 24.8
0 3 -3 467.65 24.8
0 3 -3 473.95 24.9
0 -3 3 475.25 24.8
0 -3 3 471.95 25
0 -3 3 429.46 24.9
0 -3 3 449.86 24.8
-1 3 -3 331.77 18.5
-1 3 -3 339.67 18.5
1 -3 3 329.37 18.4
1 -3 3 351.86 18.6
1 -3 3 356.36 18.5
-2 3 -3 47.6 3.2
-2 3 -3 53.69 3.3
-2 3 -3 47.1 3.4
2 -3 3 48.6 3.4
2 -3 3 55.19 3.4
2 -3 3 50.99 3.5
-3 3 -3 220.08 12.1
-3 3 -3 225.08 12.3
3 -3 3 222.48 12.5
3 -3 3 209.18 12.2
-4 3 -3 7.1 1.2
4 -3 3 5.5 1.2
4 -3 3 6.4 1.7
-5 3 -3 39.1 3.1
-5 3 -3 37.2 3
5 -3 3 38.4 4
5 -3 3 39 3.1
-6 3 -3 -1 1.3
-6 3 -3 1.2 1.4
6 -3 3 1.5 2.4
-7 3 -3 0.8 1.8
-7 3 -3 7.3 1.9
7 -3 3 6.5 2.9
-8 3 -3 6.1 2.5
8 -3 3 -1.8 4
8 2 -3 22.8 4.5
-8 -2 3 32.7 3.9
7 2 -3 12.4 3.5
-7 -2 3 11.8 2.6
6 2 -3 50.69 5
-6 -2 3 46.9 4.2
5 2 -3 51.39 4.3
-5 -2 3 44.5 3.7
4 2 -3 76.49 4.4
4 2 -3 77.09 4.4
4 2 -3 77.59 5.3
-4 -2 3 80.79 5
3 2 -3 74.99 4
3 2 -3 64.69 4.5
3 2 -3 69.69 4.2
-3 -2 3 67.19 4.4
2 2 -3 369.26 22.9
2 2 -3 434.56 22.6
-2 -2 3 433.86 23.1
-2 -2 3 412.96 22.9
-2 -2 3 467.75 22.8
1 2 -3 38.1 2.3
1 2 -3 36.1 2.5
1 2 -3 36.3 2.5
-1 -2 3 36.7 2.5
-1 -2 3 37.4 2.7
-1 -2 3 37.6 2.5
0 2 -3 1220.38 67.49
0 2 -3 1380.76 67.49
0 2 -3 1287.07 67.39
0 -2 3 1338.27 67.49
0 -2 3 1191.78 67.39
0 -2 3 1226.58 67.39
0 -2 3 1266.37 67.49
-1 2 -3 8.2 1.1
-1 2 -3 7.2 0.9
-1 2 -3 8.5 1.1
1 -2 3 11.9 1.3
1 -2 3 7.8 1.1
1 -2 3 9 1.2
1 -2 3 10.4 1.1
-2 2 -3 767.52 38.2
-2 2 -3 635.54 38.1
-2 2 -3 770.72 38.3
2 -2 3 662.53 38.2
2 -2 3 748.43 38.4
-3 2 -3 3.6 1.1
-3 2 -3 6.2 0.9
3 -2 3 6.4 1.1
3 -2 3 7.2 1.3
-4 2 -3 53.49 3.6
-4 2 -3 51.59 3.5
-4 2 -3 63.29 3.9
4 -2 3 54.19 4.3
4 -2 3 55.79 3.5
-5 2 -3 -1.3 0.9
-5 2 -3 1.5 1
5 -2 3 -0.6 1.7
-6 2 -3 0.9 1.2
-6 2 -3 -1.2 1.2
6 -2 3 -1.1 2.1
-7 2 -3 2.3 1.4
7 -2 3 -2.2 2.7
-8 2 -3 -1.1 2.2
8 -2 3 -0.9 3.5
8 1 -3 8.2 4
-8 -1 3 6 2.5
7 1 -3 6.4 3.2
-7 -1 3 5.6 2.2
6 1 -3 17.5 2.8
-6 -1 3 29.2 4.1
5 1 -3 62.19 4.9
-5 -1 3 58.19 4.2
4 1 -3 80.49 5.4
-4 -1 3 79.49 5
3 1 -3 184.68 9.7
3 1 -3 181.08 9.6
3 1 -3 173.48 10.4
-3 -1 3 181.68 10.1
2 1 -3 16.4 1.6
2 1 -3 13.6 1.5
2 1 -3 16.8 1.1
-2 -1 3 18.9 1.3
-2 -1 3 15.4 1.5
-2 -1 3 17 1.9
1 1 -3 122.09 7.1
1 1 -3 131.49 7
1 1 -3 122.99 6.8
-1 -1 3 122.19 7
-1 -1 3 124.59 7.2
-1 -1 3 133.39 6.9
0 1 -3 2.5 0.6
0 1 -3 3.8 0.5
0 1 -3 2.5 0.6
0 -1 3 3.3 0.6
0 -1 3 2.8 0.7
0 -1 3 3.9 0.6
0 -1 3 3.3 0.6
-1 1 -3 1.7 0.5
-1 1 -3 1.4 0.5
-1 1 -3 1.9 0.5
1 -1 3 0.9 0.5
1 -1 3 2 0.7
1 -1 3 0.9 0.5
1 -1 3 1.8 0.5
-2 1 -3 27.9 2.1
-2 1 -3 25.7 1.8
-2 1 -3 24 1.8
2 -1 3 29.3 1.9
2 -1 3 26.1 1.8
2 -1 3 26.9 2.1
-3 1 -3 28.5 1.9
-3 1 -3 22.8 1.7
-3 1 -3 22.9 1.8
3 -1 3 20.2 1.7
3 -1 3 24.2 2.2
-4 1 -3 135.79 7.8
-4 1 -3 132.19 7.8
-4 1 -3 139.39 7.7
4 -1 3 142.59 8.5
-5 1 -3 2.2 1.1
-5 1 -3 4.9 1.7
-5 1 -3 6.4 1
5 -1 3 7 2
-6 1 -3 55.69 4
-6 1 -3 57.59 3.7
6 -1 3 50.59 5.2
-7 1 -3 4.4 1.4
-7 1 -3 0.3 1.6
7 -1 3 -0.3 2.3
-8 1 -3 4.4 2.4
8 -1 3 4.3 3.6
8 0 -3 11 3.9
-8 0 3 4 2.3
7 0 -3 -0.9 2.8
-7 0 3 -1.8 1.8
6 0 -3 25.8 3.9
-6 0 3 21 2.8
5 0 -3 35.3 3.5
-5 0 3 36.6 2.9
4 0 -3 3.3 1.2
-4 0 3 6.1 1.1
3 0 -3 44.4 3.2
-3 0 3 41.9 2.9
2 0 -3 128.99 7
2 0 -3 113.79 7.1
-2 0 3 118.89 6.9
-2 0 3 132.49 7.3
1 0 -3 8.7 1
1 0 -3 7.6 0.9
1 0 -3 7.7 0.6
-1 0 3 7.4 0.6
-1 0 3 7 0.8
-1 0 3 8.5 1
0 0 -3 495.35 26.2
0 0 -3 502.75 26.2
0 0 -3 521.15 26.4
0 0 3 495.85 26.4
0 0 3 481.35 26.2
0 0 3 502.15 26.2
0 0 3 458.25 26.3
-1 0 -3 9.2 1
-1 0 -3 9 0.7
-1 0 -3 9.5 0.9
1 0 3 9.6 0.7
1 0 3 8.6 0.8
1 0 3 8.2 1
1 0 3 9.7 1
-2 0 -3 39.3 2.7
-2 0 -3 38 2.4
-2 0 -3 36.6 2.3
2 0 3 38.3 2.2
2 0 3 40.8 2.4
2 0 3 37.3 2.6
-3 0 -3 60.49 3.9
-3 0 -3 61.79 3.8
-3 0 -3 71.19 3.7
3 0 3 69.39 4.1
3 0 3 61.69 4.3
-4 0 -3 7.1 1.2
-4 0 -3 6.3 1
-4 0 -3 5.9 0.8
4 0 3 5.6 1.5
-5 0 -3 75.09 4.7
-5 0 -3 74.19 4.9
5 0 3 70.39 5.5
-6 0 -3 3.3 1.3
-6 0 -3 3.7 1.1
6 0 3 3.2 1.9
-7 0 -3 15.9 1.9
-7 0 -3 13.4 2.3
7 0 3 15.9 3.3
-8 0 -3 3.8 2.6
8 0 3 8 3.7
8 -1 -3 -3 3.5
-8 1 3 0.9 2.4
7 -1 -3 0.5 2.4
-7 1 3 -1 1.6
-6 1 3 0.7 1.2
5 -1 -3 15.3 2.5
-5 1 3 14.7 2
4 -1 -3 -0.8 1
-4 1 3 1.3 0.7
3 -1 -3 1.4 0.9
-3 1 3 1.1 0.6
2 -1 -3 0.9 0.6
-2 1 3 0.9 0.8
1 -1 -3 21 1.5
1 -1 -3 21.7 1.3
1 -1 -3 21.7 1.6
-1 1 3 17.3 1.5
-1 1 3 21.3 1.2
-1 1 3 19 1.4
0 -1 -3 0.1 0.3
0 -1 -3 0.2 0.3
0 -1 -3 0.2 0.4
0 1 3 0.6 0.4
0 1 3 0.7 0.5
0 1 3 0 0.3
0 1 3 0.2 0.2
-1 -1 -3 31.8 2
-1 -1 -3 32.6 2.1
-1 -1 -3 33.2 1.8
1 1 3 31.9 1.8
1 1 3 32.6 2.2
1 1 3 32.9 2
1 1 3 33.5 2.1
1 1 3 31.6 1.8
-2 -1 -3 2 0.8
-2 -1 -3 2.2 0.5
2 1 3 2.4 0.8
2 1 3 2.3 0.6
-3 -1 -3 200.28 10.8
-3 -1 -3 200.38 10.5
-3 -1 -3 198.98 10.6
3 1 3 200.88 10.8
3 1 3 177.98 11.2
-4 -1 -3 62.79 3.5
-4 -1 -3 55.19 3.7
-4 -1 -3 59.29 3.7
4 1 3 60.59 4.5
-5 -1 -3 27.5 2.8
-5 -1 -3 31.2 2.2
-5 -1 -3 29 2.5
5 1 3 27.8 3.5
-6 -1 -3 107.19 6.4
-6 -1 -3 114.09 6.8
6 1 3 106.09 7.8
-7 -1 -3 2.6 2
-7 -1 -3 6.9 1.5
7 1 3 3.3 2.7
-8 -1 -3 67.19 7.6
8 1 3 58.49 7.1
8 -2 -3 0.6 3.1
-8 2 3 1.9 2.2
7 -2 -3 64.89 5.9
-7 2 3 62.59 5
6 -2 -3 16.2 2.6
-6 2 3 14.5 2
5 -2 -3 23.2 1.6
5 -2 -3 17.2 2.5
-5 2 3 19 2.3
4 -2 -3 39.5 3.4
4 -2 -3 42.9 2.6
-4 2 3 37.2 3
-4 2 3 45.4 2.4
3 -2 -3 42 3.2
-3 2 3 48.1 2.7
-3 2 3 48.4 3.1
-3 2 3 47.8 2.6
2 -2 -3 80.59 4.8
2 -2 -3 81.09 4.8
-2 2 3 79.49 4.4
-2 2 3 81.29 4.9
-2 2 3 83.29 4.4
-2 2 3 74.49 4.7
1 -2 -3 617.84 31.3
1 -2 -3 572.34 31.2
-1 2 3 553.84 31.2
-1 2 3 573.64 31
-1 2 3 565.54 31.1
-1 2 3 631.44 31.3
0 -2 -3 188.38 10.4
0 -2 -3 183.48 10.3
0 -2 -3 187.78 10.4
0 2 3 190.98 10.3
0 2 3 185.68 10.3
0 2 3 209.18 10.4
0 2 3 193.68 10.3
0 2 3 192.08 10.4
-1 -2 -3 219.58 12.9
-1 -2 -3 239.28 12.7
-1 -2 -3 240.58 12.9
1 2 3 250.47 12.9
1 2 3 248.18 12.7
1 2 3 230.68 13
-2 -2 -3 119.49 6.9
-2 -2 -3 112.59 6.4
-2 -2 -3 122.19 6.7
2 2 3 116.89 6.3
2 2 3 123.99 6.7
-3 -2 -3 2.4 0.7
-3 -2 -3 1.9 0.5
3 2 3 1.3 0.9
3 2 3 2.5 0.7
3 2 3 2.4 0.5
-4 -2 -3 16.5 1.3
-4 -2 -3 14.2 1.7
4 2 3 20.3 2.6
4 2 3 17.6 1.5
-5 -2 -3 1.7 1.3
-5 -2 -3 0.3 1.1
5 2 3 1.6 1.1
5 2 3 -2.3 1.4
-6 -2 -3 0.7 1
-6 -2 -3 3.5 1.5
6 2 3 1.7 2.1
-7 -2 -3 -2.4 2.2
-7 -2 -3 3.3 1.4
7 2 3 0.3 2.8
-8 -2 -3 10.7 3.2
8 2 3 14.1 4
8 -3 -3 7.7 3.7
-8 3 3 7.3 2.5
7 -3 -3 11.2 3.2
-7 3 3 12.5 2.4
6 -3 -3 10.9 2.4
-6 3 3 14.9 2.1
5 -3 -3 7.6 1.8
5 -3 -3 4.5 1.2
-5 3 3 6.1 1.4
-5 3 3 4.4 0.7
4 -3 -3 16.5 2.2
4 -3 -3 18.4 1.7
-4 3 3 16.3 1.9
-4 3 3 16.5 1.2
3 -3 -3 6.2 1.1
3 -3 -3 9.4 1.2
-3 3 3 6.9 0.8
-3 3 3 5.8 0.9
-3 3 3 5.6 1
2 -3 -3 49.1 2.8
2 -3 -3 37.9 2.9
2 -3 -3 45.5 2.9
-2 3 3 44.7 2.8
-2 3 3 40.6 2.9
-2 3 3 48.3 3.1
-2 3 3 45.9 2.7
1 -3 -3 93.89 5.4
1 -3 -3 95.99 5.5
-1 3 3 96.69 5.4
-1 3 3 97.79 5.5
-1 3 3 95.59 5.4
-1 3 3 97.19 5.6
-1 3 3 94.59 5.6
0 -3 -3 129.39 7
0 -3 -3 125.49 7.1
0 -3 -3 125.29 7
0 3 3 119.69 7
0 3 3 127.79 7.1
0 3 3 131.89 7
0 3 3 126.79 7
0 3 3 127.09 7.1
-1 -3 -3 91.59 5.1
-1 -3 -3 87.79 5.1
-1 -3 -3 88.79 5.3
1 3 3 91.49 5
1 3 3 89.89 5.2
1 3 3 90.19 5.2
-2 -3 -3 72.19 4.6
-2 -3 -3 72.99 4.3
-2 -3 -3 74.19 4.8
2 3 3 82.39 4.5
2 3 3 74.99 4.2
2 3 3 74.89 4.7
-3 -3 -3 19.4 2.1
-3 -3 -3 27.7 1.8
3 3 3 28.3 1.7
3 3 3 25 2.5
3 3 3 28 2.1
-4 -3 -3 -0.4 0.9
-4 -3 -3 -0.3 0.6
4 3 3 -0.2 0.7
4 3 3 1 1.2
-5 -3 -3 55.89 3.8
-5 -3 -3 67.89 4.4
5 3 3 65.79 4.1
5 3 3 60.29 5
-6 -3 -3 25.8 2.9
-6 -3 -3 22.6 2.4
6 3 3 25.4 3.5
-7 -3 -3 53.39 4.7
-7 -3 -3 50.69 4
7 3 3 48.5 5.3
-8 -3 -3 12.9 3.8
8 3 3 15.3 3.8
8 -4 -3 3 3.5
-8 4 3 6 2.5
7 -4 -3 3.6 2.9
-7 4 3 4.3 1.9
6 -4 -3 1 2.1
-6 4 3 -1.4 0.9
5 -4 -3 12.3 2.1
5 -4 -3 13.3 1.9
-5 4 3 15 2.1
-5 4 3 15.7 1.5
4 -4 -3 1.9 1.2
4 -4 -3 -0.5 1.1
-4 4 3 1.3 0.5
-4 4 3 -0.4 0.8
3 -4 -3 5.7 1.2
3 -4 -3 3.9 1
3 -4 -3 7.1 1.3
-3 4 3 3.9 0.9
-3 4 3 5.5 0.8
2 -4 -3 14.7 1.6
2 -4 -3 11.8 1.5
2 -4 -3 14.5 1.5
-2 4 3 12.9 1.3
-2 4 3 15.4 1.6
-2 4 3 11.8 1.4
-2 4 3 12.7 1.7
1 -4 -3 94.19 5.4
1 -4 -3 92.69 5.2
1 -4 -3 79.79 5.6
-1 4 3 87.79 5.4
-1 4 3 91.49 5.3
-1 4 3 91.79 5.3
-1 4 3 97.99 5.4
0 -4 -3 14.1 1.5
0 -4 -3 16.1 1.3
0 -4 -3 16.5 1.6
0 4 3 17.3 1.6
0 4 3 15.5 1.6
0 4 3 18.1 1.3
0 4 3 17.8 1.3
0 4 3 14.9 1.6
-1 -4 -3 174.48 9.5
-1 -4 -3 176.08 10
-1 -4 -3 175.18 9.6
1 4 3 173.58 9.7
1 4 3 168.48 10
1 4 3 178.58 9.6
1 4 3 168.98 9.6
-2 -4 -3 18.7 1.6
-2 -4 -3 18.9 1.8
-2 -4 -3 17.7 1.9
2 4 3 19.6 1.5
2 4 3 18.7 1.8
2 4 3 15.8 1.8
-3 -4 -3 32.5 2.3
-3 -4 -3 30.3 2.6
3 4 3 31.8 2.8
3 4 3 34.8 2.2
-4 -4 -3 -1.4 1.1
-4 -4 -3 0.5 0.8
4 4 3 -0.3 0.8
4 4 3 0.3 1.1
-5 -4 -3 25.2 3
-5 -4 -3 21 2.1
5 4 3 20.8 2.9
-6 -4 -3 2.5 1.2
-6 -4 -3 1.1 2
6 4 3 2.9 2.2
-7 -4 -3 9.2 2
-7 -4 -3 13 3.1
7 4 3 10.8 3.3
8 4 3 -3.9 3.2
7 -5 -3 4.9 2.7
-7 5 3 4.2 2.1
6 -5 -3 0.6 1.9
-6 5 3 -0.7 0.9
-6 5 3 -2.7 1.6
5 -5 -3 9.2 1.9
-5 5 3 11 1.4
-5 5 3 12.9 1.8
4 -5 -3 7.7 1.5
4 -5 -3 8.7 1.7
-4 5 3 8.5 1.6
-4 5 3 8.2 1
3 -5 -3 122.19 7.2
3 -5 -3 130.49 7.3
3 -5 -3 126.19 7.4
-3 5 3 116.19 7.5
-3 5 3 120.69 7.3
-3 5 3 118.69 7
2 -5 -3 133.29 7.1
2 -5 -3 123.39 7.3
2 -5 -3 116.19 7.3
-2 5 3 123.39 7.2
-2 5 3 131.49 7.3
-2 5 3 115.19 7.1
1 -5 -3 284.97 18.1
1 -5 -3 348.07 17.8
1 -5 -3 335.17 18.1
-1 5 3 313.97 18
-1 5 3 371.26 18.2
-1 5 3 332.87 17.8
0 -5 -3 472.55 25.3
0 -5 -3 426.16 25.2
0 5 3 481.85 24.9
0 5 3 444.26 25.2
0 5 3 459.05 25.2
0 5 3 496.15 25.3
0 5 3 487.75 24.9
-1 -5 -3 6.3 1.1
-1 -5 -3 7.3 1.2
-1 -5 -3 9.2 1
1 5 3 8.2 1
1 5 3 8 1.4
1 5 3 7.7 1.1
1 5 3 7 1
1 5 3 9 1.2
-2 -5 -3 154.18 8.8
-2 -5 -3 147.79 8.9
-2 -5 -3 156.38 8.7
2 5 3 141.69 8.8
2 5 3 156.48 8.8
2 5 3 159.18 8.6
-3 -5 -3 227.48 13.1
-3 -5 -3 259.47 13.5
3 5 3 232.38 13.3
3 5 3 241.88 13
3 5 3 226.58 13.4
-4 -5 -3 15.9 1.8
-4 -5 -3 17.1 2.2
4 5 3 17.3 2.4
-5 -5 -3 236.28 13.9
-5 -5 -3 265.87 14.5
5 5 3 253.87 14.8
-6 -5 -3 -1.2 1.4
-6 -5 -3 1.4 2
6 5 3 -0.4 2.1
-7 -5 -3 100.59 8.2
-7 -5 -3 115.89 7.5
7 5 3 127.79 9.1
7 5 3 121.59 8
8 5 3 8 4.1
7 -6 -3 -1.8 2.7
-7 6 3 5.5 2.4
6 -6 -3 6 2.3
-6 6 3 6.6 1.3
-6 6 3 6.5 2.1
5 -6 -3 0.1 1.6
5 -6 -3 -1.1 1.6
-5 6 3 0.8 1.5
-5 6 3 0.4 0.9
4 -6 -3 5.2 1.6
4 -6 -3 4.4 1.5
-4 6 3 5.9 1.1
-4 6 3 6.2 1.5
3 -6 -3 25.8 2.5
3 -6 -3 24.7 2.2
-3 6 3 21.1 2.5
-3 6 3 24.7 2.9
-3 6 3 25.9 2.2
2 -6 -3 23.7 1.8
2 -6 -3 22.3 2.4
-2 6 3 16 2.2
-2 6 3 20.8 2
1 -6 -3 52.69 3.7
1 -6 -3 50.59 3
-1 6 3 47.8 3.5
-1 6 3 54.89 3.2
-1 6 3 51.89 3
0 -6 -3 123.19 7.2
0 6 3 115.19 7.1
0 6 3 120.99 6.6
0 6 3 120.19 6.6
-1 -6 -3 4.5 0.7
-1 -6 -3 3.3 1
1 6 3 4.1 0.8
1 6 3 3.4 1.1
1 6 3 3.6 0.8
-2 -6 -3 4.3 1.2
-2 -6 -3 2.5 1
-2 -6 -3 1.6 1
2 6 3 1.4 1
2 6 3 1 0.9
-3 -6 -3 2.4 1.1
-3 -6 -3 1.1 1.1
3 6 3 1 1.2
3 6 3 0.8 1.2
-4 -6 -3 0.2 1.1
-4 -6 -3 0.5 1.5
4 6 3 1.7 1.5
4 6 3 -0.5 1.2
-5 -6 -3 37.6 3.3
-5 -6 -3 38.9 4
5 6 3 38.9 4
5 6 3 36.9 3.7
-6 -6 -3 5.3 1.8
-6 -6 -3 -0.1 2.3
6 6 3 -0.5 1.9
-7 -6 -3 82.29 6.1
7 6 3 85.39 7.4
8 6 3 5.4 4.3
7 -7 -3 -6.6 2.9
-7 7 3 -0.3 2.7
6 -7 -3 3 2.3
-6 7 3 5.3 1.4
-6 7 3 0.2 2.2
5 -7 -3 0.3 1.7
5 -7 -3 -1.4 1.9
-5 7 3 -1 1.1
-5 7 3 -1.9 1.7
4 -7 -3 14.2 1.9
4 -7 -3 18.8 2.5
-4 7 3 10.4 1.7
-4 7 3 16.7 2.4
3 -7 -3 -1.3 1.2
3 -7 -3 -0.1 1
-3 7 3 -0.9 1.7
-3 7 3 0.4 1
2 -7 -3 101.79 5.8
2 -7 -3 110.09 6.7
-2 7 3 95.19 6.3
-2 7 3 105.39 6.1
1 -7 -3 14 2
-1 7 3 12.9 1.1
-1 7 3 11.9 1.7
-1 7 3 13 1.4
0 -7 -3 26 2.8
0 7 3 27.1 2.7
0 7 3 32.5 1.9
0 7 3 29.1 1.9
-1 -7 -3 14.8 1.2
-1 -7 -3 11.1 1.7
1 7 3 14.1 1.3
1 7 3 12.4 1.5
1 7 3 16 2
-2 -7 -3 59.09 4.2
-2 -7 -3 55.89 3.8
2 7 3 59.19 4.3
2 7 3 59.29 3.9
-3 -7 -3 -0.4 1.4
-3 -7 -3 1 1.3
3 7 3 -1.2 1.3
3 7 3 -0.2 1.3
-4 -7 -3 49.6 3.9
-4 -7 -3 46.6 4.1
4 7 3 49.6 4.1
4 7 3 40.8 4
-5 -7 -3 4.9 2.2
-5 -7 -3 0.6 1.7
5 7 3 5 2.1
5 7 3 4.6 1.9
-6 -7 -3 0.5 2
-6 -7 -3 -2.3 2.4
6 7 3 -2.4 2.1
6 7 3 -3.2 2.3
-7 -7 -3 3.4 2.8
-7 -7 -3 7.6 3.1
7 7 3 2 2.9
7 7 3 1.4 3.4
6 -8 -3 8.8 2.7
6 -8 -3 4.5 2.5
-6 8 3 8.1 2.8
-6 8 3 5.4 1.8
5 -8 -3 1 1.8
5 -8 -3 -3.4 2.2
-5 8 3 -1.1 2
-5 8 3 3.2 1.4
4 -8 -3 1.9 1.9
4 -8 -3 -1.4 1.4
-4 8 3 3.1 1.7
-4 8 3 -0.9 1.2
3 -8 -3 19.8 2.4
3 -8 -3 28.7 3.3
-3 8 3 20.8 2.5
2 -8 -3 7 0.9
2 -8 -3 3.2 1.5
-2 8 3 5.2 1.4
-2 8 3 7.3 1.2
1 -8 -3 70.89 5.3
-1 8 3 77.89 5.1
0 -8 -3 2.9 1.4
0 8 3 5.1 1.4
-1 -8 -3 28.7 3.2
1 8 3 29.1 3.3
1 8 3 38.2 2.3
1 8 3 39.3 2.4
-2 -8 -3 54.19 3.4
-2 -8 -3 42.5 4
2 8 3 45.6 4
2 8 3 49.3 3.4
-3 -8 -3 4.5 1.8
3 8 3 4.8 1.9
3 8 3 2.4 1.4
-4 -8 -3 1.6 1.7
4 8 3 -0.5 1.7
4 8 3 3.3 1.8
-5 -8 -3 6.1 2.1
5 8 3 4.2 2.3
5 8 3 5.7 2.1
-6 -8 -3 28.4 3.5
6 8 3 23.6 3.6
6 8 3 21.1 3.3
-7 -8 -3 8.1 3.4
7 8 3 9.8 3.9
7 8 3 13.3 3.4
6 -9 -3 43.3 5.1
-6 9 3 43.3 5.4
-6 9 3 40.6 4.2
5 -9 -3 -2.6 2.4
-5 9 3 4.5 2.7
-5 9 3 3 1.6
4 -9 -3 116.79 8.4
-4 9 3 122.99 8.2
-4 9 3 121.69 7.8
3 -9 -3 0.1 2
-3 9 3 0 1.4
2 -9 -3 205.58 12
-2 9 3 190.78 11.6
1 -9 -3 9 2.1
-1 9 3 9 1.8
0 -9 -3 137.89 8.6
0 9 3 128.99 8.4
-1 -9 -3 43.1 4.1
1 9 3 41.3 3.9
-2 -9 -3 79.09 5.5
2 9 3 71.89 4.5
2 9 3 65.59 5.5
-3 -9 -3 11.6 2.5
3 9 3 16.8 2
3 9 3 18.4 2.7
-4 -9 -3 48.4 4.4
4 9 3 48 4.8
4 9 3 36.3 4
-5 -9 -3 2.8 2.6
5 9 3 2 2.4
5 9 3 3 2.3
-6 -9 -3 13.3 3.3
6 9 3 10 3.5
6 9 3 11.5 3.2
5 -10 -3 7.9 3.3
-5 10 3 11.2 3.1
-5 10 3 7.5 2.2
4 -10 -3 59.59 5.6
-4 10 3 45.2 4.4
3 -10 -3 18.2 3
2 -10 -3 66.39 5.6
-2 10 3 72.39 5.3
1 -10 -3 13.2 2.7
-1 10 3 14.7 2.4
0 10 3 74.79 5.5
-1 -10 -3 6.1 2.3
1 10 3 2.1 2
2 10 3 69.29 5.7
-3 -10 -3 24.3 3.4
3 10 3 16.9 3.2
-4 -10 -3 37 4.6
4 10 3 32.8 4.3
-5 -10 -3 43.4 5.5
5 10 3 43.5 5.4
4 -11 -3 1.8 3.3
-4 11 3 -3.6 2.2
3 -11 -3 22 3.6
-3 11 3 15.2 2.5
2 -11 -3 6.4 2.5
-2 11 3 2.5 1.9
1 -11 -3 18.2 3.4
-1 11 3 16.5 3
0 -11 -3 7 2.7
0 11 3 0.1 2
-1 -11 -3 4.4 2.6
1 11 3 5.6 2.4
-2 -11 -3 -1.3 2.7
2 11 3 -0.8 2.4
-3 -11 -3 4.5 2.9
3 11 3 3 2.4
-4 -11 -3 4.4 3.3
4 11 3 1.8 3
-5 -11 -3 -0.3 3.4
5 11 3 -0.5 3.3
3 -12 -3 20.6 4.3
2 -12 -3 -0.6 3.1
-2 12 3 0.1 2.5
1 -12 -3 16.7 3.9
-1 12 3 16.9 3.3
0 -12 -3 2.8 3.2
0 12 3 2.9 2.3
-1 -12 -3 -3.1 3.2
1 12 3 -5.5 2.3
-2 -12 -3 29.9 4.3
2 12 3 23.3 3.9
-3 -12 -3 11.5 3.7
3 12 3 7.1 3.1
1 -13 -3 14.2 4.4
-1 13 3 17 3.2
0 -13 -3 -2.3 3.6
0 13 3 -1.3 3.2
-1 -13 -3 69.29 7.7
1 13 3 63.29 7
2 9 -4 8.1 2.6
-2 -9 4 8.7 3.7
1 9 -4 8.9 2.4
-1 -9 4 13.8 3.6
0 9 -4 3.6 2.1
0 -9 4 -0.4 3.2
-1 9 -4 29.5 3.8
1 -9 4 18.9 4.1
-2 9 -4 -1 2.2
2 -9 4 -2.7 3.5
-3 9 -4 16 2.9
3 -9 4 10 4.3
-4 -8 4 11.3 3.2
3 8 -4 61.09 5.1
-3 -8 4 66.59 6.5
2 8 -4 17.7 2.4
-2 -8 4 14.3 3.3
1 8 -4 34 3.8
-1 -8 4 32.1 4.1
0 8 -4 1.5 1.7
0 -8 4 -1.5 2.6
-1 8 -4 3.7 1.9
1 -8 4 6.8 2.8
-2 8 -4 15.6 2.3
2 -8 4 23.6 3.5
-3 8 -4 2.1 2
3 -8 4 -2.7 3
-4 8 -4 8.9 2.4
4 -8 4 10.5 3.6
-5 -7 4 4.8 3
4 7 -4 31.1 4.3
-4 -7 4 22.8 3.4
3 7 -4 25.5 3.2
3 7 -4 15.2 2.4
-3 -7 4 21.4 3.2
2 7 -4 15.5 2.2
2 7 -4 18.1 2.1
-2 -7 4 15.9 2.9
-2 -7 4 15.6 1.9
1 7 -4 45.6 3.6
1 7 -4 42.9 3.3
-1 -7 4 36.6 3.3
-1 -7 4 37.9 4.4
0 7 -4 -1.8 2.4
0 -7 4 3.1 2.6
-1 7 -4 24.5 2.8
1 -7 4 16.5 2.8
-2 7 -4 10 2
2 -7 4 18.4 3
-3 7 -4 -2 1.5
3 -7 4 1.8 3.4
-4 7 -4 2.3 1.7
4 -7 4 -0.2 2.6
-5 7 -4 3.8 2.2
5 -7 4 -1 3.2
6 6 -4 19.7 3.9
-6 -6 4 15.1 3.7
5 6 -4 -2.9 2.4
-5 -6 4 -1.6 2.3
4 6 -4 37.1 3.3
4 6 -4 39.5 4.1
-4 -6 4 31.2 4.3
3 6 -4 6.3 1.9
3 6 -4 5.1 1.5
-3 -6 4 7.7 2
2 6 -4 6.9 1.5
2 6 -4 4.9 1.5
1 6 -4 25 2.3
1 6 -4 16.5 2.2
-1 -6 4 19.5 2.6
-1 -6 4 16 1.9
0 6 -4 3.3 1.4
0 -6 4 6.4 1.7
0 -6 4 6.8 1.2
-1 6 -4 35.3 2.9
1 -6 4 31.1 3.5
1 -6 4 36.4 3
-2 6 -4 10.5 1.8
2 -6 4 10.7 2.2
2 -6 4 9.4 1.7
-3 6 -4 63.79 4.5
3 -6 4 63.39 5.2
3 -6 4 63.29 4.9
-4 6 -4 0.8 1.5
4 -6 4 -1.2 2.3
4 -6 4 -0.2 2.1
-5 6 -4 71.79 4.8
5 -6 4 56.79 5.5
5 -6 4 45.5 5.5
-6 6 -4 4 2.3
6 5 -4 10.5 3.5
-6 -5 4 8.7 3.1
5 5 -4 44.8 4.6
-5 -5 4 43.5 4.4
4 5 -4 29.2 3.4
4 5 -4 22.3 2.6
-4 -5 4 31 3.5
3 5 -4 24.6 2.8
3 5 -4 17 2.2
-3 -5 4 23.8 2.9
2 5 -4 60.29 4
2 5 -4 50.79 3.7
-2 -5 4 55.19 4.3
1 5 -4 1 0.9
1 5 -4 0.2 0.9
-1 -5 4 0.8 1.1
-1 -5 4 -0.1 0.8
0 5 -4 46.4 3.2
0 -5 4 39.8 3
0 -5 4 45.8 3.7
0 -5 4 41.7 3.4
-1 5 -4 13.8 1.8
1 -5 4 14.6 2.1
1 -5 4 16.3 2.2
1 -5 4 15.5 1.9
-2 5 -4 6.5 1.4
2 -5 4 9.4 1.8
2 -5 4 4 1.7
2 -5 4 8.4 1.5
-3 5 -4 9.4 1.6
3 -5 4 7.8 2
3 -5 4 11.7 2.1
-4 5 -4 4.5 1.4
4 -5 4 2.7 1.9
4 -5 4 1.7 1.9
-5 5 -4 2.9 1.7
5 -5 4 8 2.1
5 -5 4 2.2 2.5
-6 5 -4 0.5 1.8
6 -5 4 4.1 3.6
6 -5 4 -1.1 2.3
-7 5 -4 -2.7 2.5
7 -5 4 -6.6 3.6
7 4 -4 2.2 3.4
-7 -4 4 0.9 2.8
6 4 -4 6.2 2.8
-6 -4 4 10.4 2.4
-5 -4 4 -0.2 1.6
4 4 -4 1 1.6
4 4 -4 -0.9 0.9
-4 -4 4 -1.6 2.3
3 4 -4 3.2 0.9
3 4 -4 7.2 1.7
-3 -4 4 5.1 1.5
2 4 -4 2.5 0.9
2 4 -4 1.6 1
-2 -4 4 2.4 1.3
1 4 -4 36.1 2.7
1 4 -4 37.4 2.7
-1 -4 4 42.5 3.1
0 4 -4 26.8 2.1
0 4 -4 24.4 2.1
0 -4 4 19.8 2.3
0 -4 4 24.4 2
0 -4 4 23.6 2.4
-1 4 -4 57.19 3.6
1 -4 4 53.99 3.6
1 -4 4 54.09 3.6
1 -4 4 48.1 3.8
-2 4 -4 67.19 4.3
-2 4 -4 61.49 4
2 -4 4 59.49 4.4
2 -4 4 60.19 4.3
2 -4 4 61.29 4.2
-3 4 -4 30.5 2.5
3 -4 4 31.6 3.1
3 -4 4 24.3 2.8
-4 4 -4 29.6 2.7
4 -4 4 29.6 3.6
4 -4 4 26.4 3
-5 4 -4 8.4 1.7
-5 4 -4 9.8 1.8
5 -4 4 10.8 2.5
5 -4 4 10.5 1.8
-6 4 -4 7.7 1.9
-6 4 -4 9.5 1.9
6 -4 4 8.9 2.1
-7 4 -4 10.2 2.5
7 -4 4 5.4 3.6
7 3 -4 11.1 3.4
-7 -3 4 8.6 2.9
6 3 -4 -2.7 2.3
-6 -3 4 2.4 2.1
5 3 -4 4.2 2
-5 -3 4 4.2 1.7
4 3 -4 2 1.4
4 3 -4 1.7 0.8
-4 -3 4 3.2 1.3
3 3 -4 0.4 1.5
3 3 -4 0.9 1.2
-3 -3 4 -1.2 1.1
-3 -3 4 1.1 1.2
2 3 -4 7.3 1.3
2 3 -4 6.6 0.9
-2 -3 4 7.8 1.4
-2 -3 4 4.6 1.2
1 3 -4 0.6 0.6
1 3 -4 -0.5 0.8
-1 -3 4 -0.2 1.1
-1 -3 4 -0.8 0.8
-1 -3 4 2 1.2
0 3 -4 139.69 8.2
0 3 -4 153.38 8.1
0 -3 4 137.39 8.2
0 -3 4 146.89 8.3
0 -3 4 141.59 8.1
-1 3 -4 6.5 1
1 -3 4 4.5 0.9
1 -3 4 2.6 1
1 -3 4 3.6 1.2
-2 3 -4 237.38 12.7
-2 3 -4 228.68 12.6
-2 3 -4 222.48 12.6
2 -3 4 230.58 12.7
2 -3 4 222.98 12.8
2 -3 4 225.28 12.7
-3 3 -4 5.1 1
3 -3 4 4.8 1.2
3 -3 4 5.7 1.5
-4 3 -4 58.69 3.8
4 -3 4 50.49 3.9
4 -3 4 59.59 4.6
-5 3 -4 -2.8 1.1
-5 3 -4 -0.6 1.2
5 -3 4 1.4 2.1
5 -3 4 -1.3 1.2
-6 3 -4 1.8 1.4
-6 3 -4 2.7 1.6
6 -3 4 -0.6 3
-7 3 -4 -2.7 1.9
7 -3 4 -1.7 3.2
7 2 -4 8.1 3
-7 -2 4 12.9 2.8
6 2 -4 2.5 2.5
-6 -2 4 2.3 1.7
5 2 -4 -1 1.7
-5 -2 4 -0.2 1.2
4 2 -4 5.8 1.6
4 2 -4 6.6 0.8
4 2 -4 5.3 0.9
-4 -2 4 7 1.5
3 2 -4 6.6 1.5
3 2 -4 4.3 1.2
3 2 -4 5.7 0.7
-3 -2 4 7.1 1.1
-3 -2 4 6.3 1.2
2 2 -4 33.5 2.7
2 2 -4 36.3 2.3
-2 -2 4 34.7 2.7
-2 -2 4 39.2 2.6
1 2 -4 1.1 0.7
1 2 -4 1 0.5
-1 -2 4 2.3 1.1
-1 -2 4 1.2 0.8
-1 -2 4 -0.2 0.7
0 2 -4 171.08 9.1
0 2 -4 170.88 9.2
0 -2 4 158.88 9.2
0 -2 4 153.18 9.2
0 -2 4 166.88 9.2
-1 2 -4 2.3 0.7
-1 2 -4 2.9 0.8
1 -2 4 1.7 0.8
1 -2 4 3.3 0.9
1 -2 4 2.7 0.9
-2 2 -4 372.06 20
-2 2 -4 342.17 19.9
-2 2 -4 383.86 19.9
2 -2 4 357.96 20.2
2 -2 4 370.56 20.1
2 -2 4 385.26 20
-3 2 -4 7.3 1.1
-3 2 -4 9.8 1.4
3 -2 4 10 1.7
3 -2 4 8.7 1.3
-4 2 -4 354.56 20.9
-4 2 -4 425.96 20.9
4 -2 4 370.86 21.5
-5 2 -4 58.89 3.9
-5 2 -4 60.09 4.2
5 -2 4 63.69 3.9
5 -2 4 63.09 5.3
-6 2 -4 170.58 10
-6 2 -4 185.98 10.4
6 -2 4 178.98 11.5
-7 2 -4 25.4 3.3
7 -2 4 31.2 4.3
-8 2 -4 41.2 4.9
8 -2 4 43.3 5.6
7 1 -4 -4.3 2.6
-7 -1 4 1.2 2.2
6 1 -4 2.9 2.4
-6 -1 4 5.4 1.9
5 1 -4 15.9 2.5
-5 -1 4 17.5 2.1
4 1 -4 0.4 1.3
-4 -1 4 3.7 1.1
3 1 -4 12.6 1.8
3 1 -4 11.2 0.8
3 1 -4 12.2 1.2
-3 -1 4 9.3 1.3
2 1 -4 49.7 3.3
2 1 -4 42.7 2.7
-2 -1 4 47.6 3.1
-2 -1 4 49.3 2.9
1 1 -4 494.25 26.1
1 1 -4 490.35 26.3
1 1 -4 488.05 26.4
-1 -1 4 456.45 26.3
-1 -1 4 492.35 26.2
-1 -1 4 524.75 26.5
0 1 -4 101.39 5.6
0 1 -4 105.09 5.6
0 1 -4 93.19 5.7
0 -1 4 103.69 5.6
0 -1 4 88.89 5.7
0 -1 4 95.19 5.7
0 -1 4 103.89 5.7
-1 1 -4 926.91 45.5
-1 1 -4 914.71 45.7
-1 1 -4 757.82 45.5
1 -1 4 821.82 45.9
1 -1 4 941.41 45.7
1 -1 4 730.33 45.5
1 -1 4 908.31 45.6
-2 1 -4 67.99 3.7
-2 1 -4 56.69 3.8
-2 1 -4 61.69 4
2 -1 4 62.89 4.1
2 -1 4 61.29 4.1
2 -1 4 65.79 3.8
-3 1 -4 218.98 11.9
-3 1 -4 203.88 12
3 -1 4 205.68 12.4
3 -1 4 241.18 11.9
-4 1 -4 76.39 4.8
-4 1 -4 77.29 4.9
-4 1 -4 79.69 4.6
4 -1 4 81.49 4.6
4 -1 4 79.39 5.6
-5 1 -4 6 1.7
-5 1 -4 7.2 1.3
-5 1 -4 8.1 1.4
5 -1 4 10.6 2.4
-6 1 -4 94.79 6
-6 1 -4 94.89 5.6
6 -1 4 92.39 7.3
-7 1 -4 3.9 1.9
7 -1 4 2.1 3.1
-8 1 -4 78.59 5.9
8 -1 4 66.29 7.6
8 0 -4 -1.3 3.7
-8 0 4 4.9 2.8
7 0 -4 -4.9 2.7
-7 0 4 5.2 2.1
6 0 -4 3.6 2.3
-6 0 4 7.1 2
5 0 -4 20 2.8
-5 0 4 19.7 2.6
4 0 -4 39 3.4
-4 0 4 43.4 3.1
3 0 -4 3.3 1
-3 0 4 3.2 0.9
2 0 -4 16.5 1.7
2 0 -4 17.3 1.1
-2 0 4 13 1.4
-2 0 4 17.3 1.1
1 0 -4 102.39 5.7
1 0 -4 92.49 5.8
1 0 -4 95.59 5.4
-1 0 4 101.79 5.9
-1 0 4 100.99 5.5
-1 0 4 102.39 5.6
0 0 -4 5.1 0.7
0 0 -4 6.3 0.7
0 0 -4 5.1 0.9
0 0 4 5.6 0.9
0 0 4 5.3 0.7
0 0 4 4.3 0.6
0 0 4 5 0.8
-1 0 -4 13.7 1.2
-1 0 -4 14 1
-1 0 -4 12.9 1.4
1 0 4 12.4 1.5
1 0 4 12.2 1.4
1 0 4 13.6 1
1 0 4 12.3 1.1
-2 0 -4 8 1
-2 0 -4 6.8 1.2
-2 0 -4 7.8 0.7
2 0 4 7.2 1.2
2 0 4 6.8 0.8
2 0 4 7.1 1
-3 0 -4 47.2 2.7
-3 0 -4 42 3
-3 0 -4 46.7 2.7
3 0 4 46.4 3.5
3 0 4 46.2 2.7
-4 0 -4 0.2 0.5
-4 0 -4 0.1 0.7
-4 0 -4 -0.6 0.9
4 0 4 0.2 1.2
-5 0 -4 30.3 2.2
-5 0 -4 29.4 2.8
-5 0 -4 28.6 2.6
5 0 4 32.1 3.7
-6 0 -4 2.9 1
-6 0 -4 1.7 1.4
6 0 4 1.4 2.4
7 0 4 3.9 3.1
-8 0 -4 13.1 2.8
8 0 4 13.5 3.8
8 -1 -4 -3.5 3.7
-8 1 4 0.3 2.8
7 -1 -4 21 4
-7 1 4 21.2 2.8
6 -1 -4 1.7 2.2
-6 1 4 2.6 1.6
5 -1 -4 21.5 2.8
-5 1 4 22.6 2.5
4 -1 -4 11.8 1.9
-4 1 4 16 1.7
3 -1 -4 0.7 0.8
-3 1 4 -0.9 0.7
2 -1 -4 355.76 17.2
2 -1 -4 291.27 17.7
-2 1 4 326.77 17.1
-2 1 4 318.87 17.5
1 -1 -4 0.9 0.6
1 -1 -4 0.7 0.4
-1 1 4 1.3 0.3
-1 1 4 1.3 0.9
-1 1 4 0.2 0.4
0 -1 -4 587.14 31.2
0 -1 -4 544.65 31.3
0 -1 -4 587.74 31.1
0 1 4 592.44 31.1
0 1 4 604.24 31.4
0 1 4 569.54 31.3
0 1 4 615.84 31.1
-1 -1 -4 18.9 1.6
-1 -1 -4 17 1.4
-1 -1 -4 18 1.1
1 1 4 17.1 1.6
1 1 4 16.8 1.1
1 1 4 16.8 1.3
1 1 4 17 1.5
-2 -1 -4 35.9 2.5
-2 -1 -4 37.4 2.7
2 1 4 40.6 2.5
2 1 4 34.9 2.6
-3 -1 -4 22.9 1.8
3 1 4 19.6 2.3
-4 -1 -4 10.7 0.9
-4 -1 -4 9.8 1.3
-4 -1 -4 6.9 1.2
4 1 4 9.8 1.9
-5 -1 -4 1.7 1.3
-5 -1 -4 0.7 0.7
-5 -1 -4 2.6 1.1
5 1 4 1.9 1.8
-6 -1 -4 2.1 1.4
-6 -1 -4 0.7 0.9
6 1 4 -2.5 1.8
-7 -1 -4 9.7 2.2
7 1 4 6.1 3.2
-8 -1 -4 15 3.1
8 1 4 7.2 3.8
8 -2 -4 -6.3 3.2
-8 2 4 3.2 2.4
7 -2 -4 168.28 11.4
-7 2 4 174.78 10.5
6 -2 -4 -1.6 1.9
-6 2 4 3.2 1.4
5 -2 -4 346.37 19.8
-5 2 4 351.26 19.3
4 -2 -4 7.8 1.6
-4 2 4 11.8 1.5
3 -2 -4 570.84 30.4
-3 2 4 552.94 30.2
2 -2 -4 177.28 9.9
2 -2 -4 158.78 9.9
-2 2 4 181.08 9.5
-2 2 4 183.98 9.4
-2 2 4 188.08 10
-2 2 4 177.28 10
-2 2 4 165.98 9.8
1 -2 -4 594.54 31.5
1 -2 -4 553.44 31.4
-1 2 4 622.04 31.4
-1 2 4 546.15 31.1
-1 2 4 626.84 31.5
-1 2 4 583.74 31.3
0 -2 -4 233.38 13.5
0 -2 -4 252.07 13.5
0 -2 -4 254.27 13.7
0 2 4 244.68 13.6
0 2 4 257.17 13.7
0 2 4 252.67 13.4
0 2 4 255.67 13.5
0 2 4 251.47 13.5
-1 -2 -4 136.69 7.5
-1 -2 -4 129.59 7.4
1 2 4 129.89 7.5
1 2 4 132.29 7.1
1 2 4 140.09 7.6
1 2 4 129.49 7.4
-2 -2 -4 20.5 1.9
-2 -2 -4 18.5 1.6
2 2 4 21.1 1.6
2 2 4 19.1 1.8
-3 -2 -4 0.6 0.6
3 2 4 1.4 0.9
-4 -2 -4 7.8 1.2
-4 -2 -4 9.1 1.2
-4 -2 -4 6.6 0.9
4 2 4 7.4 1.6
-5 -2 -4 23.5 1.8
-5 -2 -4 25 2.4
-5 -2 -4 19.4 2.4
5 2 4 21.8 3
-6 -2 -4 22.1 2.9
-6 -2 -4 22.7 2
6 2 4 18 3.3
-7 -2 -4 29 3.3
7 2 4 25 3.9
-8 -2 -4 6.3 3.4
8 2 4 13.1 3.6
8 -3 -4 -1.5 3.7
-8 3 4 -0.4 2.5
7 -3 -4 64.49 6.4
-7 3 4 78.79 5.5
6 -3 -4 -0.2 2.2
-6 3 4 1.5 1.5
5 -3 -4 266.97 15.6
-5 3 4 274.47 15.3
4 -3 -4 -0.4 1
-4 3 4 0.8 0.3
-4 3 4 1.3 0.9
3 -3 -4 543.35 32.2
-3 3 4 644.74 31.7
-3 3 4 624.84 31.6
-3 3 4 571.24 32.1
2 -3 -4 27 2.1
-2 3 4 26 2.4
-2 3 4 27.7 1.8
-2 3 4 21.2 2
-2 3 4 27.4 1.8
1 -3 -4 703.93 36.6
1 -3 -4 660.83 36.7
1 -3 -4 698.43 36.6
-1 3 4 672.83 36.6
-1 3 4 708.83 36.7
-1 3 4 661.13 36.5
-1 3 4 715.73 36.7
-1 3 4 675.23 36.5
0 -3 -4 69.89 4.2
0 -3 -4 72.49 4
0 3 4 67.89 4.1
0 3 4 68.49 4
0 3 4 69.09 4
0 3 4 66.19 4.1
0 3 4 69.99 4.1
-1 -3 -4 194.68 10.6
-1 -3 -4 191.18 10.4
-1 -3 -4 189.08 10.6
1 3 4 195.98 10.4
1 3 4 191.58 10.7
1 3 4 192.88 10.5
1 3 4 188.68 10.6
-2 -3 -4 2.1 0.7
-2 -3 -4 0.6 0.9
-2 -3 -4 0.7 0.5
2 3 4 1 0.6
2 3 4 1.7 0.8
2 3 4 0.8 0.3
-3 -3 -4 18.8 1.4
-3 -3 -4 17 1.8
3 3 4 17.3 1.2
3 3 4 13.1 1.8
-4 -3 -4 2 1
-4 -3 -4 1.9 0.6
4 3 4 0.4 0.7
4 3 4 -0.4 1.3
-5 -3 -4 5.7 0.9
-5 -3 -4 3.1 1.5
-5 -3 -4 4.8 1.3
5 3 4 1.8 1.6
5 3 4 3.1 1.1
-6 -3 -4 3.4 1.8
-6 -3 -4 4 1.1
6 3 4 3 2.3
-7 -3 -4 0.4 2.2
7 3 4 6.5 2.7
-8 -3 -4 4.5 3.4
8 3 4 0.6 3.3
8 -4 -4 1.4 3.7
7 -4 -4 -2.5 2.6
-7 4 4 0.3 2
6 -4 -4 0 2
-6 4 4 2.8 1.7
5 -4 -4 4.6 1.7
-5 4 4 5.1 0.7
-5 4 4 4 1.5
4 -4 -4 2.2 1.3
4 -4 -4 4.7 1.1
-4 4 4 4.1 1.2
-4 4 4 1.2 1.1
-4 4 4 3.5 0.6
3 -4 -4 5.3 1
3 -4 -4 4.5 1.1
-3 4 4 2.6 0.9
-3 4 4 6.1 1.1
-3 4 4 5 0.8
2 -4 -4 23.6 2
2 -4 -4 24.5 2
-2 4 4 21.3 2
-2 4 4 26.8 1.8
-2 4 4 25.4 2.3
-2 4 4 19.6 1.9
1 -4 -4 -0.1 0.6
1 -4 -4 -0.5 0.7
1 -4 -4 -0.5 0.6
-1 4 4 0.5 0.7
-1 4 4 0.8 0.8
-1 4 4 0.1 0.6
-1 4 4 0 0.9
-1 4 4 0.7 0.6
0 -4 -4 62.09 3.8
0 -4 -4 59.39 3.8
0 4 4 70.99 3.8
0 4 4 62.09 3.7
0 4 4 60.19 3.8
0 4 4 58.79 3.8
0 4 4 59.29 3.9
-1 -4 -4 -0.3 0.7
-1 -4 -4 0.4 0.6
-1 -4 -4 -0.4 0.6
1 4 4 -0.3 0.8
1 4 4 0.5 0.7
1 4 4 1 0.6
1 4 4 0.9 0.7
-2 -4 -4 18.2 1.5
-2 -4 -4 16.1 1.6
-2 -4 -4 13.5 1.7
2 4 4 16.4 1.4
2 4 4 15.9 1.7
-3 -4 -4 6.1 1
-3 -4 -4 5.7 1.3
3 4 4 4.6 0.7
3 4 4 3 1.3
-4 -4 -4 44.4 3.4
-4 -4 -4 42.9 2.9
4 4 4 44.4 2.8
4 4 4 42.5 3.7
-5 -4 -4 10.6 1.4
-5 -4 -4 9 2
5 4 4 10.4 1.5
5 4 4 10.5 2.3
-6 -4 -4 22 2.8
-6 -4 -4 15.3 1.8
6 4 4 14.3 3.3
-7 -4 -4 5.4 2.8
7 4 4 1.9 2.7
-8 -4 -4 1.2 3.6
8 4 4 5.9 4
7 -5 -4 6.7 2.9
-7 5 4 4.8 2.4
6 -5 -4 -3.8 1.9
-6 5 4 2.2 1.7
5 -5 -4 13.4 2.1
-5 5 4 10.3 1.9
-5 5 4 11.1 1.3
4 -5 -4 1.1 1.4
4 -5 -4 0.4 1.2
-4 5 4 2 1.6
-4 5 4 -0.8 1.1
-4 5 4 1.9 0.7
3 -5 -4 3.5 1.2
3 -5 -4 3.4 1.1
3 -5 -4 3.6 1
-3 5 4 2 1.3
-3 5 4 4.3 1.4
-3 5 4 2 0.9
2 -5 -4 37.4 2.8
2 -5 -4 38.7 2.9
2 -5 -4 37.8 2.6
-2 5 4 36.4 2.9
-2 5 4 31.2 2.8
-2 5 4 34.2 2.7
-2 5 4 36.8 2.9
1 -5 -4 44 3.6
1 -5 -4 58.29 3.4
-1 5 4 55.99 3.5
-1 5 4 66.29 3.8
-1 5 4 52.29 3.5
0 -5 -4 35.2 2.4
0 -5 -4 35.9 2.8
0 -5 -4 33.2 2.6
0 5 4 35.8 2.6
0 5 4 33.5 2.8
0 5 4 37.9 2.4
0 5 4 38.8 2.4
0 5 4 33.7 2.7
-1 -5 -4 198.18 10.7
-1 -5 -4 182.78 10.9
-1 -5 -4 202.38 10.6
1 5 4 199.98 10.7
1 5 4 186.48 10.6
1 5 4 188.88 10.6
1 5 4 181.48 10.8
-2 -5 -4 98.39 5.6
-2 -5 -4 92.09 5.7
-2 -5 -4 89.09 5.9
2 5 4 93.69 5.8
2 5 4 99.99 5.5
-3 -5 -4 81.49 5.4
-3 -5 -4 86.19 5.2
3 5 4 86.79 4.8
3 5 4 72.99 5.4
-4 -5 -4 126.29 7.5
-4 -5 -4 129.99 8.1
4 5 4 134.49 7.4
4 5 4 134.89 8.4
-5 -5 -4 19.6 2.1
-5 -5 -4 14 2.3
5 5 4 16.1 2.8
-6 -5 -4 27.3 2.9
-6 -5 -4 37.3 4.1
7 5 4 -3.4 2.5
-8 -5 -4 7.6 4
8 5 4 0.3 3.9
7 -6 -4 -3.6 2.5
-7 6 4 0.4 2.4
6 -6 -4 44 5
-6 6 4 46.1 4.4
5 -6 -4 -1.2 1.7
-5 6 4 -1.2 0.8
4 -6 -4 30.7 3
4 -6 -4 31.7 3.1
-4 6 4 33.8 3
-4 6 4 33 2.5
3 -6 -4 8.7 1.5
3 -6 -4 7.8 1.5
-3 6 4 7.9 1.5
-3 6 4 7.7 1.3
2 -6 -4 0.7 0.8
2 -6 -4 2.2 1
-2 6 4 -0.4 1.2
-2 6 4 1.4 1
1 -6 -4 60.29 3.9
1 -6 -4 56.89 3.5
-1 6 4 58.69 3.4
-1 6 4 54.59 3.6
-1 6 4 50.89 3.8
0 -6 -4 -0.8 0.9
0 6 4 0.5 0.7
0 6 4 1 0.6
0 6 4 0.3 1
-1 -6 -4 1.5 0.9
-1 -6 -4 0.5 0.9
-1 -6 -4 0.8 0.7
1 6 4 0.3 0.8
1 6 4 0.1 1.1
1 6 4 1.5 0.7
1 6 4 1.5 1
-2 -6 -4 25 2.2
-2 -6 -4 22.2 2.6
-2 -6 -4 24.8 2.3
2 6 4 24.5 2.3
2 6 4 24 2.5
2 6 4 24.3 2.2
-3 -6 -4 61.69 4.4
-3 -6 -4 61.99 4.1
3 6 4 64.29 4.3
3 6 4 59.49 4.3
3 6 4 55.69 4.3
-4 -6 -4 2.7 1.6
-4 -6 -4 -0.4 1.1
4 6 4 0 1.3
4 6 4 2.3 1.6
-5 -6 -4 19.9 2.5
-5 -6 -4 24.9 3.1
5 6 4 21.7 3.2
5 6 4 22.6 2.9
-6 -6 -4 27.3 3.5
-6 -6 -4 19.2 2.4
6 6 4 18.3 3.3
6 6 4 23 2.9
-7 -6 -4 -1.4 3.1
7 6 4 -0.6 2.6
7 6 4 -1.8 3
-8 -6 -4 22.8 4.5
8 6 4 16.7 4.5
8 6 4 25.2 4.3
7 -7 -4 0.9 3
-7 7 4 3.8 2.6
6 -7 -4 -0.2 2.3
-6 7 4 -1 2.2
5 -7 -4 4 2
5 -7 -4 0.6 1.7
-5 7 4 2.6 2
-5 7 4 4.8 1.2
4 -7 -4 10 2.1
4 -7 -4 11.8 1.9
-4 7 4 11.6 1.5
-4 7 4 9.9 2.1
3 -7 -4 27 3
3 -7 -4 30 2.6
-3 7 4 26.8 2.6
-3 7 4 33.4 3.1
2 -7 -4 1.1 0.9
2 -7 -4 1.6 1.3
-2 7 4 1.1 1.1
-2 7 4 -0.7 1.3
1 -7 -4 37.2 2.5
1 -7 -4 38.1 3
-1 7 4 37.7 2.7
-1 7 4 34.5 2.9
-1 7 4 34 2.4
0 -7 -4 36.6 3.1
0 7 4 37.8 3.1
0 7 4 38.3 2.5
0 7 4 37.5 2.5
-1 -7 -4 28 2.8
1 7 4 31.6 2.4
1 7 4 28.6 2.2
1 7 4 25.1 2.6
-2 -7 -4 73.99 4.8
-2 -7 -4 73.09 5
-2 -7 -4 75.29 4.6
2 7 4 67.29 4.9
2 7 4 68.79 4.7
-3 -7 -4 104.19 6.6
-3 -7 -4 99.79 6.9
3 7 4 109.79 6.7
3 7 4 111.39 6.9
-4 -7 -4 17.5 2.6
-4 -7 -4 16.6 2.1
4 7 4 10.7 2.2
4 7 4 9.8 2
-5 -7 -4 8.1 2
-5 -7 -4 7.6 2.7
5 7 4 8.9 2.3
5 7 4 10.5 2.4
-6 -7 -4 2.3 2.6
-6 -7 -4 -1.4 2
6 7 4 -0.7 2.5
6 7 4 -0.6 2.7
-7 -7 -4 6.9 3.5
7 7 4 3.4 3.4
7 7 4 2.6 2.8
6 -8 -4 1.4 3.5
-6 8 4 -2.3 2.4
5 -8 -4 1.9 2.4
5 -8 -4 -2.2 1.8
-5 8 4 2.4 1.4
-5 8 4 -0.1 2.1
4 -8 -4 9 2.2
4 -8 -4 6.8 1.7
-4 8 4 10.9 2.3
-4 8 4 9.9 1.6
3 -8 -4 19.2 2.1
3 -8 -4 16.6 2.4
-3 8 4 21.4 2.4
2 -8 -4 36.4 3.7
2 -8 -4 37.1 2.7
-2 8 4 45 3.3
-2 8 4 33.4 3.2
1 -8 -4 17.3 2.5
-1 8 4 23.5 2.2
-1 8 4 21.1 2.6
-1 8 4 23.8 1.7
0 -8 -4 32.4 3.1
0 8 4 37.5 3.1
0 8 4 31.9 2.3
0 8 4 34 2.4
-1 -8 -4 8.7 1.8
1 8 4 9.4 1.9
1 8 4 10 1.4
1 8 4 8.7 1.4
-2 -8 -4 1.9 1.1
-2 -8 -4 0.3 1.4
2 8 4 1.9 1.5
2 8 4 0.7 1.2
-3 -8 -4 21 2.9
-3 -8 -4 23.3 2.6
3 8 4 20.3 2.8
3 8 4 20 2.8
-4 -8 -4 5.9 1.8
-4 -8 -4 7.8 2.1
4 8 4 6.6 1.9
4 8 4 2.5 1.8
-5 -8 -4 -2.4 2
5 8 4 0.1 2.2
-6 -8 -4 0.4 2.5
-6 -8 -4 3.4 2.9
6 8 4 0.3 2.5
6 8 4 4.3 2.9
-7 -8 -4 14.4 3.9
7 8 4 10.3 3.6
7 8 4 11.7 3.8
6 -9 -4 0.5 3.1
-6 9 4 -4 2.7
5 -9 -4 4.5 2.9
-5 9 4 3.3 2.5
-5 9 4 5.8 2
4 -9 -4 4.9 2.5
-4 9 4 5.2 2.3
-4 9 4 2.4 1.5
3 -9 -4 -0.6 1.9
3 -9 -4 0.4 1.1
-3 9 4 0.4 1.4
2 -9 -4 10.5 1.3
2 -9 -4 5.5 2.1
-2 9 4 10.3 1.8
-2 9 4 9.6 1.1
1 -9 -4 7.3 2.1
-1 9 4 5.6 1.6
0 -9 -4 3.1 1.6
0 9 4 1.3 1.5
-1 -9 -4 13.3 2.3
1 9 4 19 1.8
1 9 4 15.1 1.6
1 9 4 17.5 2.4
-2 -9 -4 1 1.6
2 9 4 3.7 1.9
2 9 4 3.7 1.4
-3 -9 -4 2.4 1.9
3 9 4 1.6 1.4
3 9 4 0.5 1.9
-4 -9 -4 39.7 4.2
4 9 4 41.1 4.4
4 9 4 32.8 4
-5 -9 -4 9.7 2.7
5 9 4 7.1 2.6
5 9 4 6.7 2.8
-6 -9 -4 70.09 6.7
6 9 4 82.29 7
6 9 4 88.29 7.3
5 -10 -4 -2.5 3
-5 10 4 -0.1 2.1
-5 10 4 -0.3 2.8
4 -10 -4 6.1 2.5
-4 10 4 7.3 2.8
-4 10 4 3.3 1.9
3 -10 -4 0.7 2.5
-3 10 4 2.3 1.8
2 -10 -4 0.4 2.2
-2 10 4 4.6 3.4
1 -10 -4 3.6 2.5
0 -10 -4 46.7 4.3
-1 -10 -4 31.5 3.9
1 10 4 20.6 3.3
-2 -10 -4 120.09 8.4
2 10 4 131.99 8.6
-3 -10 -4 31.4 4.1
3 10 4 30.2 3.7
-4 -10 -4 84.99 7
4 10 4 95.29 7.1
-5 -10 -4 15 3.2
5 10 4 12.3 3.3
-6 -10 -4 52.49 6.3
6 10 4 54.59 6.5
4 -11 -4 2.3 3.2
-4 11 4 -2.6 2.7
-4 11 4 0.7 2.2
3 -11 -4 12.7 3.5
-3 11 4 11.5 2.4
2 -11 -4 4 2.5
-2 11 4 8.5 2.5
1 -11 -4 7.9 2.7
-1 11 4 8 2.3
0 -11 -4 3.9 2.6
0 11 4 6.3 2
-1 -11 -4 -2.5 2.5
1 11 4 2.1 2.3
-2 -11 -4 12.1 3
2 11 4 6.2 2.9
-3 -11 -4 14.3 3.2
3 11 4 11.2 3
-4 -11 -4 22 3.7
4 11 4 23.2 4
-5 -11 -4 6.9 3.7
5 11 4 0.2 3.5
3 -12 -4 -0.2 3.5
-3 12 4 5.1 2.5
2 -12 -4 -4.1 2.7
-2 12 4 3.2 2.5
1 -12 -4 -0.3 2.9
-1 12 4 -4.1 2.3
0 -12 -4 1.7 2.9
0 12 4 -2.1 2.6
-1 -12 -4 15.5 3.6
1 12 4 7.8 2.7
-2 -12 -4 13.7 3.6
2 12 4 4.1 3.3
-3 -12 -4 5.5 3.5
3 12 4 10.1 3.3
-4 -12 -4 12.4 4.1
4 12 4 6.8 3.6
1 -13 -4 45.9 5.6
-1 13 4 41.4 4.9
0 -13 -4 23 4.2
0 13 4 16.6 3.9
-1 -13 -4 3.7 3.7
1 13 4 -5.3 2.8
-2 -13 -4 35 5.3
2 13 4 34.8 4.8
0 9 -5 35.2 3.9
0 -9 5 36.4 5.2
-1 9 -5 32 4.3
1 -9 5 35.3 5.1
-3 -8 5 8.7 3.7
2 8 -5 38.8 3.7
-2 -8 5 22.7 4.2
1 8 -5 34.4 3.9
-1 -8 5 22.6 3.9
0 8 -5 98.19 6.6
0 -8 5 90.49 7.8
-1 8 -5 16 2.7
1 -8 5 15 3.5
-2 8 -5 77.99 6.3
2 -8 5 109.39 8
-3 8 -5 7.5 2.3
3 -8 5 10.8 3.8
-4 -7 5 7.1 3.2
3 7 -5 18.7 2.4
-3 -7 5 14.1 3.2
2 7 -5 -1.9 2.5
-2 -7 5 -1.2 2.5
1 7 -5 4 1.7
-1 -7 5 1.5 2.1
0 7 -5 1.9 1.6
0 -7 5 2.9 2.2
-1 7 -5 64.49 4.7
1 -7 5 57.39 5.5
-2 7 -5 -1.1 1.7
2 -7 5 1.1 2.6
-3 7 -5 60.79 4.8
3 -7 5 66.09 6
-4 7 -5 6 2.3
4 -7 5 1.3 3.1
-5 7 -5 15.5 2.9
5 6 -5 2.4 3
-5 -6 5 -6.5 2.4
-4 -6 5 3.8 2.3
3 6 -5 0.5 2
3 6 -5 4.5 1.5
-3 -6 5 1.3 2.2
2 6 -5 1.4 1.5
2 6 -5 0.8 1.3
-2 -6 5 0.7 1.7
-2 -6 5 0.3 1.3
1 6 -5 8.8 1.7
1 6 -5 9 1.6
-1 -6 5 7 1.4
-1 -6 5 8.3 2.3
0 6 -5 -0.3 1.3
0 -6 5 0.8 1.2
0 -6 5 -0.6 1.9
1 -6 5 14.4 2.5
1 -6 5 11.3 2
-2 6 -5 1 1.5
2 -6 5 -2.3 2.1
2 -6 5 2.3 1.8
-3 6 -5 1.8 1.4
3 -6 5 -2.4 2.1
3 -6 5 2.6 2.2
-4 6 -5 0.7 1.7
4 -6 5 0.5 2.6
-5 6 -5 5.2 2.3
5 -6 5 -0.7 2.9
6 5 -5 60.89 6.6
-6 -5 5 54.89 6.3
5 5 -5 24.4 3.7
-5 -5 5 20.1 3.5
4 5 -5 23.7 3.2
-4 -5 5 19.9 3
3 5 -5 55.09 3.6
3 5 -5 51.49 4.4
-3 -5 5 43.2 4.3
2 5 -5 6.3 1.3
2 5 -5 4.1 1.5
-2 -5 5 1.9 1.5
1 5 -5 83.19 5.7
1 5 -5 96.49 5.7
-1 -5 5 90.99 5.6
-1 -5 5 95.19 6.2
0 5 -5 72.29 4.5
0 -5 5 66.69 5
0 -5 5 60.29 4.3
-1 5 -5 65.89 4.3
1 -5 5 66.19 4.4
1 -5 5 55.19 4.6
-2 5 -5 75.09 5.1
2 -5 5 79.99 5.5
2 -5 5 81.59 5.6
-3 5 -5 7.5 1.6
3 -5 5 9.8 2.2
3 -5 5 7.9 2.2
-4 5 -5 37.1 3.6
4 -5 5 43 4.6
4 -5 5 35.5 4.2
-5 5 -5 4.5 2
5 -5 5 7.7 2.9
5 -5 5 1.4 2.2
-6 5 -5 14 2.8
6 -5 5 8 3.9
6 4 -5 49 5.6
-6 -4 5 45.6 5.4
5 4 -5 1.4 2.1
-5 -4 5 3.9 2
4 4 -5 40.5 3.9
-4 -4 5 39.8 4
3 4 -5 13.5 1.7
3 4 -5 16.4 2.2
-3 -4 5 13.3 2.1
2 4 -5 29.3 2.4
2 4 -5 33.8 3.1
-2 -4 5 33.2 3.2
1 4 -5 11.6 1.6
1 4 -5 13.9 1.8
-1 -4 5 12.2 1.8
-1 -4 5 13.4 1.7
0 4 -5 6.4 1.3
0 4 -5 6.1 1.1
0 -4 5 4.4 1.4
0 -4 5 4 1.1
-1 4 -5 2.7 1
1 -4 5 5.5 1.4
1 -4 5 2.5 1.1
-2 4 -5 3.4 1.1
2 -4 5 2.5 1.3
2 -4 5 3.1 1.4
-3 4 -5 3.6 1.2
3 -4 5 3.8 1.7
3 -4 5 3.6 1.7
-4 4 -5 6 1.6
4 -4 5 5.2 2
4 -4 5 10.4 2.3
-5 4 -5 11.9 2.2
-5 4 -5 9.6 1.9
5 -4 5 14.2 2.2
5 -4 5 13.7 3.1
-6 4 -5 3.2 1.9
6 -4 5 0.3 3.2
-7 4 -5 1.6 2.2
7 -4 5 6.3 3.8
6 3 -5 3.5 2.5
-6 -3 5 3.5 3.6
5 3 -5 1.9 2
-5 -3 5 5.7 1.8
4 3 -5 1.2 0.8
4 3 -5 0.9 1.5
-4 -3 5 0.5 2.6
3 3 -5 28.8 2.2
3 3 -5 32.1 3.1
-3 -3 5 33.1 3.2
-3 -3 5 36.9 3.1
2 3 -5 -2 1.1
2 3 -5 1.9 0.7
-2 -3 5 1.6 1.2
1 3 -5 13.3 1.5
1 3 -5 16.4 1.9
-1 -3 5 15.3 2
0 3 -5 0 0.7
0 3 -5 -0.4 0.9
0 -3 5 -0.5 0.8
0 -3 5 -0.5 0.9
-1 3 -5 -0.9 0.6
1 -3 5 0.1 0.9
1 -3 5 -0.2 1
-2 3 -5 1.2 0.9
2 -3 5 1.3 1.1
2 -3 5 1.8 1.2
-3 3 -5 1.4 1
3 -3 5 2 1.5
3 -3 5 -1.3 1.3
-4 3 -5 0.4 1.1
4 -3 5 1.3 1.8
4 -3 5 -2.1 1.3
-5 3 -5 7 1.5
-5 3 -5 6 1.4
5 -3 5 8.3 2.6
5 -3 5 7.8 1.6
-6 3 -5 -1.5 1.8
6 -3 5 -0.2 2.9
-7 3 -5 -2.8 2.1
7 -3 5 -2.8 3.6
7 2 -5 -5.4 3.3
-7 -2 5 7.9 2.8
6 2 -5 -1.1 2.4
-6 -2 5 -0.7 1.9
5 2 -5 18.3 2.7
-5 -2 5 15.4 2.5
4 2 -5 0.6 0.5
4 2 -5 -1.8 1.6
-4 -2 5 1.5 1.3
3 2 -5 24.2 2.7
3 2 -5 20.9 1.6
-3 -2 5 24.8 2.4
-3 -2 5 23 2.2
2 2 -5 19.1 1.5
2 2 -5 15.1 2.1
-2 -2 5 17.5 2
-2 -2 5 17.7 2
1 2 -5 2.5 0.9
1 2 -5 2.1 0.6
-1 -2 5 4.5 1.1
-1 -2 5 3 0.9
0 2 -5 93.09 5.6
0 2 -5 96.69 5.3
0 -2 5 89.79 5.5
0 -2 5 89.49 5.5
-1 2 -5 -0.4 0.8
-1 2 -5 0 0.7
1 -2 5 0.2 0.8
1 -2 5 0.8 0.8
-2 2 -5 56.29 3.7
-2 2 -5 63.49 3.8
2 -2 5 58.49 4.1
-3 2 -5 5.9 1.2
-3 2 -5 7.9 1.3
3 -2 5 7.1 1.3
3 -2 5 8.5 1.7
-4 2 -5 2.9 1.4
-4 2 -5 4.9 1.3
4 -2 5 2 1.7
4 -2 5 1.8 1.6
-5 2 -5 13.4 1.9
-5 2 -5 12.1 1.4
5 -2 5 9.9 2.5
5 -2 5 10 1.4
-6 2 -5 27.4 3.3
-7 2 -5 -3.6 2.1
7 -2 5 0.5 3.5
7 1 -5 52.59 5.4
-7 -1 5 49.8 5.3
6 1 -5 -1.7 2.1
-6 -1 5 2.5 1.9
-5 -1 5 34 3.2
4 1 -5 31.9 3.1
-4 -1 5 28.8 2.8
3 1 -5 0.4 0.4
3 1 -5 0.3 1
3 1 -5 1 1.1
-3 -1 5 1.4 0.7
-3 -1 5 1.1 0.9
2 1 -5 0.6 0.9
2 1 -5 0.1 0.4
-2 -1 5 0.3 0.7
-2 -1 5 0.4 0.7
1 1 -5 27 2.2
1 1 -5 27 1.8
-1 -1 5 27.2 2.1
-1 -1 5 25.7 2
0 1 -5 40.2 2.4
0 1 -5 38.2 2.6
0 1 -5 37.2 2.7
0 -1 5 35.1 2.5
0 -1 5 43 2.7
0 -1 5 37 2.7
-1 1 -5 4.2 0.8
-1 1 -5 4.4 0.8
1 -1 5 4.1 0.9
1 -1 5 3.9 0.8
-2 1 -5 21.6 1.7
-2 1 -5 22.6 1.9
2 -1 5 26.8 2
2 -1 5 21.4 2.1
-3 1 -5 11.9 1.4
-3 1 -5 9.8 1.3
3 -1 5 10.2 1.8
3 -1 5 10.8 1.4
-4 1 -5 2.8 0.8
-4 1 -5 1.2 1
-4 1 -5 0.1 1
4 -1 5 2.8 0.8
4 -1 5 3.6 1.6
-5 1 -5 19.1 1.8
-5 1 -5 16.8 2.1
5 -1 5 16.4 2.6
-6 1 -5 -1.6 1.6
6 -1 5 2.1 2.6
-7 1 -5 9.2 2.2
7 -1 5 10.2 3.6
-8 1 -5 36.3 4.4
8 -1 5 26.7 4.7
7 0 -5 -0.1 2.9
-7 0 5 3 2.1
6 0 -5 25.7 3.7
-6 0 5 30.7 3.5
5 0 -5 21.6 2.9
-5 0 5 19.1 2.5
4 0 -5 29.2 3
-4 0 5 34.9 2.8
3 0 -5 9.5 1.7
-3 0 5 10.5 1.4
2 0 -5 4.1 0.6
2 0 -5 4.6 1
-2 0 5 1.6 0.7
-2 0 5 3 0.6
1 0 -5 10.3 1.4
1 0 -5 9.6 1
1 0 -5 8.4 1.2
-1 0 5 8.3 0.9
-1 0 5 8.4 1.1
0 0 -5 6.1 0.9
0 0 -5 7.6 0.9
0 0 -5 4.9 0.9
0 0 5 6.7 1.1
0 0 5 5.3 1.3
0 0 5 6.6 0.8
0 0 5 8.4 1.1
-1 0 -5 39.8 2.4
-1 0 -5 38.3 2.5
1 0 5 38.9 2.6
1 0 5 39 2.4
1 0 5 38.2 2.8
-2 0 -5 11.6 1.2
-2 0 -5 12.1 1
2 0 5 11.3 1.2
2 0 5 12.5 1.7
-3 0 -5 2.5 0.7
-3 0 -5 1.8 0.5
-3 0 -5 2.5 0.5
3 0 5 2.3 0.5
3 0 5 5 1.3
-4 0 -5 56.49 3.3
-4 0 -5 49.4 3.7
-4 0 -5 57.59 3.2
4 0 5 56.49 4.4
-5 0 -5 7.1 1.6
-5 0 -5 7.9 0.9
5 0 5 7.2 2.2
-6 0 -5 12 2.1
6 0 5 14.1 3.2
-7 0 -5 8.8 2.1
7 0 5 4.5 3.3
-8 0 -5 -1 2.7
8 0 5 -1.3 3.9
7 -1 -5 -2.2 2.4
-7 1 5 0.8 2.2
6 -1 -5 5.1 2.4
-6 1 5 1.1 1.8
5 -1 -5 -1.4 1.3
-5 1 5 0.9 1.2
4 -1 -5 2.6 1.3
-4 1 5 1.6 1
3 -1 -5 61.69 4.2
-3 1 5 58.09 3.9
2 -1 -5 32 2
2 -1 -5 30.2 2.5
-2 1 5 30.7 1.8
-2 1 5 30.8 2.3
1 -1 -5 240.38 13.7
1 -1 -5 251.57 13.3
1 -1 -5 252.27 13.5
-1 1 5 255.77 13.3
-1 1 5 237.68 13.4
0 -1 -5 8.9 1
0 -1 -5 8.1 1
0 -1 -5 7.6 1.1
0 1 5 7 1.2
0 1 5 7.5 1.1
0 1 5 9.4 0.9
0 1 5 8.8 0.9
-1 -1 -5 93.79 5.6
-1 -1 -5 103.89 5.4
-1 -1 -5 96.69 5.8
1 1 5 98.79 5.8
1 1 5 97.69 5.9
1 1 5 98.59 5.4
1 1 5 98.59 5.6
-2 -1 -5 142.49 7.9
2 1 5 137.09 8.2
-3 -1 -5 0.9 0.7
3 1 5 0.7 1
-4 -1 -5 122.89 7.2
4 1 5 120.09 7.8
-5 -1 -5 4.7 1.5
-5 -1 -5 5.6 1.1
5 1 5 5.2 1.8
-6 -1 -5 23.4 2.8
6 1 5 20.2 3.9
-7 -1 -5 -1.2 2
7 1 5 -1.8 3.2
-8 -1 -5 -3.3 2.8
8 1 5 -1.2 3.6
7 -2 -5 -2.5 4
-7 2 5 2 2.1
6 -2 -5 1.5 2.2
-6 2 5 3.9 1.7
5 -2 -5 4.6 1.8
-5 2 5 4.9 1.4
4 -2 -5 2.6 1.3
-4 2 5 2.2 1
3 -2 -5 184.68 10.8
-3 2 5 190.28 10.6
2 -2 -5 1 0.6
2 -2 -5 0.7 0.8
-2 2 5 2.5 0.7
-2 2 5 2.2 0.5
-2 2 5 1.9 0.4
1 -2 -5 500.15 29.1
1 -2 -5 541.15 29
1 -2 -5 561.64 28.9
-1 2 5 593.44 28.8
-1 2 5 507.15 29
0 -2 -5 10.7 1.1
0 -2 -5 11.5 1.1
0 -2 -5 6.8 1.1
0 2 5 9.7 1.2
0 2 5 9 0.9
0 2 5 10.5 1.1
0 2 5 9.7 1.3
0 2 5 10 1.2
-1 -2 -5 279.37 16.5
1 2 5 318.27 16.3
1 2 5 327.97 16.5
1 2 5 302.97 16.8
1 2 5 309.07 16.3
1 2 5 296.47 16.7
-2 -2 -5 6.4 1
2 2 5 5.9 1
-3 -2 -5 71.19 4.4
3 2 5 65.49 4.7
-4 -2 -5 3.4 1
4 2 5 1.9 1.2
-5 -2 -5 28.5 3
-5 -2 -5 34.3 2.1
-5 -2 -5 34.3 2.4
5 2 5 37.1 3.9
-6 -2 -5 0 1.6
6 2 5 4.8 3.1
-7 -2 -5 17.8 2.9
7 2 5 17.5 3.4
-8 -2 -5 1.1 3.3
8 2 5 0.4 3.7
7 -3 -5 0.2 2.8
-7 3 5 2.7 2.3
6 -3 -5 1 2
-6 3 5 2.3 1.7
5 -3 -5 35.9 3.8
-5 3 5 42.5 3.5
4 -3 -5 22.2 2.7
-4 3 5 26.5 2.4
3 -3 -5 240.48 14.4
-3 3 5 254.07 13.6
-3 3 5 250.87 14.2
-3 3 5 273.57 13.6
2 -3 -5 26.1 2.2
-2 3 5 28.5 1.9
-2 3 5 29.4 1.8
-2 3 5 27.6 2.1
1 -3 -5 963.7 57.19
1 -3 -5 1141.29 57.19
1 -3 -5 1115.69 57.09
-1 3 5 1090.69 56.99
-1 3 5 1127.39 57.39
-1 3 5 1013.4 57.09
-1 3 5 1079.19 57.19
0 -3 -5 0.9 0.7
0 -3 -5 0.3 0.6
0 3 5 1.1 0.8
0 3 5 1.6 0.7
0 3 5 0.7 0.5
0 3 5 0.7 0.6
0 3 5 0.8 0.6
-1 -3 -5 2013 104.79
-1 -3 -5 1962.7 104.79
1 3 5 2038.7 104.89
1 3 5 1974 104.69
1 3 5 1848.02 104.89
1 3 5 1908.41 104.49
1 3 5 2112.99 104.59
-2 -3 -5 0.7 0.8
2 3 5 0.6 0.7
-3 -3 -5 1232.58 63.59
3 3 5 1154.38 63.89
-4 -3 -5 -0.5 1.1
4 3 5 1.3 1.3
-5 -3 -5 307.57 16.6
-5 -3 -5 309.07 16.6
-5 -3 -5 310.57 17.3
5 3 5 310.27 18
-6 -3 -5 3.5 1.9
6 3 5 1.4 2.4
-7 -3 -5 48.9 5.2
7 3 5 46.2 6
-8 -3 -5 0.2 3.2
8 3 5 4 3.9
7 -4 -5 1.9 2.7
-7 4 5 3.3 2.2
6 -4 -5 8.9 2.3
-6 4 5 10.9 2.2
5 -4 -5 2.9 1.6
-5 4 5 3.6 1.3
4 -4 -5 33.1 3.2
-4 4 5 34.6 2.3
-4 4 5 35.3 2.1
-4 4 5 31.4 2.9
3 -4 -5 25.6 2.6
-3 4 5 23.3 2.4
-3 4 5 23.9 2
-3 4 5 30.3 1.9
2 -4 -5 38.3 2.9
-2 4 5 39.3 2.8
-2 4 5 38.9 2.6
-2 4 5 40.2 2.7
1 -4 -5 185.08 10.3
1 -4 -5 183.38 10.3
1 -4 -5 184.58 10.4
-1 4 5 191.08 10.5
-1 4 5 181.98 10.2
-1 4 5 182.58 10.3
-1 4 5 177.28 10.3
-1 4 5 201.38 10.5
0 -4 -5 28.5 2.6
0 -4 -5 34.3 2.3
0 -4 -5 28.3 2.3
0 4 5 33.3 2.4
0 4 5 30.6 2.4
0 4 5 29.6 2.3
0 4 5 34.7 2.3
0 4 5 38.2 2.4
-1 -4 -5 200.68 10.8
-1 -4 -5 193.48 11.1
-1 -4 -5 202.28 11
1 4 5 194.68 11.1
1 4 5 202.88 10.9
1 4 5 185.78 11.1
1 4 5 212.18 11.3
-2 -4 -5 38.2 2.3
-2 -4 -5 35.4 2.8
2 4 5 33.6 2.7
2 4 5 36.7 2.3
-3 -4 -5 45.7 2.6
-3 -4 -5 35.7 3.1
3 4 5 36.9 3.4
3 4 5 41.6 2.4
-4 -4 -5 23.8 2
-4 -4 -5 23.8 2.6
4 4 5 26.3 3.1
4 4 5 22.7 1.7
-5 -4 -5 22.9 2.1
-5 -4 -5 17.6 2.6
5 4 5 22.7 2.1
5 4 5 16.7 2.9
-6 -4 -5 4.6 2.2
-6 -4 -5 0.9 1.7
6 4 5 2.3 2.5
-7 -4 -5 17.7 3.4
7 4 5 11.5 3.7
-8 -4 -5 -1.5 3.8
8 4 5 0.1 3.3
7 -5 -5 5.5 2.9
-7 5 5 9.9 2.5
6 -5 -5 0.3 2.1
-6 5 5 3.1 2
5 -5 -5 17.4 2.5
-5 5 5 17.4 1.5
4 -5 -5 5.2 1.7
-4 5 5 8.5 1
-4 5 5 8.3 1.5
-4 5 5 5.8 1.4
3 -5 -5 -0.8 1.2
-3 5 5 -0.4 0.9
-3 5 5 1.3 1.2
-3 5 5 0.2 0.8
2 -5 -5 28.5 2.2
2 -5 -5 26.9 2.3
-2 5 5 24.2 2.3
-2 5 5 24.5 2.4
1 -5 -5 77.79 4.8
1 -5 -5 81.69 4.9
-1 5 5 78.69 4.9
-1 5 5 82.99 4.9
-1 5 5 79.89 4.9
-1 5 5 76.99 4.9
0 -5 -5 9.9 1.3
0 -5 -5 12.1 1.4
0 -5 -5 10.7 1.5
0 5 5 11.8 1.7
0 5 5 10.5 1.4
0 5 5 11 1.5
0 5 5 11.2 1.4
0 5 5 12.5 1.6
-1 -5 -5 23.9 2
-1 -5 -5 21.7 2
-1 -5 -5 22.1 2.3
1 5 5 22.9 1.9
1 5 5 25.5 2.1
1 5 5 25.9 2.1
-2 -5 -5 3.3 0.9
-2 -5 -5 2.3 1
2 5 5 3.1 1
2 5 5 2.5 0.8
-3 -5 -5 22.5 2.6
-3 -5 -5 24 2.1
3 5 5 20.4 2.5
3 5 5 20.5 1.7
-4 -5 -5 3.2 1.3
-4 -5 -5 2.7 1.1
4 5 5 3.3 1.5
4 5 5 4.3 0.9
-5 -5 -5 15.6 2.3
-5 -5 -5 23.4 3
5 5 5 17.7 2.8
-6 -5 -5 2 1.4
-6 -5 -5 3.8 2.3
6 5 5 0 2.2
-7 -5 -5 2.1 3.1
7 5 5 1.9 2.8
-8 -5 -5 3.4 4.3
8 5 5 0.4 4
7 -6 -5 38.4 5.2
-7 6 5 45.7 4.9
6 -6 -5 26.9 3.5
5 -6 -5 52.99 4.4
-5 6 5 50.29 3.3
-5 6 5 51.19 4.2
4 -6 -5 4.6 1.6
-4 6 5 3.4 2.3
-4 6 5 2 1.3
-4 6 5 3.8 1
3 -6 -5 16.8 2.1
3 -6 -5 21.3 2.4
-3 6 5 18.5 2
-3 6 5 18.4 2.3
2 -6 -5 0.1 0.9
2 -6 -5 -0.8 1
-2 6 5 1.2 0.9
-2 6 5 0.8 0.9
1 -6 -5 10 1.3
1 -6 -5 8.7 1.4
-1 6 5 13.7 1.8
-1 6 5 10.1 1.2
-1 6 5 10.5 1.5
0 -6 -5 12.8 1.7
0 -6 -5 13 1.6
0 6 5 14 1.8
0 6 5 13.3 1.5
-1 -6 -5 89.69 6
-1 -6 -5 101.39 5.7
-1 -6 -5 95.59 5.8
1 6 5 92.99 5.9
1 6 5 92.69 5.6
1 6 5 91.49 5.7
1 6 5 102.29 5.8
-2 -6 -5 110.09 7.3
-2 -6 -5 118.39 7
2 6 5 126.49 6.9
2 6 5 117.69 7.2
2 6 5 116.69 7.3
-3 -6 -5 127.69 7.3
-3 -6 -5 113.09 7.5
3 6 5 113.69 7.5
3 6 5 121.69 6.9
-4 -6 -5 86.19 5.3
-4 -6 -5 85.39 6.1
4 6 5 82.99 6.1
4 6 5 86.99 5.1
-5 -6 -5 2.4 1.4
-5 -6 -5 5.2 2.2
5 6 5 5.7 2.3
-6 -6 -5 12.3 2
6 6 5 8.6 2.9
-7 -6 -5 10.2 3.8
7 6 5 13.1 3.8
7 -7 -5 8.6 3.3
-7 7 5 10.8 2.9
6 -7 -5 324.07 18.6
-6 7 5 319.77 18.6
5 -7 -5 5.6 2.1
-5 7 5 9.9 1.3
-5 7 5 8.1 2.2
4 -7 -5 123.59 7.8
-4 7 5 133.69 7.5
-4 7 5 119.39 8
3 -7 -5 1.7 1.2
3 -7 -5 1.6 1.5
-3 7 5 4.5 1.6
-3 7 5 0.2 1
2 -7 -5 -0.1 1.2
2 -7 -5 1.5 0.9
-2 7 5 1.6 1.1
-2 7 5 -0.2 1.1
1 -7 -5 9.9 1.7
-1 7 5 16 2
-1 7 5 11.2 1.7
0 -7 -5 12.7 1.7
0 7 5 13.1 1.5
0 7 5 10.8 1.7
0 7 5 12.8 1.7
-1 -7 -5 64.19 4.4
-1 -7 -5 64.99 4.7
1 7 5 59.19 4.2
1 7 5 68.09 4.6
1 7 5 70.89 4.2
-2 -7 -5 7.9 1.6
-2 -7 -5 9.1 1.8
2 7 5 6.5 1.6
2 7 5 9 1.5
-3 -7 -5 36.9 3
-3 -7 -5 29.5 3.4
3 7 5 31.8 3.2
3 7 5 27.6 3.2
-4 -7 -5 5.8 2
-4 -7 -5 6.3 1.6
4 7 5 4.7 1.8
4 7 5 6 2
-5 -7 -5 2.2 1.7
-5 -7 -5 2.2 2.4
5 7 5 0.1 1.8
5 7 5 -2.2 2.2
-6 -7 -5 6.3 2.9
-6 -7 -5 5.6 2.1
6 7 5 3.7 2.5
6 7 5 5.5 3.1
-7 -7 -5 3.7 3.6
7 7 5 -0.8 3.5
7 7 5 7.4 5.2
6 -8 -5 29.3 3.9
-6 8 5 29.2 3.8
5 -8 -5 54.59 4.8
5 -8 -5 61.49 5
-5 8 5 45.4 3.8
-5 8 5 46.4 4.7
4 -8 -5 72.99 5.1
4 -8 -5 67.39 5.6
-4 8 5 73.09 4.9
-4 8 5 73.29 5.6
3 -8 -5 71.69 4.8
3 -8 -5 75.49 5.4
-3 8 5 72.59 5
-3 8 5 75.99 5.3
2 -8 -5 43.6 3.2
-2 8 5 53.29 4
-2 8 5 45.6 3.7
1 -8 -5 61.89 3.9
1 -8 -5 63.39 4.6
-1 8 5 62.59 3.8
-1 8 5 58.39 4.1
-1 8 5 59.79 4.4
0 -8 -5 2 1.4
0 8 5 3.8 1.1
0 8 5 3.5 0.9
0 8 5 4.3 1.3
-1 -8 -5 43.3 3.6
1 8 5 40.5 3
1 8 5 40.7 3.4
1 8 5 44.7 3.6
-2 -8 -5 104.39 6.6
-2 -8 -5 99.39 6.3
2 8 5 91.29 6.5
2 8 5 90.59 6.1
-3 -8 -5 31.5 3.1
-3 -8 -5 30.7 3.5
3 8 5 25.3 3.2
3 8 5 27.9 3.4
-4 -8 -5 31.9 3.6
-4 -8 -5 25.8 3.4
4 8 5 26.9 3.3
4 8 5 26.2 3.2
-5 -8 -5 11.6 2.9
-5 -8 -5 10.3 2.2
5 8 5 9.6 2.8
5 8 5 9.7 2.5
-6 -8 -5 2.8 2.8
-6 -8 -5 1.6 3.2
6 8 5 -0.2 2.7
6 8 5 3.3 2.6
-7 -8 -5 -4.4 3.6
7 8 5 3.5 3.2
7 8 5 -2 3.7
-6 9 5 0.5 2.7
5 -9 -5 0.5 2.7
5 -9 -5 0 3.7
-5 9 5 -0.9 2.3
-5 9 5 -0.9 1.7
4 -9 -5 2.3 1.7
4 -9 -5 -1.4 2.1
-4 9 5 -0.5 2.1
-4 9 5 1.7 1.6
3 -9 -5 1.7 2
3 -9 -5 1.5 1.3
-3 9 5 0.1 1.7
-3 9 5 2.3 1.6
2 -9 -5 0.5 1.7
-2 9 5 -3.7 1.3
1 -9 -5 1 1.7
-1 9 5 2.4 1
-1 9 5 2.6 1.6
0 -9 -5 4.4 1.9
0 9 5 4.5 1.8
0 9 5 6.3 1.2
0 9 5 7.4 1.3
-1 -9 -5 16.6 2.4
1 9 5 18.1 2.1
1 9 5 20.6 2.4
1 9 5 17.3 2.6
-2 -9 -5 14.1 2.4
2 9 5 12.3 2
2 9 5 13.3 2.4
-3 -9 -5 21.1 2.8
3 9 5 18.2 2.5
3 9 5 18.3 2.9
-4 -9 -5 6.7 2.5
-4 -9 -5 1 1.9
4 9 5 0.2 2
4 9 5 -2.2 2
-5 -9 -5 10 2.9
-5 -9 -5 3.6 2.5
5 9 5 -2.4 2.3
5 9 5 2.1 2.5
-6 -9 -5 10.1 3.4
6 9 5 -4.8 3
6 9 5 10.1 3.2
5 -10 -5 1.8 3
-5 10 5 -0.2 2.4
-5 10 5 4.5 2.2
4 -10 -5 10.1 3
-4 10 5 6.4 2.7
-4 10 5 9.1 2.2
3 -10 -5 4.1 2.5
-3 10 5 0.3 2.2
2 -10 -5 9.1 2.6
-2 10 5 9.1 2
1 -10 -5 0 3.6
-1 10 5 0.7 1.8
0 -10 -5 18.5 2.9
0 10 5 17.7 2.8
-1 -10 -5 5.9 2.1
1 10 5 0.3 1.6
-2 -10 -5 22.6 3.1
2 10 5 18.1 2.2
2 10 5 23.6 3.1
-3 -10 -5 -2.5 2.2
3 10 5 1.3 2.2
3 10 5 0.4 1.8
-4 -10 -5 0.3 2.6
4 10 5 -0.5 2.6
-5 -10 -5 -0.5 2.9
5 10 5 -3.5 2.9
5 10 5 0.3 2.8
6 10 5 9.3 3.7
6 10 5 7.2 3.9
4 -11 -5 2.4 3.2
-4 11 5 5.9 2.9
-4 11 5 3.9 2.2
3 -11 -5 6.6 2.8
-3 11 5 4.5 2
2 -11 -5 15.2 3.1
-2 11 5 14.7 2.5
1 -11 -5 5 2.5
-1 11 5 0.7 2.1
0 -11 -5 7.9 2.5
0 11 5 9.5 2.5
-1 -11 -5 2.2 2.1
1 11 5 3.2 2.3
-2 -11 -5 -1.5 2.3
2 11 5 -0.1 2.3
-3 -11 -5 4.9 2.9
3 11 5 6.6 2.9
-4 -11 -5 3.9 2.9
4 11 5 6.9 3.2
-5 -11 -5 7.5 3.4
5 11 5 10.8 3.6
3 -12 -5 7.4 3.6
-3 12 5 13.2 2.8
2 -12 -5 16.6 3.8
-2 12 5 19.2 3.3
1 -12 -5 14.8 3.7
-1 12 5 13.5 3.2
0 -12 -5 2.7 2.8
0 12 5 4.8 2.7
-1 -12 -5 36.5 4.5
1 12 5 44.9 5.3
-2 -12 -5 -2.6 2.8
2 12 5 0.1 3.2
-3 -12 -5 46.3 5.9
3 12 5 34.1 4.9
-4 -12 -5 -8.5 3.5
4 12 5 0.1 3.6
2 -13 -5 -6 3.8
-2 13 5 0.2 2.8
1 -13 -5 73.79 7
-1 13 5 63.59 6.6
0 -13 -5 -3.2 3.7
0 13 5 0 3
-1 -13 -5 119.59 9.7
1 13 5 132.39 9.4
-2 -13 -5 4.6 3.9
2 13 5 3.5 3.6
1 8 -6 1.9 2.3
-1 -8 6 4.2 3.5
0 8 -6 5.6 2.4
0 -8 6 5.3 3.5
-1 8 -6 9.4 2.4
1 -8 6 16.6 3.6
-2 8 -6 28.5 3.5
-3 -7 6 -0.7 3.1
2 7 -6 13.2 2.3
-2 -7 6 10.4 3.2
1 7 -6 9.5 2.1
-1 -7 6 9 3.2
0 7 -6 2.5 1.8
0 -7 6 1.1 2.5
1 -7 6 4.5 3
-2 7 -6 3.8 1.9
2 -7 6 -2.2 3.1
-3 7 -6 1.1 2.1
3 -7 6 0.7 3.3
-4 7 -6 8.2 2.8
4 6 -6 6.3 3.1
-4 -6 6 6.2 3
3 6 -6 5.6 2.6
-3 -6 6 4.7 2.7
2 6 -6 2.4 2
2 6 -6 -0.6 1.6
-2 -6 6 0.7 1.6
-2 -6 6 -1.2 2.1
1 6 -6 23.8 3.2
-1 -6 6 15.6 2.9
-1 -6 6 17.6 2.2
0 6 -6 10.5 1.8
0 -6 6 9.4 2
0 -6 6 9.9 2.5
-1 6 -6 28 3.2
1 -6 6 31.5 3.6
-2 6 -6 5.1 1.8
2 -6 6 2.1 2.7
-3 6 -6 29.8 3.5
3 -6 6 31.9 4
-4 6 -6 5.1 2.1
4 -6 6 2.7 3.3
-5 6 -6 6.8 2.4
5 5 -6 2.7 3.1
-5 -5 6 -1.9 3
4 5 -6 52.39 5.4
-4 -5 6 49.3 5.3
3 5 -6 9.1 2.4
3 5 -6 7.3 1.5
-3 -5 6 5.1 2.3
2 5 -6 92.79 5.9
2 5 -6 101.59 6.5
-2 -5 6 101.49 6.9
-2 -5 6 93.39 6.2
1 5 -6 25.8 3
1 5 -6 21.4 2.5
-1 -5 6 24.3 2.7
-1 -5 6 26.3 4
0 5 -6 113.79 6.5
0 -5 6 95.19 6.6
0 -5 6 106.99 7.1
-1 5 -6 19.8 2.5
1 -5 6 21.3 2.6
1 -5 6 20.2 2.8
-2 5 -6 24.2 2.9
2 -5 6 27.1 3.5
2 -5 6 30.1 3.6
-3 5 -6 13.2 2.1
3 -5 6 12.1 2.6
3 -5 6 9.6 2.8
-4 5 -6 0.5 1.8
4 -5 6 -1.3 2.4
4 -5 6 3.2 3.2
-5 5 -6 4.3 2.3
5 -5 6 7.9 6.3
5 4 -6 4.5 2.8
-5 -4 6 1.5 2.6
4 4 -6 188.18 10.8
-4 -4 6 156.28 10.7
3 4 -6 2.4 2
3 4 -6 0.8 1
-3 -4 6 1.2 1.7
2 4 -6 292.37 15.4
2 4 -6 262.87 14.8
-2 -4 6 257.97 15.5
1 4 -6 5.9 1.5
1 4 -6 4.6 1.1
-1 -4 6 8.8 1.9
-1 -4 6 4.5 1.3
0 4 -6 243.58 12.7
0 -4 6 219.58 13.1
0 -4 6 219.38 12.9
-1 4 -6 31.5 2.7
1 -4 6 31.1 3
1 -4 6 37.3 3.2
-2 4 -6 104.29 6.5
2 -4 6 104.69 6.8
2 -4 6 104.69 6.8
-3 4 -6 51.39 3.7
3 -4 6 53.09 4.4
3 -4 6 41.6 4.6
-4 4 -6 42.9 3.6
4 -4 6 45.3 4.7
4 -4 6 37.5 4
-5 4 -6 30.2 3.2
5 -4 6 26 4.8
-6 4 -6 3.7 2.6
6 -4 6 10.1 4
6 3 -6 3 2.9
-6 -3 6 -2.4 2.9
5 3 -6 37.3 4.7
-5 -3 6 36.1 4.3
-4 -3 6 5 2
3 3 -6 38.2 2.7
3 3 -6 46.4 4.1
-3 -3 6 41 3.8
2 3 -6 2.5 1.5
2 3 -6 0 0.7
-2 -3 6 2 1.4
1 3 -6 17.5 2.2
1 3 -6 21 1.8
-1 -3 6 18.2 2.4
-1 -3 6 16.7 2
0 3 -6 8.1 1.5
0 3 -6 5.3 1.1
0 -3 6 6.3 1.3
0 -3 6 6.6 1.3
-1 3 -6 4.9 1.2
1 -3 6 2.5 1.2
1 -3 6 3.6 1.4
-2 3 -6 20.6 2.1
2 -3 6 13.2 1.9
2 -3 6 14.7 2.1
-3 3 -6 0.7 1.1
3 -3 6 -0.8 1.6
3 -3 6 -1.2 1.5
-4 3 -6 0.4 1.2
4 -3 6 -3.6 1.5
4 -3 6 1.2 2.1
-5 3 -6 2.1 1.6
5 -3 6 0 2.5
-6 3 -6 2.2 2.2
6 -3 6 1.1 3.2
-7 3 -6 4.4 2.5
7 -3 6 -6.7 3.8
6 2 -6 4 3.3
-6 -2 6 1.8 2.4
5 2 -6 1.4 2.4
-5 -2 6 4.3 1.9
4 2 -6 2.2 2
-4 -2 6 4.1 1.6
3 2 -6 20.5 2.7
3 2 -6 20.8 1.7
-3 -2 6 23.3 2.7
2 2 -6 6.7 0.9
2 2 -6 5.4 1.6
-2 -2 6 7.8 1.5
-2 -2 6 3.8 1.4
1 2 -6 11.5 1.4
1 2 -6 13.5 1.8
-1 -2 6 13.1 1.8
0 2 -6 47.7 2.8
0 2 -6 38.5 3.1
0 -2 6 33.2 2.9
0 -2 6 39.9 3
-1 2 -6 0.3 0.8
1 -2 6 0.6 1
1 -2 6 0 0.9
-2 2 -6 6.5 1.2
-2 2 -6 8 1.3
2 -2 6 7.4 1.4
2 -2 6 5.9 1.4
-3 2 -6 1.7 1.2
-3 2 -6 0.2 1
3 -2 6 0.3 1.4
3 -2 6 2.2 1.2
-4 2 -6 14.2 1.8
4 -2 6 14.3 2.6
4 -2 6 9.4 1.8
-5 2 -6 4.3 1.7
5 -2 6 3.5 2.5
-6 2 -6 17.7 2.6
6 -2 6 14.8 3.6
-7 2 -6 -5 2.3
7 -2 6 -5.4 3.7
7 1 -6 -2.3 3.2
-7 -1 6 1 2.8
6 1 -6 101.49 8
-6 -1 6 111.89 7.5
5 1 -6 112.69 7.9
-5 -1 6 112.59 7.4
4 1 -6 77.69 5.8
-4 -1 6 75.79 5.3
3 1 -6 191.88 10.8
3 1 -6 180.88 9.8
-3 -1 6 166.78 10.5
-3 -1 6 188.58 10
2 1 -6 8.6 1.1
2 1 -6 7.9 1.5
-2 -1 6 13.1 1.7
-2 -1 6 8.1 1.4
1 1 -6 41.6 3.5
1 1 -6 50.59 3.1
-1 -1 6 53.49 3.4
-1 -1 6 54.19 3.3
0 1 -6 -0.3 0.6
0 1 -6 0.6 0.9
0 -1 6 1 0.9
0 -1 6 1.8 0.9
-1 1 -6 2.3 0.8
-1 1 -6 3 0.9
1 -1 6 3.5 1.1
1 -1 6 3.3 0.8
-2 1 -6 2 0.9
-2 1 -6 -0.9 0.7
2 -1 6 -1.3 0.9
2 -1 6 -0.6 0.9
-3 1 -6 4 1.1
-3 1 -6 2.5 0.8
3 -1 6 2.2 1
3 -1 6 4.6 1.7
-4 1 -6 0.4 1.1
-4 1 -6 -0.8 0.8
4 -1 6 -2.3 1.6
4 -1 6 -1 0.8
5 -1 6 5.2 2.5
-6 1 -6 -2.8 1.5
6 -1 6 0.7 2.9
-7 1 -6 -1.6 2.3
7 -1 6 1.6 3.5
7 0 -6 71.49 7.4
-7 0 6 82.39 6.5
6 0 -6 2.2 2.6
-6 0 6 1.5 1.8
5 0 -6 39.3 4.4
-5 0 6 45.5 3.9
4 0 -6 14.4 2.3
-4 0 6 14.4 2
3 0 -6 10.7 1.8
-3 0 6 8.9 1.4
2 0 -6 27.4 1.8
2 0 -6 30.2 2.6
-2 0 6 25.9 1.9
-2 0 6 21.4 2.2
1 0 -6 134.99 8
1 0 -6 140.79 7.6
-1 0 6 132.59 7.6
-1 0 6 138.49 7.8
0 0 -6 11.6 1.5
0 0 -6 9.9 1.2
0 0 -6 10.6 1.4
0 0 6 10.8 1.3
0 0 6 10.6 1.5
0 0 6 8.3 1.1
-1 0 -6 45.1 2.8
-1 0 -6 39.4 2.9
1 0 6 45 3.2
1 0 6 46.1 2.8
-2 0 -6 2 0.5
-2 0 -6 0.2 0.8
2 0 6 1.6 0.7
2 0 6 2.3 1.1
-3 0 -6 8.2 1.3
-3 0 -6 14.2 1
3 0 6 8.4 1.7
3 0 6 12.6 1.2
-4 0 -6 2.2 1.2
4 0 6 1.2 1.4
-5 0 -6 34.7 3.3
5 0 6 37.4 4.5
-6 0 -6 0.3 1.8
6 0 6 2.9 2.5
-7 0 -6 3.8 2.2
7 0 6 0.2 3.6
8 0 6 -8.3 4.5
7 -1 -6 12.2 3.8
-7 1 6 11.7 2.8
6 -1 -6 61.29 5.8
-6 1 6 65.89 5.3
5 -1 -6 5.7 2.2
-5 1 6 4.8 1.7
4 -1 -6 67.59 4.9
-4 1 6 52.99 4.2
3 -1 -6 14.2 2
-3 1 6 17.2 1.8
2 -1 -6 3.5 1.2
2 -1 -6 4.1 0.7
-2 1 6 4.4 0.6
-2 1 6 4.2 0.9
1 -1 -6 2 0.9
1 -1 -6 2.1 0.7
-1 1 6 3.2 0.6
-1 1 6 3 0.7
0 -1 -6 5.6 1.2
0 -1 -6 4 0.8
0 -1 -6 5 0.9
0 1 6 6.4 0.9
0 1 6 3.9 1
-1 -1 -6 63.19 3.6
-1 -1 -6 58.09 3.8
1 1 6 57.89 4
1 1 6 63.19 3.6
-2 -1 -6 0.1 0.7
-2 -1 -6 0.1 0.4
2 1 6 0.3 0.5
2 1 6 0.3 0.8
-3 -1 -6 118.69 7
3 1 6 115.79 7.4
-4 -1 -6 5.8 1.4
4 1 6 7.4 2
-5 -1 -6 35.2 3.3
5 1 6 31.9 4.3
-6 -1 -6 1.5 1.6
6 1 6 1.3 3.1
-7 -1 -6 -2.4 2.2
7 1 6 1.3 2.9
-8 -1 -6 -4.8 2.9
7 -2 -6 -2 3.2
-7 2 6 -2 2.3
6 -2 -6 -1.7 2.3
-6 2 6 -0.3 1.8
5 -2 -6 -2.5 1.6
-5 2 6 1.1 1.5
4 -2 -6 0.8 1.7
-4 2 6 1.6 1.1
3 -2 -6 10.9 1.7
-3 2 6 13.9 1.7
2 -2 -6 11.1 1.3
2 -2 -6 11.6 1.7
-2 2 6 12.2 1.5
-2 2 6 11 1
1 -2 -6 12.8 1.6
1 -2 -6 13.3 1.7
1 -2 -6 17.1 1.5
-1 2 6 11.9 1.6
-1 2 6 14.5 1.2
-1 2 6 12.3 1.3
0 -2 -6 11.1 1.5
0 -2 -6 11.3 1.4
0 -2 -6 12.2 1.3
0 2 6 14.2 1.3
0 2 6 10.6 1.5
0 2 6 10.8 1.3
0 2 6 14.6 1.3
-1 -2 -6 1.1 0.6
-1 -2 -6 2.2 0.6
1 2 6 1.9 0.8
1 2 6 2.2 0.6
1 2 6 1.9 0.5
-2 -2 -6 78.99 4.6
2 2 6 66.89 4.7
-3 -2 -6 2.2 1
3 2 6 0.2 1.1
-4 -2 -6 49.99 3.5
4 2 6 45 4.2
-5 -2 -6 1.8 1.3
5 2 6 0.8 1.8
6 2 6 2.5 2.7
-7 -2 -6 -1.5 2.4
7 2 6 -0.8 3.3
-8 -2 -6 3 3.1
8 2 6 -3.9 4
7 -3 -6 17 3.5
-7 3 6 8.8 2.8
6 -3 -6 0.5 2.2
-6 3 6 0.2 1.8
-5 3 6 68.89 5
4 -3 -6 -0.6 1.4
-4 3 6 0.8 1.2
3 -3 -6 86.09 6
-3 3 6 89.69 5.7
-3 3 6 100.79 5.1
2 -3 -6 1.9 1
2 -3 -6 2.5 0.8
-2 3 6 1.6 0.6
-2 3 6 2.2 0.9
-2 3 6 2 0.7
1 -3 -6 20.6 1.9
1 -3 -6 23.4 1.9
1 -3 -6 19.5 2.5
-1 3 6 21.8 2.2
-1 3 6 22.3 1.7
-1 3 6 20.9 1.6
0 -3 -6 65.99 4.2
0 -3 -6 66.39 4
0 3 6 58.09 4.1
0 3 6 62.89 4
0 3 6 69.29 3.8
-1 -3 -6 23.5 2.2
1 3 6 30.8 2
1 3 6 29.6 1.8
1 3 6 26.9 2.4
-2 -3 -6 65.69 4.2
2 3 6 62.49 4.4
-3 -3 -6 118.99 7
3 3 6 113.19 7.3
-4 -3 -6 14.8 2
4 3 6 14.9 2.3
-5 -3 -6 149.39 8.9
5 3 6 141.49 9.5
6 3 6 7.7 2.8
-7 -3 -6 142.19 9.3
7 3 6 119.59 10.1
-8 -3 -6 0.7 3.6
8 3 6 8.7 4.6
7 -4 -6 0.5 3.1
-7 4 6 7.4 2.5
6 -4 -6 2.1 2.4
-6 4 6 1.1 1.8
-5 4 6 4.4 1.5
4 -4 -6 1.5 1.4
-4 4 6 0.9 1.1
3 -4 -6 2 1.1
-3 4 6 2.5 1
-3 4 6 3.7 0.7
-3 4 6 4.2 0.8
2 -4 -6 10.7 1.3
2 -4 -6 13.1 1.8
-2 4 6 11.4 1.3
-2 4 6 11.9 1.6
-2 4 6 10 1.3
1 -4 -6 27.9 2.3
1 -4 -6 27.2 2.3
-1 4 6 26.4 2.1
-1 4 6 28.5 2.1
-1 4 6 31.1 2.3
0 -4 -6 11.6 1.4
0 -4 -6 11.7 1.6
0 4 6 11.6 1.3
0 4 6 11.8 1.5
0 4 6 13.9 1.6
0 4 6 14.7 1.8
-1 -4 -6 0.3 0.9
1 4 6 0.6 0.7
1 4 6 -0.2 0.5
1 4 6 0.4 0.7
-2 -4 -6 0.5 1
2 4 6 0.8 0.4
2 4 6 0.7 0.5
2 4 6 0.9 0.8
-3 -4 -6 70.79 4.7
3 4 6 69.09 5
-4 -4 -6 12.2 1.8
4 4 6 11.2 2.2
-5 -4 -6 123.69 7.8
5 4 6 116.59 8.2
6 4 6 6.8 2.8
-7 -4 -6 76.19 6.5
7 4 6 76.09 7.2
-8 -4 -6 4.2 3.9
8 4 6 0 4.1
7 -5 -6 5.9 3.2
-7 5 6 -0.2 2.2
6 -5 -6 64.19 5.8
-6 5 6 66.09 5.3
5 -5 -6 21.1 3.3
-5 5 6 28.9 3.2
4 -5 -6 72.99 5.3
-4 5 6 67.79 5
-4 5 6 76.09 4.2
3 -5 -6 135.09 8
-3 5 6 138.79 7.4
-3 5 6 123.19 7.8
-3 5 6 122.49 7.3
2 -5 -6 3.1 1.2
-2 5 6 3.9 1.1
-2 5 6 3.2 1.1
1 -5 -6 219.58 11.9
1 -5 -6 202.38 11.8
1 -5 -6 209.88 11.9
-1 5 6 210.48 11.9
-1 5 6 210.28 11.9
-1 5 6 222.68 11.8
0 -5 -6 8.9 1.5
0 -5 -6 9.7 1.2
0 -5 -6 11.1 1.6
0 5 6 11.6 1.4
0 5 6 8.3 1.2
0 5 6 8.9 1.5
-1 -5 -6 120.89 6.8
-1 -5 -6 116.99 7.2
1 5 6 119.39 6.8
1 5 6 127.09 6.9
1 5 6 113.69 7.1
-2 -5 -6 1.7 1.2
-2 -5 -6 0.3 0.8
2 5 6 -0.5 0.9
2 5 6 1.5 0.8
-3 -5 -6 26.3 2.9
-3 -5 -6 29.1 2.1
3 5 6 27.6 2.9
3 5 6 24.7 1.8
-4 -5 -6 0.6 1.4
-4 -5 -6 1.8 1
4 5 6 0.2 0.6
4 5 6 1.7 1.7
-5 -5 -6 10.3 2.3
-5 -5 -6 12.9 1.6
5 5 6 14.1 2.7
-6 -5 -6 10.6 2.6
6 5 6 4.4 2.7
-7 -5 -6 12.5 3.4
7 5 6 4 3.4
-8 -5 -6 12.6 4.5
8 5 6 9.2 4.3
7 -6 -6 1.1 3.1
-7 6 6 5.8 2.7
6 -6 -6 195.98 12.4
-6 6 6 203.78 12.2
5 -6 -6 16.2 3
-5 6 6 19.4 2.7
4 -6 -6 135.89 8.8
-4 6 6 143.89 8.8
-4 6 6 145.39 8
3 -6 -6 19.3 2.4
-3 6 6 15.2 2.1
-3 6 6 21.5 2.4
-3 6 6 17.5 1.8
2 -6 -6 31.2 2.5
2 -6 -6 26.6 2.6
-2 6 6 28.3 2.5
-2 6 6 24.8 2.4
1 -6 -6 3.8 1.3
1 -6 -6 3.9 1
1 -6 -6 4.4 1.2
-1 6 6 4.6 1.1
-1 6 6 2.7 0.9
-1 6 6 2.6 1.1
0 -6 -6 15.8 2
0 -6 -6 17.6 1.9
0 -6 -6 18.9 1.9
0 6 6 18.5 2.1
0 6 6 18.2 1.9
0 6 6 19 1.8
-1 -6 -6 8.4 1.3
-1 -6 -6 8.3 1.7
1 6 6 10.9 1.6
1 6 6 9 1.6
1 6 6 9.9 1.4
-2 -6 -6 73.99 4.4
-2 -6 -6 68.69 4.7
2 6 6 68.19 4.3
2 6 6 60.19 4.6
-3 -6 -6 40.3 3.9
-3 -6 -6 49.99 3.3
3 6 6 41.8 3.8
3 6 6 43.9 3.1
-4 -6 -6 10.2 1.6
-4 -6 -6 11.2 2.3
4 6 6 9.6 1.2
4 6 6 6.8 2.3
-5 -6 -6 38.2 4.4
-5 -6 -6 41.6 3.5
5 6 6 43.8 4.8
-6 -6 -6 18.2 3.3
6 6 6 23.5 4
-7 -6 -6 14 4
7 6 6 6.4 3.8
6 -7 -6 369.26 21.9
-6 7 6 394.26 21.8
5 -7 -6 0.2 2.3
-5 7 6 -1.5 1.8
4 -7 -6 993 54.49
-4 7 6 999.8 54.69
-4 7 6 1048.1 53.99
3 -7 -6 26.3 2.8
3 -7 -6 25.8 2.7
-3 7 6 23 2.6
-3 7 6 19.2 2.4
2 -7 -6 1272.77 71.29
2 -7 -6 1326.47 70.99
-2 7 6 1351.86 71.09
-2 7 6 1387.86 71.39
1 -7 -6 69.59 4.7
1 -7 -6 67.69 4.3
-1 7 6 69.69 4.6
-1 7 6 71.59 4.7
-1 7 6 61.89 4.2
0 -7 -6 877.71 45.3
0 -7 -6 812.82 45.4
0 7 6 828.82 45.1
0 7 6 852.71 45.4
-1 -7 -6 6.6 1.7
-1 -7 -6 8 1.4
1 7 6 7.6 1.5
1 7 6 8.8 1.4
-2 -7 -6 173.18 9.6
-2 -7 -6 163.18 10
2 7 6 160.98 9.8
2 7 6 165.98 10
-3 -7 -6 4.9 1.9
-3 -7 -6 6.3 1.5
3 7 6 7.1 1.8
3 7 6 5.4 1.9
3 7 6 8 2.3
-4 -7 -6 30.1 3.8
-4 -7 -6 20.9 2.9
4 7 6 27.8 3.6
-5 -7 -6 -1.7 1.6
-5 -7 -6 0.3 2.5
5 7 6 -0.5 2.2
-6 -7 -6 11.1 3.4
6 7 6 3.9 3.2
-7 -7 -6 0.7 3.8
7 7 6 5.1 3.8
7 7 6 1.3 3.1
6 -8 -6 88.39 7.1
-6 8 6 84.99 6.9
5 -8 -6 11.6 2.6
-5 8 6 7.6 2.5
4 -8 -6 194.98 11.3
4 -8 -6 183.88 11.6
-4 8 6 189.18 10.9
-4 8 6 194.88 11.6
3 -8 -6 1.1 1.8
3 -8 -6 2.3 1.5
-3 8 6 6.1 1.9
-3 8 6 3.2 1.5
2 -8 -6 304.97 18.3
2 -8 -6 323.77 18
-2 8 6 328.67 17.9
-2 8 6 340.57 18.3
-2 8 6 340.17 18.5
1 -8 -6 14.6 1.9
1 -8 -6 16 2.3
-1 8 6 13.2 2
-1 8 6 13.9 1.7
0 -8 -6 369.86 21.8
0 8 6 382.66 21.4
0 8 6 438.06 22
0 8 6 388.96 21.9
-1 -8 -6 2.3 1.7
-1 -8 -6 3.3 1.4
1 8 6 1.4 1.3
1 8 6 -0.1 1.1
-2 -8 -6 237.58 13.9
-2 -8 -6 248.18 13.5
2 8 6 235.38 13.8
2 8 6 224.08 13.4
-3 -8 -6 4.1 1.8
-3 -8 -6 7.9 1.8
3 8 6 3.8 1.7
3 8 6 5.9 2
-4 -8 -6 30 3.7
4 8 6 43.3 5.3
4 8 6 43.2 4.4
-5 -8 -6 66.09 5.3
-5 -8 -6 79.39 6.6
5 8 6 71.89 6
5 8 6 75.59 6.5
-6 -8 -6 2.3 3.1
6 8 6 5.3 2.7
6 8 6 -1.7 3.1
-7 -8 -6 70.09 7.8
7 8 6 61.39 7.6
7 8 6 73.99 7.3
-6 9 6 -0.7 2.8
5 -9 -6 18.7 3
-5 9 6 21.5 3.2
4 -9 -6 2.7 2.4
4 -9 -6 -0.5 1.8
-4 9 6 -2.1 1.6
-4 9 6 1.2 2.1
3 -9 -6 26.9 2.9
3 -9 -6 30.3 3.5
-3 9 6 30.2 3.3
-3 9 6 30 3.4
2 -9 -6 15.1 2
2 -9 -6 15.7 2.5
-2 9 6 13.3 1.7
-2 9 6 14.4 2.1
-2 9 6 13.1 2.2
1 -9 -6 -1.8 1.7
-1 9 6 0.7 1
-1 9 6 1.8 1.6
0 -9 -6 52.99 4.3
0 9 6 51.39 4.2
0 9 6 47.7 3.5
0 9 6 52.39 3.8
-1 -9 -6 29.8 3.6
1 9 6 36.8 3
1 9 6 28.8 3.7
-2 -9 -6 62.19 4.6
-2 -9 -6 49.8 4.7
2 9 6 56.59 5.1
2 9 6 60.29 4.5
-3 -9 -6 43.5 5
-3 -9 -6 39.9 4
3 9 6 36.1 3.9
3 9 6 32.7 4.3
-4 -9 -6 26.5 3.2
-4 -9 -6 24.2 3.6
4 9 6 27.8 3.5
4 9 6 28.8 4
-5 -9 -6 4.9 3.1
-5 -9 -6 8.1 2.7
5 9 6 3.4 2.7
5 9 6 1.4 2.8
-6 -9 -6 -0.3 3.5
6 9 6 -0.3 3.4
6 9 6 2.1 2.9
5 -10 -6 4.9 3
-5 10 6 0.4 2.7
4 -10 -6 8.4 3.2
-4 10 6 11.9 2.9
3 -10 -6 3.6 2.6
-3 10 6 6.6 2
-3 10 6 2.7 2.2
2 -10 -6 15.9 2.5
-2 10 6 18.2 2.7
1 -10 -6 1.2 2.7
-1 10 6 1.9 1.9
0 -10 -6 27.5 3.8
0 10 6 36.5 3.7
0 10 6 31.5 2.9
-1 -10 -6 1.3 1.7
1 10 6 1.5 1.5
1 10 6 2.3 2.5
-2 -10 -6 14.3 2.6
2 10 6 14.5 2.2
2 10 6 12 2.5
-3 -10 -6 2.3 2.3
3 10 6 1 2.1
3 10 6 2.7 2
-4 -10 -6 2.9 2.6
-4 -10 -6 -7 2.8
4 10 6 2.1 2.6
4 10 6 0.7 2.5
-5 -10 -6 5.2 3.5
-5 -10 -6 10.2 2.8
5 10 6 4.7 3.2
5 10 6 3 3.2
-6 -10 -6 8.8 4
6 10 6 7.7 3.8
6 10 6 -1.3 3.4
4 -11 -6 1.1 3.2
-4 11 6 4.4 2.3
-4 11 6 3.7 3
3 -11 -6 6.3 2.7
-3 11 6 2.3 2.2
-3 11 6 2.9 2.7
2 -11 -6 2 2.4
-2 11 6 2 2.1
1 -11 -6 4.1 2.4
-1 11 6 8.6 2.3
0 -11 -6 0.4 2.2
0 11 6 1.3 2.2
-1 -11 -6 2.9 2.3
1 11 6 1.3 2.6
-2 -11 -6 8.7 3.6
2 11 6 6.9 2.9
-3 -11 -6 3 2.9
3 11 6 -0.8 2.7
-4 -11 -6 22.6 3.6
4 11 6 19.2 3.7
5 11 6 2.1 3.3
3 -12 -6 33.3 4.6
-3 12 6 28.7 4.1
-3 12 6 32.1 3.8
2 -12 -6 12.1 3.5
-2 12 6 15.4 3
1 -12 -6 26.4 3.9
-1 12 6 35.9 4.2
0 -12 -6 7.5 3
0 12 6 5 3
-1 -12 -6 13.8 3
1 12 6 8.3 3.2
-2 -12 -6 -1.5 2.9
2 12 6 -2.1 3.1
-3 -12 -6 10 3.8
3 12 6 6.6 3.2
-4 -12 -6 4.7 3.8
4 12 6 3.5 3.7
2 -13 -6 6 4.2
-2 13 6 8.3 3.1
1 -13 -6 -1.3 3.4
-1 13 6 5.1 3.2
0 -13 -6 1 3.6
0 13 6 1.8 3.2
-1 -13 -6 -0.6 3.4
1 13 6 13.1 3.7
-2 -13 -6 1.6 3.7
2 13 6 8.9 3.7
1 7 -7 1.9 2.1
-1 -7 7 2.2 3.6
0 7 -7 23 3
0 -7 7 21 3.8
-1 7 -7 -0.6 2.2
1 -7 7 -5.8 3.2
-2 7 -7 5.1 2.5
2 -7 7 6.3 3.8
-3 -6 7 9.3 3.3
2 6 -7 7.9 2
-2 -6 7 3.6 3.2
1 6 -7 4.6 1.8
-1 -6 7 4.6 2.6
0 6 -7 10.7 2.1
0 -6 7 4.1 2.8
-1 6 -7 1 1.8
1 -6 7 7.6 2.9
-2 6 -7 6.4 2.1
2 -6 7 5.8 3.2
-3 6 -7 7.7 2.2
3 -6 7 0 3.4
-4 6 -7 10.2 2.6
4 5 -7 6.4 3
-4 -5 7 0.4 3.1
3 5 -7 2.2 2.6
-3 -5 7 1.2 2.4
2 5 -7 0.6 1.4
2 5 -7 4.2 2.3
-2 -5 7 -1 1.7
-2 -5 7 1 2
1 5 -7 0.2 2
1 5 -7 0.4 1.4
-1 -5 7 -0.1 2.1
-1 -5 7 2.9 1.7
0 5 -7 -1.6 1.4
0 -5 7 1.7 1.6
0 -5 7 -0.4 2.1
-1 5 -7 1.4 1.5
1 -5 7 -2.4 1.7
1 -5 7 1.5 2.1
-2 5 -7 3.7 1.7
2 -5 7 3.4 2.5
2 -5 7 1.5 2.3
-3 5 -7 4.3 1.7
3 -5 7 0.1 2.9
3 -5 7 6 2.8
-4 5 -7 0.2 2.1
4 -5 7 5.4 3.5
-5 5 -7 4.3 2.7
5 4 -7 4.6 3.5
-5 -4 7 -6.3 3
4 4 -7 4.8 3
-4 -4 7 2 2.6
3 4 -7 6 2.4
-3 -4 7 3.2 2.4
2 4 -7 3.2 1.2
2 4 -7 7 2
-2 -4 7 0.4 1.9
-2 -4 7 2.1 1.4
1 4 -7 1.1 1.8
1 4 -7 2.2 1.3
-1 -4 7 3.3 1.8
-1 -4 7 4 1.5
0 4 -7 84.39 5.2
0 -4 7 74.49 5.4
0 -4 7 83.39 5.8
-1 4 -7 -1.6 1.2
1 -4 7 1.2 1.9
1 -4 7 -1.4 1.5
-2 4 -7 200.98 12
2 -4 7 202.28 12.4
2 -4 7 226.08 12.4
-3 4 -7 4.5 1.7
3 -4 7 2.1 2.3
3 -4 7 2.1 2.3
-4 4 -7 197.48 11.9
4 -4 7 210.58 12.8
-5 4 -7 4.3 2.2
5 -4 7 4.5 3.5
5 3 -7 8.8 3.1
-5 -3 7 14.2 3.1
4 3 -7 14.6 2.8
-4 -3 7 5.4 2.2
3 3 -7 43.7 4.2
-3 -3 7 40.1 4.1
2 3 -7 10.7 1.4
2 3 -7 12.1 2.2
-2 -3 7 10 2.1
1 3 -7 16.1 2.3
1 3 -7 19 2
-1 -3 7 19 2.5
-1 -3 7 17.7 2.3
0 3 -7 22.2 2.1
0 3 -7 18.4 2.6
0 -3 7 17.3 2.3
0 -3 7 18.8 2.2
-1 3 -7 5.3 1.3
1 -3 7 4 1.5
1 -3 7 3.4 1.4
-2 3 -7 32 2.9
2 -3 7 32.9 3.5
2 -3 7 30.3 3.2
-3 3 -7 14.8 2.1
3 -3 7 13.7 2.6
3 -3 7 9.6 2.3
-4 3 -7 55.79 4.7
4 -3 7 69.69 5.6
-5 3 -7 31.8 3.5
5 -3 7 32.1 4.7
-6 3 -7 52.19 5.3
6 -3 7 76.79 7.3
6 2 -7 11 3.7
-6 -2 7 10.7 3
5 2 -7 27.7 3.8
-5 -2 7 17.6 2.9
4 2 -7 44.5 4.7
-4 -2 7 53.29 4.5
3 2 -7 0.2 0.9
3 2 -7 -1.4 1.7
2 2 -7 51.69 3.5
2 2 -7 55.19 4.4
-2 -2 7 63.49 4.4
1 2 -7 58.29 3.9
1 2 -7 66.69 4.6
-1 -2 7 64.09 4.4
-1 -2 7 59.99 4.4
0 2 -7 19.6 2.7
0 2 -7 25 2.1
0 -2 7 27.5 2.5
0 -2 7 26.6 2.5
-1 2 -7 138.59 8.3
1 -2 7 141.39 8.4
1 -2 7 153.18 8.7
-2 2 -7 1.3 1
2 -2 7 2.1 1.3
2 -2 7 3 1.4
-3 2 -7 53.49 4.1
3 -2 7 57.89 4.3
3 -2 7 60.29 4.8
-4 2 -7 3.7 1.4
4 -2 7 -1.1 1.9
4 -2 7 -1.2 1.4
-5 2 -7 5 2.1
5 -2 7 7.4 3.1
-6 2 -7 2 2.3
6 -2 7 7.4 3.7
-7 2 -7 5 2.8
7 -2 7 3.1 4.4
6 1 -7 44.1 5.9
-6 -1 7 44 4.9
5 1 -7 65.59 5.5
-5 -1 7 68.49 5.4
4 1 -7 98.19 7.2
-4 -1 7 115.89 7.1
3 1 -7 2.6 0.9
3 1 -7 3.6 1.8
-3 -1 7 3.5 1.4
2 1 -7 66.49 4.4
2 1 -7 80.39 5.3
-2 -1 7 81.69 5
-2 -1 7 73.59 4.7
1 1 -7 54.59 3.9
1 1 -7 53.99 3.5
-1 -1 7 56.59 3.9
-1 -1 7 55.19 3.8
0 1 -7 23.6 2.5
0 1 -7 24.3 2.1
0 -1 7 21.7 2.2
0 -1 7 24.2 2.4
-1 1 -7 76.09 4.7
1 -1 7 80.49 5.2
1 -1 7 75.49 4.7
-2 1 -7 19.3 2.1
-2 1 -7 19.2 1.9
2 -1 7 19.2 2.3
-3 1 -7 22.8 2.6
3 -1 7 26 3.2
3 -1 7 25.5 2.4
-4 1 -7 32.9 4.3
4 -1 7 32.9 4
4 -1 7 31.9 2.4
-5 1 -7 6.2 1.9
5 -1 7 7.5 2.8
-6 1 -7 11.5 2.6
6 -1 7 20.6 3.9
-7 1 -7 1.9 2.5
7 -1 7 11.2 4.2
6 0 -7 11.3 3.4
-6 0 7 11.4 2.8
5 0 -7 396.06 23.6
-5 0 7 435.06 23.3
4 0 -7 38.9 4.1
-4 0 7 37.2 3.7
3 0 -7 476.05 23.5
3 0 -7 401.06 24.3
-3 0 7 440.16 24.2
2 0 -7 226.78 11.6
2 0 -7 208.98 12.3
-2 0 7 200.98 12
-2 0 7 209.28 11.6
1 0 -7 151.18 8.8
1 0 -7 167.88 9.4
-1 0 7 154.98 8.9
-1 0 7 162.38 9.3
-1 0 7 156.78 9.1
0 0 -7 312.37 15.8
0 0 -7 298.97 16.3
0 0 7 269.97 15.8
0 0 7 276.47 16.2
-1 0 -7 -0.4 0.8
-1 0 -7 0.2 0.8
1 0 7 1.1 1.1
-2 0 -7 72.89 4.2
-2 0 -7 68.39 4.6
2 0 7 77.69 4.4
2 0 7 66.49 5
-3 0 -7 46.3 2.6
-3 0 -7 37.5 3.2
3 0 7 47.6 3.8
3 0 7 43.4 2.8
-4 0 -7 0.6 1.3
4 0 7 -0.7 1.7
-5 0 -7 43.2 3.8
5 0 7 41.9 5.7
-6 0 -7 2.1 2
6 0 7 2.8 2.9
-7 0 -7 11.5 2.8
7 0 7 13.1 4.3
6 -1 -7 32.6 4.2
-6 1 7 29.8 4.1
5 -1 -7 223.08 13.4
-5 1 7 212.78 12.8
4 -1 -7 -0.7 1.9
-4 1 7 -0.4 1.4
3 -1 -7 281.47 15.9
-3 1 7 274.97 15.5
2 -1 -7 80.89 4.3
2 -1 -7 64.79 4.9
-2 1 7 69.89 4.6
-2 1 7 70.39 4.2
1 -1 -7 297.47 15.5
1 -1 -7 266.07 14.9
-1 1 7 276.57 14.8
-1 1 7 254.87 15
0 -1 -7 79.29 5.3
0 -1 -7 80.79 4.9
0 -1 -7 78.99 4.8
0 1 7 80.99 5.2
0 1 7 83.89 4.8
-1 -1 -7 104.49 5.9
-1 -1 -7 99.49 6.1
1 1 7 98.89 6.4
1 1 7 107.89 5.9
-2 -1 -7 15.8 1.3
-2 -1 -7 13.8 1.7
2 1 7 12.2 2
2 1 7 14.8 1.4
-3 -1 -7 1.4 1.2
3 1 7 2 1.3
-4 -1 -7 -1.6 1.1
4 1 7 0.4 1.5
-5 -1 -7 11.2 3.5
-6 -1 -7 6.7 2.1
6 1 7 4.7 2.7
-7 -1 -7 12.7 2.8
7 1 7 13.6 4.4
7 -2 -7 11.2 3.9
-7 2 7 15.6 3.3
6 -2 -7 4.7 3.2
-6 2 7 1.5 2.3
5 -2 -7 28 3.7
-5 2 7 28.8 3.2
4 -2 -7 2.7 1.5
-4 2 7 4.5 1.4
3 -2 -7 17 2.4
-3 2 7 16.2 1.8
2 -2 -7 0.8 1.2
2 -2 -7 1.3 0.9
-2 2 7 0.5 0.9
-2 2 7 1.4 0.6
1 -2 -7 27.4 2.6
-1 2 7 29.3 2.2
-1 2 7 32.9 2.2
0 -2 -7 20.4 1.8
0 -2 -7 20.4 2.1
0 -2 -7 17.5 2.2
0 2 7 20.3 1.6
0 2 7 17.2 2.1
0 2 7 19.3 1.9
-1 -2 -7 69.29 4.7
-1 -2 -7 80.79 4.5
1 2 7 78.39 4.5
1 2 7 78.39 5.1
1 2 7 77.19 4.4
-2 -2 -7 30.3 2.5
2 2 7 31.9 2.8
-3 -2 -7 47.5 3.6
3 2 7 52.79 4.2
-4 -2 -7 19.5 2.5
4 2 7 18.1 2.8
-5 -2 -7 3.5 1.7
5 2 7 2.1 2.1
-6 -2 -7 -1.1 1.9
6 2 7 -3 2.4
-7 -2 -7 2.5 2.7
7 2 7 7.2 4.6
7 -3 -7 2.5 3.6
-7 3 7 4.4 2.5
6 -3 -7 4 2.5
-6 3 7 -4.6 2
5 -3 -7 3.3 2.1
-5 3 7 2.3 1.7
4 -3 -7 2.7 1.7
-4 3 7 6.5 1.5
3 -3 -7 3.3 1.6
-3 3 7 3.2 1
2 -3 -7 -0.1 1
2 -3 -7 -0.1 1
-2 3 7 0.7 0.9
-2 3 7 -0.4 0.6
1 -3 -7 37.5 3.1
1 -3 -7 36.6 3.2
-1 3 7 40.2 2.7
-1 3 7 37.1 2.5
0 -3 -7 7.1 1.2
0 -3 -7 5.4 1.4
0 -3 -7 5.6 1.2
0 3 7 6 1
0 3 7 7.3 1.3
0 3 7 6.4 1.3
-1 -3 -7 106.39 6.8
1 3 7 119.79 6.5
1 3 7 116.49 6.3
1 3 7 114.79 7
-2 -3 -7 8.1 1.2
2 3 7 11.8 1.8
-3 -3 -7 62.09 4.2
3 3 7 59.59 4.6
-4 -3 -7 2 1.4
4 3 7 1.1 1.7
-5 -3 -7 7 1.9
5 3 7 7.5 2.7
-6 -3 -7 -0.2 2
6 3 7 3 2.9
-7 -3 -7 5.3 2.8
7 3 7 3.7 3.7
7 -4 -7 0.4 3.4
-7 4 7 1.8 2.7
6 -4 -7 11.8 3.2
-6 4 7 10.2 2.1
5 -4 -7 -3.8 2
-5 4 7 0.2 1.7
4 -4 -7 0.7 1.6
-4 4 7 0.9 1.3
3 -4 -7 7.2 1.7
-3 4 7 6.4 1.3
-3 4 7 4.1 0.7
-3 4 7 5.7 1
2 -4 -7 27.7 2.7
2 -4 -7 24 2.3
-2 4 7 26.5 2.3
-2 4 7 28.5 2.2
-2 4 7 25.4 2
1 -4 -7 56.19 3.7
1 -4 -7 57.39 3.9
-1 4 7 54.39 3.8
-1 4 7 52.19 3.5
-1 4 7 56.09 3.6
0 -4 -7 45.4 3.4
0 -4 -7 45.4 3.5
0 4 7 50.99 3.5
0 4 7 47 3.5
0 4 7 47.5 3
-1 -4 -7 121.49 7.7
1 4 7 138.89 7.4
1 4 7 130.79 7.9
1 4 7 130.49 7.2
-2 -4 -7 4.2 1.3
2 4 7 1.2 1.1
2 4 7 4.3 0.7
2 4 7 2.8 0.5
-3 -4 -7 91.89 5.8
3 4 7 87.49 6.2
-4 -4 -7 8.1 1.8
4 4 7 6.3 1.9
-5 -4 -7 36.9 3.9
5 4 7 30.8 4.1
-6 -4 -7 5.6 2.7
6 4 7 5.2 3
-7 -4 -7 -3.1 3.1
7 4 7 6.2 3.8
7 -5 -7 1.5 3.6
-7 5 7 8.2 2.9
6 -5 -7 0.9 2.7
-6 5 7 1.6 2.2
5 -5 -7 2.4 2.3
-5 5 7 0 1.7
4 -5 -7 51.59 4.3
-4 5 7 56.99 4.3
3 -5 -7 14.7 2.2
-3 5 7 17.4 1.9
-3 5 7 19.3 1.9
-3 5 7 17.7 2.3
2 -5 -7 197.88 11.2
-2 5 7 190.28 10.8
-2 5 7 201.08 11
-2 5 7 183.28 10.6
1 -5 -7 97.79 6.4
1 -5 -7 107.89 6.4
-1 5 7 104.59 6.2
-1 5 7 108.49 6.4
-1 5 7 105.19 6.3
0 -5 -7 214.68 12.5
0 -5 -7 218.98 12.6
0 5 7 230.98 12.2
0 5 7 230.78 12.5
0 5 7 210.28 12.4
-1 -5 -7 94.49 5.9
1 5 7 90.19 5.8
1 5 7 89.19 5.6
1 5 7 97.69 5.4
-2 -5 -7 76.79 4.5
-2 -5 -7 78.89 5.3
2 5 7 78.39 5.3
2 5 7 80.29 4.6
2 5 7 75.59 4.4
-3 -5 -7 19 2.4
3 5 7 20.9 2.7
-4 -5 -7 10.8 1.9
4 5 7 12.6 2.5
-5 -5 -7 2.2 3.5
5 5 7 3.6 2.9
-6 -5 -7 3.4 2.6
6 5 7 4.9 3.2
-7 -5 -7 22.5 4.2
7 5 7 20.3 4.6
6 -6 -7 -2.4 2.6
-6 6 7 1.8 2.3
5 -6 -7 8.3 2.5
-5 6 7 14.3 2.5
4 -6 -7 7 2.2
-4 6 7 6.1 1.2
-4 6 7 7.5 1.9
3 -6 -7 15.5 2.2
-3 6 7 15.5 1.9
-3 6 7 18 2.1
-3 6 7 15.8 2.1
2 -6 -7 -0.9 1.2
-2 6 7 -0.3 1
-2 6 7 1.6 1.1
1 -6 -7 30 3.1
1 -6 -7 40.3 3
1 -6 -7 39.3 3
-1 6 7 38 3
-1 6 7 37.8 3
-1 6 7 39.9 3
0 -6 -7 15 1.9
0 -6 -7 13.4 2
0 -6 -7 15.4 1.9
0 6 7 14.8 2
0 6 7 14 1.8
0 6 7 16.1 1.7
-1 -6 -7 3 0.9
-1 -6 -7 2.9 1.5
1 6 7 4.6 1
1 6 7 2.6 1.1
1 6 7 4.8 1.3
-2 -6 -7 15.6 1.8
-2 -6 -7 18.9 2.4
2 6 7 12.9 2
2 6 7 18.6 1.9
-3 -6 -7 48.6 4.3
-3 -6 -7 57.99 3.6
3 6 7 54.99 3.4
3 6 7 51.79 4.5
-4 -6 -7 2.4 1.1
-4 -6 -7 1.8 2
4 6 7 2.6 1.8
-5 -6 -7 16.1 2.8
-6 -6 -7 -2 2.5
6 6 7 0.4 2.9
-7 -6 -7 -0.4 3.7
7 6 7 -2.6 3.3
6 -7 -7 5.2 3.1
-6 7 7 9.9 2.6
5 -7 -7 20.6 3.2
-5 7 7 28 3.3
4 -7 -7 34.6 3.7
-4 7 7 32.4 2.8
-4 7 7 36.8 3.7
3 -7 -7 95.79 6.1
-3 7 7 88.69 6.2
-3 7 7 93.29 5.8
2 -7 -7 397.66 21.4
2 -7 -7 392.06 21.2
-2 7 7 387.56 21.4
-2 7 7 365.36 21.2
1 -7 -7 40.7 3.2
1 -7 -7 38.5 3.3
-1 7 7 38.5 3.2
-1 7 7 38.1 3.2
-1 7 7 41.5 3.1
0 -7 -7 792.92 43.7
0 -7 -7 820.22 43.4
0 7 7 818.62 43.5
0 7 7 802.42 43.4
0 7 7 813.12 43.7
-1 -7 -7 13.8 2.1
-1 -7 -7 10.6 1.5
1 7 7 12.1 2
1 7 7 9.4 1.6
-2 -7 -7 678.33 37.5
-2 -7 -7 686.13 36.9
2 7 7 676.43 37.3
2 7 7 679.13 37.4
2 7 7 715.03 36.9
-3 -7 -7 52.59 3.9
-3 -7 -7 50.99 4.6
3 7 7 52.79 4.5
3 7 7 54.69 3.7
-4 -7 -7 428.06 23.2
-4 -7 -7 441.86 24
4 7 7 407.76 24.1
-5 -7 -7 6.5 3.1
5 7 7 9 4.5
-6 -7 -7 232.98 14.3
6 7 7 222.48 14.6
-7 -7 -7 3.9 4.2
7 7 7 -5.9 4.2
6 -8 -7 -1.1 3
-6 8 7 3.6 2.6
5 -8 -7 2.3 2.5
-5 8 7 2.1 2.3
4 -8 -7 -0.8 1.9
-4 8 7 -2.2 1.8
-4 8 7 0 1.4
3 -8 -7 15.8 2.4
-3 8 7 20.7 2.3
-3 8 7 18.9 3.7
2 -8 -7 44.9 4
2 -8 -7 43.6 3.4
-2 8 7 43.2 3.3
-2 8 7 47.4 3.9
-2 8 7 48.4 3.8
1 -8 -7 13.7 2.1
1 -8 -7 19 2.2
-1 8 7 16.3 2.2
-1 8 7 13.3 2.1
-1 8 7 17.5 2
0 -8 -7 395.46 22.9
0 -8 -7 440.76 22.8
0 8 7 412.16 23
0 8 7 404.96 22.6
-1 -8 -7 6.4 1.9
-1 -8 -7 4.6 1.6
1 8 7 7 1.5
1 8 7 3.9 1.9
-2 -8 -7 933.31 49.3
-2 -8 -7 950.9 49.8
2 8 7 880.91 49.4
2 8 7 907.31 49.7
-3 -8 -7 9 1.8
-3 -8 -7 10 2.5
3 8 7 10.1 2.2
3 8 7 9.5 2.1
-4 -8 -7 695.83 38
-4 -8 -7 673.33 37.2
4 8 7 693.73 38
4 8 7 697.73 38.1
-5 -8 -7 16.8 3.4
5 8 7 19 3.6
5 8 7 20.2 3.2
-6 -8 -7 290.57 18.2
6 8 7 296.67 17.9
6 8 7 312.57 18.7
-7 -8 -7 3.8 4.4
7 8 7 2.6 4.1
7 8 7 5.6 3.6
5 -9 -7 4.9 2.7
-5 9 7 0.7 2.4
4 -9 -7 33.7 3.9
4 -9 -7 28.3 3.5
-4 9 7 23.1 3.4
-4 9 7 24.5 3.2
3 -9 -7 11.2 2.5
3 -9 -7 7.3 1.9
-3 9 7 11 2.3
-3 9 7 9.6 2
2 -9 -7 46.2 4.3
2 -9 -7 42.7 3.6
-2 9 7 40.1 3.3
-2 9 7 45.6 4.2
-2 9 7 44.3 3.8
1 -9 -7 41.2 4
-1 9 7 35 3.8
-1 9 7 41.3 3.7
-1 9 7 37.8 3.1
0 -9 -7 24.7 3.3
0 9 7 26.2 2.7
0 9 7 34.1 3.6
-1 -9 -7 58.39 4.8
-1 -9 -7 46.1 4.3
1 9 7 48.5 4.6
1 9 7 55.59 4.1
-2 -9 -7 33.4 4
-2 -9 -7 37.4 3.6
2 9 7 32.3 3.6
2 9 7 27 3.5
-3 -9 -7 27.5 3.6
-3 -9 -7 25.2 3
3 9 7 31.4 4
3 9 7 27.8 3.6
-4 -9 -7 131.09 8.4
-4 -9 -7 128.99 8.9
4 9 7 135.19 9
4 9 7 120.49 8.7
-5 -9 -7 0.3 3.3
5 9 7 4.9 3
5 9 7 -1.4 2.7
-6 -9 -7 183.48 12.5
6 9 7 177.28 11.9
6 9 7 163.88 12.1
-5 10 7 -2.4 2.9
4 -10 -7 20.1 3.6
-4 10 7 25.5 3.4
-4 10 7 22.2 3
3 -10 -7 -2.3 2.3
3 -10 -7 -2.1 2.8
-3 10 7 1.3 1.6
-3 10 7 3.9 2
-3 10 7 1.5 2.3
2 -10 -7 52.59 4.6
2 -10 -7 40.8 3.6
-2 10 7 39.9 4.1
-2 10 7 38.8 3.2
-2 10 7 39.5 4.3
-1 10 7 1.7 2
-1 10 7 -0.7 1.3
0 -10 -7 21.3 3.1
0 10 7 23.7 2.7
-1 -10 -7 -0.3 1.9
1 10 7 0.2 1.6
1 10 7 -1.1 2
-2 -10 -7 0.6 2.1
2 10 7 9.8 2.5
2 10 7 4.4 2
-3 -10 -7 10.3 2.9
-3 -10 -7 -1.2 2.2
3 10 7 2.7 2.2
3 10 7 4 2.6
-4 -10 -7 3.6 2.8
-4 -10 -7 12.4 3.5
4 10 7 8.7 2.7
4 10 7 8.7 2.8
-5 -10 -7 -4.4 3.3
5 10 7 -7.7 3.1
5 10 7 2.6 2.9
-6 -10 -7 3.1 4
6 10 7 2.9 3.5
6 10 7 4.3 4.1
4 -11 -7 -2.7 3.4
-4 11 7 4.2 2.5
-4 11 7 -3.3 3
3 -11 -7 7.9 3.2
-3 11 7 11 2.9
-3 11 7 6 2.4
2 -11 -7 0.7 2.4
-2 11 7 -2 2.1
-2 11 7 -0.7 2.3
1 -11 -7 0.7 2.4
-1 11 7 3.9 2.3
0 -11 -7 3.8 2.4
0 11 7 -1.2 2.3
1 11 7 3.1 2.7
-2 -11 -7 14.3 2.8
2 11 7 16.6 3.2
-3 -11 -7 1.7 2.7
3 11 7 0.1 2.4
-4 -11 -7 -1.5 3.2
4 11 7 1.3 2.7
5 11 7 0.2 3.1
3 -12 -7 30 4.3
-3 12 7 30.2 4.2
-3 12 7 18.5 3.5
2 -12 -7 1.2 3
-2 12 7 0.6 2.6
-2 12 7 -4 2.5
1 -12 -7 6.4 2.9
-1 12 7 2.3 2.6
0 -12 -7 17.3 3.6
0 12 7 20.1 3.7
-1 -12 -7 -2.5 2.9
1 12 7 1 3.2
-2 -12 -7 49.5 5.8
2 12 7 61.29 5.8
-3 -12 -7 -0.4 3
3 12 7 5.1 3.5
4 12 7 17 4.3
1 -13 -7 25.2 4.2
-1 13 7 17.8 3.8
0 -13 -7 -3.2 3.1
0 13 7 0.6 2.8
-1 -13 -7 3.5 3.6
1 13 7 1.5 3.5
-2 -13 -7 -7.6 3.3
2 13 7 2.6 3.9
1 6 -8 6.2 2.3
-1 -6 8 1.1 3.1
0 6 -8 7.3 2.2
0 -6 8 4 3.2
-1 6 -8 8.3 2.4
1 -6 8 1.9 3.3
-2 6 -8 3 2.5
2 -6 8 -8.7 3.3
3 5 -8 1.3 2.9
-3 -5 8 3.4 2.4
-3 -5 8 8.1 3.2
2 5 -8 3.1 2.9
-2 -5 8 1.9 2.7
-2 -5 8 1.1 2.2
1 5 -8 5.9 2
-1 -5 8 8.4 2.9
0 5 -8 5.3 1.8
0 -5 8 0.8 2.1
0 -5 8 3.2 2.5
-1 5 -8 0.7 1.8
1 -5 8 0.5 2.1
1 -5 8 -3.9 2.2
-2 5 -8 2.1 2.1
2 -5 8 1.8 3.8
-3 5 -8 -3.1 2.2
-4 5 -8 2.2 2.7
4 4 -8 11.3 3.5
-4 -4 8 5.2 3.1
3 4 -8 -1.8 2.7
-3 -4 8 1.6 2.5
2 4 -8 18.6 2.9
2 4 -8 15.3 2
-2 -4 8 15.5 2.9
-2 -4 8 15 2.5
1 4 -8 0 1.4
1 4 -8 3.3 2.4
-1 -4 8 -1.5 2
-1 -4 8 0.6 1.8
0 4 -8 11 2.1
0 -4 8 11.8 2.3
-1 4 -8 13.8 2.1
1 -4 8 12.1 2.6
1 -4 8 12.8 2.5
-2 4 -8 3.5 1.8
2 -4 8 5.7 2.4
2 -4 8 4.3 2.3
-3 4 -8 7.9 2.2
3 -4 8 8.8 3.3
-4 4 -8 -1.6 2
4 -4 8 -2.6 3.2
-5 4 -8 0 2.6
5 -4 8 2 4.1
4 3 -8 2.2 2.9
-4 -3 8 1.9 2.5
3 3 -8 3.5 2.4
-3 -3 8 1.1 2.1
2 3 -8 11.1 1.6
-2 -3 8 12.1 2.4
-2 -3 8 14.7 2.6
1 3 -8 0.9 2
1 3 -8 1 1.3
-1 -3 8 2.8 1.8
-1 -3 8 3.9 1.6
0 3 -8 57.09 3.9
0 -3 8 53.89 4.4
0 -3 8 49.9 4.3
-1 3 -8 2 1.5
1 -3 8 1.8 1.6
1 -3 8 2.6 1.8
-2 3 -8 30.7 3.1
2 -3 8 30.8 3.7
2 -3 8 39.3 3.9
-3 3 -8 3.1 1.7
3 -3 8 -0.7 2.3
3 -3 8 5.5 3.6
-4 3 -8 -0.5 2.1
4 -3 8 1.4 2.8
-5 3 -8 -0.9 2.5
5 -3 8 0.2 3.5
5 2 -8 13.5 3.4
-5 -2 8 16.4 3
4 2 -8 -3.1 2.5
-4 -2 8 0 2.1
3 2 -8 37.6 4.4
-3 -2 8 51.89 4.3
2 2 -8 33.2 3.6
2 2 -8 26.9 2.5
-2 -2 8 33.5 3.6
1 2 -8 33.8 3.5
1 2 -8 28.7 2.6
-1 -2 8 31.7 3.2
-1 -2 8 31.8 3.2
0 2 -8 157.78 8.6
0 2 -8 139.19 9.1
0 -2 8 146.59 8.8
0 -2 8 146.19 9
-1 2 -8 2.6 1.2
1 -2 8 2.7 1.6
1 -2 8 3.6 1.4
-2 2 -8 103.89 6.7
2 -2 8 116.09 6.9
2 -2 8 106.29 7.2
-3 2 -8 5 1.8
3 -2 8 4.6 1.9
3 -2 8 6.4 2.2
-4 2 -8 18.7 2.7
4 -2 8 18.9 3.3
-5 2 -8 15.5 2.8
5 -2 8 15.7 3.7
-6 2 -8 7 2.7
6 -2 8 8.8 4.2
5 1 -8 15.9 3.3
-5 -1 8 16.2 2.9
4 1 -8 5.9 2.3
-4 -1 8 5.3 2
3 1 -8 12.8 2.2
-3 -1 8 13.7 2.2
2 1 -8 1.6 1.1
2 1 -8 5 1.8
-2 -1 8 6 1.5
1 1 -8 0.8 1.5
1 1 -8 0.2 1
-1 -1 8 -0.3 1.1
-1 -1 8 0.4 1.2
0 1 -8 12.9 1.6
0 1 -8 12.7 2.1
0 -1 8 12.1 1.8
0 -1 8 15.3 2
-1 1 -8 9.7 1.5
1 -1 8 13.5 1.9
1 -1 8 11.9 1.6
-2 1 -8 0.1 1.2
2 -1 8 2.6 1.3
2 -1 8 1.4 1.6
3 -1 8 4.6 2
3 -1 8 1.7 1.5
-4 1 -8 14.4 2.3
-5 1 -8 2.1 2
5 -1 8 -4 2.7
-6 1 -8 5.1 2.5
6 -1 8 2.9 3.6
6 0 -8 16.2 3.7
-6 0 8 6.1 2.8
5 0 -8 99.59 7.4
-5 0 8 89.09 6.7
4 0 -8 9.7 2.7
-4 0 8 11.4 2.2
3 0 -8 394.16 25.3
-3 0 8 436.56 23.1
2 0 -8 14.1 2.3
2 0 -8 13.6 1.5
-2 0 8 12.4 1.9
1 0 -8 957.3 52.69
1 0 -8 1044.4 52.09
-1 0 8 973.3 52.59
-1 0 8 936.71 52.29
0 0 -8 78.89 5.5
0 0 -8 88.79 4.9
0 0 8 68.59 5.2
0 0 8 79.29 5
-1 0 -8 716.73 36.5
1 0 8 729.53 37
1 0 8 595.04 36.3
-2 0 -8 153.48 9.6
-2 0 -8 167.58 9.4
2 0 8 170.58 10.2
2 0 8 172.08 9.4
-3 0 -8 173.88 10.2
3 0 8 171.08 10.9
3 0 8 178.38 9.6
-4 0 -8 142.79 8.8
4 0 8 146.29 10.2
-5 0 -8 11.2 2.3
5 0 8 10.1 3.1
-6 0 -8 42.3 4.7
6 0 8 46.9 6.2
-7 0 -8 3.4 2.6
7 0 8 9 4.5
6 -1 -8 63.39 6.3
-6 1 8 61.49 5.7
5 -1 -8 110.59 8.4
-5 1 8 121.49 7.8
4 -1 -8 132.59 8.5
-4 1 8 123.69 8
3 -1 -8 225.48 13.1
-3 1 8 218.98 12.7
2 -1 -8 146.79 8.8
-2 1 8 134.29 8
-2 1 8 148.39 8.5
1 -1 -8 403.36 21.5
1 -1 -8 393.06 22
-1 1 8 409.06 22
-1 1 8 382.56 21.6
0 -1 -8 113.09 7.2
0 -1 -8 110.69 6.6
0 1 8 109.69 7
0 1 8 114.59 6.5
-1 -1 -8 702.03 39.1
-1 -1 -8 770.42 38.9
1 1 8 713.13 39.5
-2 -1 -8 66.79 4.7
-2 -1 -8 73.89 4.2
2 1 8 74.29 4.3
2 1 8 65.59 5
-3 -1 -8 677.23 37
3 1 8 693.03 37.6
4 1 8 34.3 4.3
-5 -1 -8 270.27 15.7
5 1 8 273.37 16.6
-6 -1 -8 12.2 2.8
6 1 8 11.1 3.8
-7 -1 -8 28.7 4.2
7 1 8 35.4 5.7
6 -2 -8 32.5 4.6
-6 2 8 27.1 3.5
5 -2 -8 17.7 3
-5 2 8 7.9 2.5
4 -2 -8 116.19 8.1
-4 2 8 124.99 7.7
3 -2 -8 76.39 5.7
-3 2 8 78.69 5.3
2 -2 -8 224.18 12.3
2 -2 -8 203.28 11.6
-2 2 8 203.18 11.9
-2 2 8 211.78 11.4
1 -2 -8 135.69 8.3
1 -2 -8 150.88 8.8
-1 2 8 147.59 8.4
-1 2 8 150.28 8.8
0 -2 -8 134.39 8.5
0 -2 -8 135.29 8
0 2 8 142.19 8.5
0 2 8 141.29 7.9
-1 -2 -8 157.08 9.1
-1 -2 -8 169.38 8.9
1 2 8 161.48 9.6
1 2 8 147.19 8.7
-2 -2 -8 16.8 2.2
2 2 8 17.1 1.5
2 2 8 17.9 2.4
2 2 8 19.4 1.5
-3 -2 -8 152.18 9.1
3 2 8 155.28 9.7
-4 -2 -8 1.4 1.5
4 2 8 -0.7 2
-5 -2 -8 148.99 9.1
5 2 8 138.29 9.9
-6 -2 -8 -0.2 2.2
6 2 8 1.5 3.3
-7 -2 -8 98.19 7.9
7 2 8 109.59 9.4
6 -3 -8 3.5 3
-6 3 8 9.2 2.5
5 -3 -8 4.2 2.6
-5 3 8 2.6 1.9
4 -3 -8 12.8 2.5
-4 3 8 11.3 1.9
3 -3 -8 17 2.3
-3 3 8 12.3 1.8
-3 3 8 13.3 1.4
2 -3 -8 3 1.5
2 -3 -8 1.4 1.2
-2 3 8 2.7 1.2
-2 3 8 3.6 0.8
1 -3 -8 14.5 2
1 -3 -8 17 1.9
-1 3 8 15.2 2
-1 3 8 13.7 1.7
0 -3 -8 2.8 1.6
0 -3 -8 1.7 1.1
0 -3 -8 2.6 1.3
0 3 8 2.7 1
0 3 8 2.8 0.7
0 3 8 0.5 1.4
-1 -3 -8 3.4 1.1
1 3 8 3.1 1.1
1 3 8 1.6 1.1
1 3 8 2.1 0.7
-2 -3 -8 0.6 1.2
2 3 8 2.3 1.2
-3 -3 -8 0.1 1.3
3 3 8 2.4 1.7
-4 -3 -8 2.5 1.4
4 3 8 -0.6 2.1
-5 -3 -8 6.4 2.1
5 3 8 3 2.4
-6 -3 -8 10.3 2.5
6 3 8 8.5 3.5
-7 -3 -8 8.1 3.2
7 3 8 5.5 4.2
6 -4 -8 -1.1 3.3
-6 4 8 -0.9 2.4
5 -4 -8 42.3 4.9
-5 4 8 52.89 4.4
4 -4 -8 3.7 2
-4 4 8 3.9 1.6
3 -4 -8 3.9 1.5
-3 4 8 10 1.6
-3 4 8 7.8 1.2
2 -4 -8 0.1 1.3
-2 4 8 1.2 0.9
-2 4 8 -0.2 1
1 -4 -8 2.9 1.3
1 -4 -8 2.1 1.3
-1 4 8 1.7 1
-1 4 8 1.2 0.9
0 -4 -8 3.6 1.2
0 -4 -8 3.5 1.3
0 4 8 2.8 1
0 4 8 3.7 0.8
0 4 8 4.9 1.8
-1 -4 -8 1.2 1.3
1 4 8 0.4 1
1 4 8 1.7 1.3
1 4 8 0.1 0.6
-2 -4 -8 15.9 2.1
2 4 8 16.1 1.4
2 4 8 15.9 1.2
2 4 8 14.7 2.1
-3 -4 -8 39.7 3.5
3 4 8 40.3 4
-4 -4 -8 14.6 2.3
4 4 8 10.8 2.6
-5 -4 -8 59.39 5
5 4 8 49.8 5.2
-6 -4 -8 8.9 3
6 4 8 3.8 2.9
-7 -4 -8 26.7 4.4
7 4 8 34.4 5.3
6 -5 -8 69.19 6.6
-6 5 8 75.89 6
5 -5 -8 9.4 2.7
-5 5 8 9.9 2.1
4 -5 -8 27 3.7
-4 5 8 32.7 3.3
3 -5 -8 0.4 1.6
-3 5 8 0.4 1.1
-3 5 8 2.4 1.3
2 -5 -8 1.8 1.4
2 -5 -8 3.7 1.3
-2 5 8 3.6 1.2
-2 5 8 5.6 1.3
-2 5 8 2.6 1.1
1 -5 -8 0.8 1.1
1 -5 -8 2.8 1.4
-1 5 8 0 1.1
-1 5 8 0.6 0.9
-1 5 8 2.5 1.1
0 -5 -8 24.1 2.7
0 -5 -8 24 2.7
0 5 8 25.8 2.1
0 5 8 25 2.5
-1 -5 -8 10.5 1.8
1 5 8 9.2 1.5
1 5 8 9.2 1.6
1 5 8 11.6 1.4
-2 -5 -8 10.5 1.8
2 5 8 14.2 1.7
2 5 8 10.5 1.2
2 5 8 10.6 1.8
-3 -5 -8 34.9 3.7
3 5 8 36.4 3.9
-4 -5 -8 -0.5 1.7
4 5 8 3.1 2.2
-5 -5 -8 11.4 2.6
5 5 8 12.4 2.8
-6 -5 -8 5.2 2.6
6 5 8 10.4 3.6
-7 -5 -8 -3 3.6
7 5 8 1 4
6 -6 -8 5.7 3.2
-6 6 8 -1.4 2.2
5 -6 -8 12.9 3.1
-5 6 8 11.2 2.5
4 -6 -8 29 3.9
-4 6 8 31.5 3.5
3 -6 -8 20.7 2.8
-3 6 8 21.7 2.8
-3 6 8 24.3 2.4
2 -6 -8 80.69 5.3
-2 6 8 73.19 5
-2 6 8 76.29 5.1
1 -6 -8 0 1.5
1 -6 -8 0.6 1.3
-1 6 8 0.7 1.2
-1 6 8 -0.2 1.1
-1 6 8 0.7 1
0 -6 -8 7.4 1.5
0 -6 -8 8.7 1.8
0 6 8 9.6 1.5
0 6 8 7.4 1.3
-1 -6 -8 18.3 2.4
1 6 8 19.4 1.8
1 6 8 17.6 2.4
1 6 8 18.9 2.2
-2 -6 -8 45 4.2
2 6 8 48.8 3.1
2 6 8 51.09 3.6
2 6 8 49.2 4.1
-3 -6 -8 10.7 2.3
3 6 8 9.5 1.2
3 6 8 8.3 1.9
4 6 8 85.39 6.4
-5 -6 -8 2 2.4
5 6 8 4.9 2.3
-6 -6 -8 21.3 3.6
6 6 8 21.4 4
-7 -6 -8 6.4 4.3
7 6 8 8.1 4.2
6 -7 -8 7.5 3.4
-6 7 8 3.7 2.6
5 -7 -8 5.8 2.6
-5 7 8 2.2 2.3
4 -7 -8 66.39 5.7
-4 7 8 75.49 5.5
3 -7 -8 36.7 3.7
-3 7 8 39.2 4
-3 7 8 39.4 3.3
2 -7 -8 126.49 7.4
-2 7 8 113.39 7.2
-2 7 8 119.99 7.4
-2 7 8 111.69 7.2
1 -7 -8 127.19 7.4
1 -7 -8 113.89 7.4
1 -7 -8 117.09 7.2
-1 7 8 111.79 7.2
-1 7 8 122.89 7.4
-1 7 8 121.69 7.3
0 -7 -8 5 1.4
0 -7 -8 7.2 1.9
0 7 8 4.4 1.2
0 7 8 3.8 1.8
0 7 8 6.7 1.5
-1 -7 -8 74.09 4.7
-1 -7 -8 80.09 5.4
1 7 8 71.89 5.4
1 7 8 73.79 5.1
1 7 8 73.29 4.7
-2 -7 -8 54.99 3.6
-2 -7 -8 51.39 4.6
2 7 8 53.79 3.6
2 7 8 51.29 4.4
2 7 8 61.69 4.2
-3 -7 -8 12.1 1.5
-3 -7 -8 17.3 2.7
3 7 8 16.2 1.8
3 7 8 9.9 2.3
-4 -7 -8 70.59 5.7
4 7 8 71.19 6
-5 -7 -8 1.7 2.9
5 7 8 1.3 2.6
-6 -7 -8 29.4 4.5
6 7 8 29.4 4.8
-7 -7 -8 -0.1 4.3
7 7 8 -1.6 4.4
5 -8 -8 1.7 2.7
-5 8 8 1.6 2.4
4 -8 -8 27.2 4.4
-4 8 8 33.7 3.6
3 -8 -8 2.9 1.8
-3 8 8 2.9 1.8
-3 8 8 3.7 1.5
2 -8 -8 76.29 5.3
2 -8 -8 69.59 5.2
-2 8 8 68.99 5.2
-2 8 8 77.59 5.3
-2 8 8 75.49 5
1 -8 -8 4.2 1.5
1 -8 -8 3 1.6
-1 8 8 1.2 1.6
-1 8 8 5.2 1.5
-1 8 8 3.5 1.2
0 -8 -8 112.19 7
0 -8 -8 113.09 7.4
0 8 8 116.79 7
0 8 8 110.19 7.3
0 8 8 110.19 7
-1 -8 -8 53.09 3.7
-1 -8 -8 42.5 4.5
1 8 8 45.6 4.3
1 8 8 50.09 3.7
1 8 8 51.39 3.9
-2 -8 -8 21.9 2.8
-2 -8 -8 31.1 3.6
2 8 8 24.9 3.2
2 8 8 37.8 3.5
-3 -8 -8 33.3 3.1
-3 -8 -8 29 3.8
3 8 8 40.4 4
3 8 8 29.2 3.9
-4 -8 -8 45.1 5.1
4 8 8 38.7 4.8
-5 -8 -8 -0.8 3.2
5 8 8 -0.3 2.7
-6 -8 -8 197.68 13.5
6 8 8 203.38 13.5
5 -9 -8 30.5 4.1
-5 9 8 31.1 4.3
-4 9 8 9.5 2.4
3 -9 -8 57.89 4.7
3 -9 -8 53.49 4.6
-3 9 8 47.6 4.6
-3 9 8 58.49 4.9
2 -9 -8 13.7 2.7
2 -9 -8 8.4 1.9
-2 9 8 8.4 2.3
-2 9 8 8.7 2
-2 9 8 9.5 1.8
1 -9 -8 17.9 2.6
1 -9 -8 19.6 2.4
-1 9 8 18.7 2.5
-1 9 8 19.5 2.5
-1 9 8 19.1 2.6
0 -9 -8 23 2.8
0 9 8 17.7 2.3
0 9 8 20.9 2.6
0 9 8 18.7 2.4
-1 -9 -8 1.1 1.5
-1 -9 -8 2.9 2.2
1 9 8 2.5 1.6
1 9 8 2.5 2.1
-2 -9 -8 30.7 3.3
-2 -9 -8 30.5 3.8
2 9 8 25.2 3.2
2 9 8 29.4 3.5
-3 -9 -8 9.1 2.1
-3 -9 -8 7.7 2.7
3 9 8 11.4 2.5
3 9 8 11.2 2.8
-4 -9 -8 34.2 4.4
4 9 8 39.3 4.9
4 9 8 35 4.4
-5 -9 -8 0.3 3.3
5 9 8 1.3 3.1
5 9 8 5.9 3.1
-6 -9 -8 52.99 6.1
6 9 8 60.69 7.2
6 9 8 48.6 6.5
-4 10 8 8.3 2.6
3 -10 -8 7.1 2.3
3 -10 -8 10.9 2.9
-3 10 8 11.3 2.4
-3 10 8 9.6 2.1
-3 10 8 11.3 2.7
2 -10 -8 17.2 3
2 -10 -8 17.1 2.5
-2 10 8 20.6 2.7
-2 10 8 16.1 2.8
-2 10 8 22 2.7
1 -10 -8 31.2 4.1
-1 10 8 36 4.3
-1 10 8 26.1 3.6
-1 10 8 30.1 3
0 -10 -8 11.4 2.3
0 10 8 9.1 1.9
0 10 8 11.1 2.4
-1 -10 -8 45.5 4.2
1 10 8 35.5 3.8
1 10 8 41.2 4.6
-2 -10 -8 -0.8 1.9
-2 -10 -8 1.4 2.6
2 10 8 2.6 2.2
2 10 8 5 2.6
-3 -10 -8 10.6 2.5
-3 -10 -8 9.9 3.3
3 10 8 7.7 2.8
3 10 8 16 3.1
-4 -10 -8 1.1 2.7
4 10 8 1.2 2.7
4 10 8 3.4 2.8
-5 -10 -8 5 3.6
5 10 8 8.5 3.6
5 10 8 2.2 3.5
4 -11 -8 6.4 3.3
-4 11 8 0.2 3
3 -11 -8 41.1 5.3
-3 11 8 38.7 4.6
-3 11 8 38.5 5.1
2 -11 -8 9.2 2.9
-2 11 8 7.6 2.6
-2 11 8 6.7 2.5
1 -11 -8 34.7 4.6
-1 11 8 30.4 4.2
-1 11 8 32.5 3.9
0 -11 -8 7.4 2.7
0 11 8 8.2 2.7
-1 -11 -8 32.5 4.2
1 11 8 38.3 5
-2 -11 -8 0.2 2.4
2 11 8 6.9 4
2 11 8 2.4 2.7
-3 -11 -8 5 3.1
-3 -11 -8 13.6 3
3 11 8 13.6 3.8
3 11 8 6.1 2.9
-4 -11 -8 9.4 3.6
4 11 8 4.8 3.6
-5 -11 -8 5.1 4.3
5 11 8 5.1 3.7
3 -12 -8 144.39 10.3
-3 12 8 142.19 9.4
-3 12 8 137.69 10.1
2 -12 -8 4.4 3.2
-2 12 8 4.3 3
-2 12 8 -3.9 5.3
1 -12 -8 115.99 8.8
-1 12 8 113.79 8.3
0 -12 -8 11.4 3.4
0 12 8 11.8 3.2
-1 -12 -8 29.7 3.9
1 12 8 31.3 4.5
-2 -12 -8 5 3.2
2 12 8 12.5 3.7
-3 -12 -8 9.2 3.6
3 12 8 6.4 3.7
4 12 8 1.9 3.5
1 -13 -8 63.29 7.1
-1 13 8 52.89 6.1
0 -13 -8 0.5 3.3
0 13 8 3.4 3.4
-1 -13 -8 110.19 9
1 13 8 129.29 9.3
-2 -13 -8 -3.9 3.3
2 13 8 -2.7 3.7
1 5 -9 33.5 4.1
0 5 -9 98.99 6.9
-1 5 -9 3.7 2.4
1 -5 9 5.2 3.3
-2 5 -9 63.49 5.6
2 4 -9 10.1 3.6
-2 -4 9 14.8 2.8
-2 -4 9 16.8 3.2
1 4 -9 -0.8 1.9
1 4 -9 1 2.8
-1 -4 9 1.1 2.5
-1 -4 9 2.5 2.3
0 4 -9 6 2.1
0 -4 9 3.9 2.3
0 -4 9 6 2.6
-1 4 -9 -0.3 2
1 -4 9 1 2.4
1 -4 9 2.7 2.5
-2 4 -9 0.2 2.1
2 -4 9 1.4 2.7
-3 4 -9 -0.5 2.3
3 -4 9 2 3.4
3 3 -9 9.7 3.3
-3 -3 9 5 2.7
-3 -3 9 3.2 2.3
2 3 -9 13.3 3.1
-2 -3 9 8.7 2.7
-2 -3 9 12.4 2.6
1 3 -9 -0.8 2.5
1 3 -9 -0.1 1.5
-1 -3 9 1.5 1.9
-1 -3 9 2.8 2
0 3 -9 8.5 1.7
0 -3 9 7.3 2.2
0 -3 9 5.9 2.3
-1 3 -9 6.6 1.9
1 -3 9 2.7 2.2
1 -3 9 6.1 2.3
-2 3 -9 20.2 2.7
2 -3 9 18.3 4.4
2 -3 9 20.7 3.2
-3 3 -9 3.3 2.4
3 -3 9 3.6 2.9
-4 3 -9 43.8 4.6
4 -3 9 37 4.9
4 2 -9 -2 3
-4 -2 9 1.1 2.6
3 2 -9 -1 2.6
-3 -2 9 0.5 2.3
2 2 -9 -5.8 2.2
-2 -2 9 2.5 1.8
-2 -2 9 -4 2
1 2 -9 27.4 3.5
1 2 -9 19.6 2.6
-1 -2 9 24.5 3.3
-1 -2 9 27.1 3.5
0 2 -9 -2.4 1.3
0 -2 9 1.6 1.7
-1 2 -9 44.5 4.7
1 -2 9 49.9 4.3
1 -2 9 44.8 4.9
-2 2 -9 1.3 1.7
2 -2 9 1.6 1.9
2 -2 9 2.7 2.4
-3 2 -9 7.5 2
3 -2 9 12.1 3
-4 2 -9 4.2 2.1
4 -2 9 5.9 2.9
-5 2 -9 3.6 2.6
5 -2 9 4.9 3.6
5 1 -9 -2.8 3.4
-5 -1 9 12.1 3.1
4 1 -9 14.5 3.4
-4 -1 9 13.2 3
3 1 -9 1.4 2.3
-3 -1 9 -2.6 1.9
2 1 -9 7.9 2.1
2 1 -9 2.9 1.4
-2 -1 9 6 2
-2 -1 9 5.8 1.9
1 1 -9 -0.8 1.2
-1 -1 9 -0.2 1.7
0 1 -9 -0.2 1.9
0 1 -9 0.4 1.2
0 -1 9 1 1.6
0 -1 9 0 1.4
-1 1 -9 5.9 1.6
1 -1 9 2.1 1.8
1 -1 9 4.7 1.6
-2 1 -9 1.2 1.4
2 -1 9 -0.6 1.7
2 -1 9 -0.2 1.5
-3 1 -9 51.29 4.3
3 -1 9 62.09 5.4
-4 1 -9 9.7 2.4
4 -1 9 11.7 3.3
-5 1 -9 49.1 4.6
5 -1 9 54.49 6.5
-6 1 -9 11.9 3.3
6 -1 9 20.6 4.9
5 0 -9 7.4 3.3
-5 0 9 6.3 2.6
4 0 -9 11.3 3.2
-4 0 9 8 2.4
3 0 -9 6.5 2.2
-3 0 9 7.4 1.9
2 0 -9 51.79 4.5
2 0 -9 44.2 3.5
-2 0 9 48.5 3.9
1 0 -9 3.5 2
1 0 -9 1.8 1.2
-1 0 9 1.2 1.4
-1 0 9 -0.6 1.3
0 0 -9 62.69 4.8
0 0 -9 53.29 4
0 0 9 56.19 4
0 0 9 54.49 4.3
-1 0 -9 65.59 4.6
1 0 9 79.99 5.3
1 0 9 63.29 4.4
-2 0 -9 1.6 1.3
2 0 9 2.5 1.8
2 0 9 1.6 1.4
-3 0 -9 189.18 11.2
3 0 9 189.38 11.9
-4 0 -9 18 2.6
4 0 9 16.6 3.3
-5 0 -9 143.39 9.1
5 0 9 134.79 10
-6 0 -9 14.7 3.2
6 0 9 13.1 4.1
5 -1 -9 47.7 5.8
-5 1 9 36.4 4.8
4 -1 -9 -1.2 2.1
-4 1 9 1 1.8
3 -1 -9 17.7 2.8
-3 1 9 15.5 2.3
2 -1 -9 10.6 3
2 -1 -9 16.4 1.9
-2 1 9 15.1 2.1
1 -1 -9 0.9 1.5
1 -1 -9 1.6 1.2
-1 1 9 2.7 1.4
-1 1 9 2.4 1.2
0 -1 -9 26.5 3.5
0 -1 -9 33.6 2.7
0 1 9 32.1 3
0 1 9 29 2.7
-1 -1 -9 66.79 4.7
1 1 9 75.39 5.1
1 1 9 67.19 4.4
-2 -1 -9 12.5 2
2 1 9 14.1 2.2
3 1 9 226.18 15.7
-4 -1 -9 20.5 2.8
4 1 9 24.8 3.7
-5 -1 -9 322.47 19.4
5 1 9 360.16 20.5
-6 -1 -9 68.59 5.9
6 1 9 53.89 7.5
5 -2 -9 8 3.1
-5 2 9 9.9 2.3
4 -2 -9 -4.3 2.3
-4 2 9 -1.5 1.8
3 -2 -9 17.9 2.6
-3 2 9 17.4 3.1
2 -2 -9 12.5 2.6
2 -2 -9 9.8 1.7
-2 2 9 9.9 1.7
1 -2 -9 34.2 3.6
1 -2 -9 34.9 3
-1 2 9 32.1 3
-1 2 9 31.6 2.8
0 -2 -9 133.39 7.6
0 -2 -9 120.79 8
0 2 9 133.39 7.4
0 2 9 119.19 7.9
-1 -2 -9 61.39 4.1
-1 -2 -9 58.59 4.1
1 2 9 51.19 3.5
1 2 9 53.39 4.5
-2 -2 -9 264.87 16
2 2 9 292.27 16.6
2 2 9 300.27 15.4
-3 -2 -9 94.59 6.4
3 2 9 95.89 6.8
-4 -2 -9 250.17 14.3
4 2 9 241.48 15.1
-5 -2 -9 174.58 10.6
5 2 9 165.28 11.4
-6 -2 -9 79.79 6.9
6 2 9 91.59 8
6 -3 -9 12.3 4
-6 3 9 9.9 3
5 -3 -9 5 2.6
-5 3 9 3 2.3
4 -3 -9 14.8 3
-4 3 9 20.3 2.6
3 -3 -9 2.1 2
-3 3 9 0.9 1.3
2 -3 -9 1.5 1.4
2 -3 -9 -0.7 1.7
-2 3 9 4.1 1.2
1 -3 -9 2.8 1.5
1 -3 -9 0.6 1.4
-1 3 9 -0.3 1.2
-1 3 9 0.4 1.1
0 -3 -9 0.8 1.3
0 -3 -9 -0.6 1.4
0 3 9 2.2 1.3
0 3 9 -1 0.8
-1 -3 -9 1.4 1.3
1 3 9 2.2 1.4
1 3 9 0.4 0.8
1 3 9 2.1 1.6
-2 -3 -9 2.7 1.6
2 3 9 3.7 1.8
2 3 9 3.2 0.7
-3 -3 -9 2.3 1.6
3 3 9 0 2
-4 -3 -9 5.1 2.1
4 3 9 7.2 2.5
-5 -3 -9 -0.3 2.2
5 3 9 1.4 2.8
-6 -3 -9 5.3 2.7
6 3 9 9.4 4.3
-7 -3 -9 12.3 3.8
7 3 9 4 4.6
6 -4 -9 69.39 7.2
5 -4 -9 16.3 3.2
-5 4 9 9.3 2.4
4 -4 -9 28.7 3.8
-4 4 9 31.5 3.3
3 -4 -9 37.9 4.1
-3 4 9 40.3 3.5
2 -4 -9 -0.4 1.6
2 -4 -9 -0.6 1.4
-2 4 9 -0.7 1.1
-2 4 9 0.2 1.1
1 -4 -9 68.79 4.9
1 -4 -9 69.49 4.7
-1 4 9 63.59 4.3
-1 4 9 65.39 4.8
0 -4 -9 14.2 2.3
0 -4 -9 10.4 1.9
0 4 9 16.5 2.1
0 4 9 13.4 1.7
-1 -4 -9 50.59 4
1 4 9 50.49 4
1 4 9 51.99 3.3
1 4 9 49.1 3.7
-2 -4 -9 4.9 1.8
2 4 9 3.2 0.6
2 4 9 5.1 1.8
-3 -4 -9 22.9 2.8
3 4 9 23.7 3.2
-4 -4 -9 4.3 2.2
4 4 9 0.9 2.2
-5 -4 -9 9.4 2.7
5 4 9 9.3 3.1
-6 -4 -9 5.2 3.1
6 4 9 -4.3 3.6
-7 -4 -9 10.9 4.1
7 4 9 4.2 4.2
6 -5 -9 21.2 4.2
-6 5 9 20.1 3.5
5 -5 -9 1.2 2.7
-5 5 9 3.4 2.1
4 -5 -9 61.29 5.5
-4 5 9 66.09 5.1
3 -5 -9 10.1 2.3
-3 5 9 11.2 1.8
2 -5 -9 99.19 6.7
2 -5 -9 96.89 6.3
-2 5 9 102.59 6.2
-2 5 9 100.89 6.2
1 -5 -9 21.9 2.7
1 -5 -9 16.5 2.3
-1 5 9 25.3 2.5
-1 5 9 21.9 2.1
0 -5 -9 31 3.2
0 -5 -9 31.9 3.3
0 5 9 31.8 2.4
0 5 9 25.4 3
-1 -5 -9 8.4 2.1
1 5 9 7.9 1.1
1 5 9 3.9 1.6
1 5 9 9.2 1.8
-2 -5 -9 2.3 1.6
2 5 9 3.1 1.5
2 5 9 3.1 0.7
-3 -5 -9 5 2
3 5 9 2.5 1.9
-4 -5 -9 9.7 2.4
4 5 9 15.2 3.1
-5 -5 -9 5.7 2.8
5 5 9 6.5 3.3
-6 -5 -9 1 3.1
6 5 9 3.1 3.9
-7 -5 -9 -1.4 3.8
7 5 9 -0.4 3.9
5 -6 -9 19.1 3.5
-5 6 9 12.8 2.4
4 -6 -9 30.2 3.8
-4 6 9 28.4 3.5
3 -6 -9 5.7 2.1
-3 6 9 4 1.4
2 -6 -9 40.3 3.5
2 -6 -9 41.9 3.5
-2 6 9 38.7 3.3
-2 6 9 36.6 3.3
-2 6 9 36.7 3.3
1 -6 -9 22.9 3
1 -6 -9 22.4 2.6
-1 6 9 27.5 2.8
-1 6 9 21.9 2.7
-1 6 9 20.6 2.4
0 -6 -9 106.29 7.4
0 -6 -9 119.99 7.5
0 6 9 115.99 6.8
0 6 9 116.89 7.3
-1 -6 -9 -0.3 1.9
1 6 9 -1.1 1.4
1 6 9 -0.1 0.8
1 6 9 -0.9 1.6
-2 -6 -9 134.89 8.7
2 6 9 139.69 7.6
2 6 9 135.59 8.7
-3 -6 -9 14.7 2.7
3 6 9 10.4 2.6
-4 -6 -9 46.8 4.9
4 6 9 47.3 4.8
-5 -6 -9 3.1 2.8
5 6 9 -0.7 3
-6 -6 -9 0.3 3.3
6 6 9 -3.7 3.4
5 -7 -9 -0.1 3
-5 7 9 2 2.3
4 -7 -9 1 2.4
-4 7 9 8 2.1
3 -7 -9 17.9 3.7
-3 7 9 16.3 2.5
-3 7 9 19.2 2.2
2 -7 -9 1.9 1.8
-2 7 9 -0.4 1.4
-2 7 9 0.6 1.5
-2 7 9 2 1.5
1 -7 -9 -0.8 1.5
1 -7 -9 -3.6 1.5
-1 7 9 -0.6 1.2
-1 7 9 0.7 1.4
-1 7 9 1.5 1.3
0 -7 -9 -1.6 1.8
0 7 9 2.2 1.6
0 7 9 1 1.6
0 7 9 0.6 1
-1 -7 -9 79.19 5.7
1 7 9 66.39 4.5
1 7 9 69.49 5
-2 -7 -9 1.7 2.1
2 7 9 0.9 0.9
2 7 9 3 1.8
-3 -7 -9 110.39 7.9
3 7 9 114.69 7.9
-4 -7 -9 4.3 2.9
4 7 9 7.9 3
-5 -7 -9 19.5 3.6
5 7 9 27 4.1
-6 -7 -9 7.8 4
6 7 9 7.4 4.2
5 -8 -9 14.5 3.6
-5 8 9 14.2 3
4 -8 -9 3.4 2.5
-4 8 9 2.7 2.2
-3 8 9 10.6 2.2
-3 8 9 11.1 2.1
2 -8 -9 3.7 1.9
-2 8 9 3.8 1.6
-2 8 9 1.2 1.5
-2 8 9 3 1.7
1 -8 -9 31.8 3.4
1 -8 -9 28.3 3.4
-1 8 9 35.1 3.1
-1 8 9 32 3.1
-1 8 9 25.9 3.1
0 -8 -9 85.39 5.3
0 -8 -9 76.19 5.8
0 8 9 77.49 5.7
0 8 9 82.39 5.3
0 8 9 67.89 5.3
-1 -8 -9 33.5 3.9
-1 -8 -9 33 3.1
1 8 9 38 4
1 8 9 34.2 3
1 8 9 41.1 3.7
-2 -8 -9 167.98 9.8
2 8 9 178.18 10.6
2 8 9 168.68 9.7
-3 -8 -9 -1.2 2.8
3 8 9 1 2
-4 -8 -9 144.19 9.6
4 8 9 126.49 9.4
-5 -8 -9 33.4 4.8
5 8 9 33 5
-6 -8 -9 41.5 5.5
6 8 9 30.8 5.5
5 -9 -9 5.7 3.4
-5 9 9 0.6 2.9
4 -9 -9 -0.1 2.6
-4 9 9 -0.4 2.4
-3 9 9 1.3 2
-3 9 9 5.5 2.1
-3 9 9 7.8 2
2 -9 -9 2 1.9
-2 9 9 0.5 1.6
-2 9 9 -3.4 1.9
-2 9 9 0.1 1.7
1 -9 -9 -0.4 1.9
1 -9 -9 0.3 1.9
-1 9 9 1.4 1.9
-1 9 9 -0.6 1.6
-1 9 9 2.4 1.5
0 -9 -9 6.1 1.9
0 -9 -9 15.2 2.5
0 9 9 10.9 2
0 9 9 12 2.3
0 9 9 7.4 1.8
-1 -9 -9 5.5 1.8
1 9 9 1.6 3.6
1 9 9 6.5 2
1 9 9 9.1 1.8
-2 -9 -9 3.9 1.6
-2 -9 -9 2 2.6
2 9 9 1.7 1.5
2 9 9 0.3 2
2 9 9 5.7 2.2
-3 -9 -9 11.1 2.8
3 9 9 12 2.8
3 9 9 13.8 2.9
-4 -9 -9 6.1 3.3
4 9 9 6.4 3
4 9 9 12.2 3.2
-5 -9 -9 6.6 4
5 9 9 5.2 3.2
5 9 9 -3.4 3.5
-6 -9 -9 15.6 4.9
6 9 9 21.5 4.5
6 9 9 17.4 4.8
4 -10 -9 3.5 3.1
-4 10 9 2.4 2.7
3 -10 -9 12 2.8
-3 10 9 9.8 2.5
-3 10 9 6.1 2.4
-3 10 9 8.4 2.3
2 -10 -9 4.7 2.2
2 -10 -9 -1.1 2.6
-2 10 9 0.7 2.2
-2 10 9 -0.1 2.1
-2 10 9 -1 1.6
1 -10 -9 29.1 3.4
-1 10 9 34.5 4.3
-1 10 9 33.7 4.1
-1 10 9 32.4 3.5
0 -10 -9 0.7 2
0 10 9 -1.4 2.2
0 10 9 2.8 1.9
0 10 9 1.4 1.8
-1 -10 -9 48.7 4.8
-1 -10 -9 41 4.1
1 10 9 39.7 4.4
1 10 9 41 3.9
1 10 9 32.6 4.1
-2 -10 -9 -2.3 2.8
-2 -10 -9 5.8 2
2 10 9 8 2.4
2 10 9 2.7 2.5
-3 -10 -9 41.4 5
3 10 9 37.9 4.7
3 10 9 37.5 4.6
-4 -10 -9 17.1 4
4 10 9 16.5 4.1
4 10 9 16.3 4
-5 -10 -9 29.8 5.2
5 10 9 28.8 4.8
5 10 9 36.2 5.4
3 -11 -9 24.7 3.6
-3 11 9 14.2 3.2
-3 11 9 24 3.7
2 -11 -9 -0.7 2.6
-2 11 9 1.4 2.6
-2 11 9 1 2.5
1 -11 -9 28.9 3.8
-1 11 9 30.4 3.7
-1 11 9 29.9 3.9
0 -11 -9 8.8 2.6
0 11 9 12.4 3
0 11 9 8.6 2.6
0 11 9 10.2 2.6
-1 -11 -9 10.6 2.7
1 11 9 13.6 2.7
1 11 9 14.3 3.1
-2 -11 -9 8.7 3.5
-2 -11 -9 10.7 2.8
2 11 9 15.6 3.3
2 11 9 10.4 3.5
-3 -11 -9 2.8 3.5
3 11 9 7.6 3.4
3 11 9 3.2 3.1
-4 -11 -9 -0.5 4
4 11 9 7.4 3.7
4 11 9 3.4 3.8
2 -12 -9 23.3 4
-2 12 9 29.4 4.2
-2 12 9 32.6 4
1 -12 -9 33.3 4.2
-1 12 9 33.6 4.2
-1 12 9 22.4 3.9
0 -12 -9 3.5 4.3
0 12 9 1.1 3.3
0 12 9 -0.2 2.6
-1 -12 -9 86.49 7.3
1 12 9 87.69 7.7
-2 -12 -9 6 3.4
2 12 9 7.6 3.7
3 12 9 90.59 8.2
0 -13 -9 3.1 3.4
0 13 9 5.5 3.8
-1 -13 -9 30.7 4.6
1 13 9 23.4 4.9
2 3 -10 27.1 4.4
-2 -3 10 31.9 4.4
-2 -3 10 29.5 4
1 3 -10 16.4 3.8
-1 -3 10 13.3 3.1
-1 -3 10 21.8 3.5
0 3 -10 6.3 2.2
0 -3 10 12.8 2.7
0 -3 10 6.3 2.9
-1 3 -10 20.5 2.8
1 -3 10 23.5 3.6
-2 3 -10 1.4 2.3
2 -3 10 3.2 2.9
-3 3 -10 3.4 2.7
3 -3 10 2.9 3.5
3 2 -10 3.7 3.2
-3 -2 10 5.8 3.2
-3 -2 10 -0.8 2.4
2 2 -10 1.2 3
-2 -2 10 -3.2 2.2
-2 -2 10 -4.3 2.6
1 2 -10 7.4 3.1
-1 -2 10 8.8 2.5
-1 -2 10 12.1 2.6
0 2 -10 9.5 2
0 -2 10 5.2 2.4
0 -2 10 8.5 2.3
-1 2 -10 3.5 1.9
1 -2 10 -1 2.3
1 -2 10 -0.5 2.3
-2 2 -10 1.5 2
2 -2 10 1.6 2.5
-3 2 -10 -5.3 2
3 -2 10 3.3 3
-4 2 -10 1.7 2.2
4 -2 10 0.5 3.4
-4 -1 10 9.7 3.3
3 1 -10 40.3 5.2
-3 -1 10 52.59 5
-3 -1 10 37.9 4.7
2 1 -10 6.2 2.8
-2 -1 10 1.3 2.1
-2 -1 10 -0.9 2.1
1 1 -10 32.3 3.5
1 1 -10 41.2 4.7
-1 -1 10 35.9 4
0 1 -10 17.5 2.2
0 -1 10 16.2 2.9
0 -1 10 16.7 2.4
-1 1 -10 27 3
1 -1 10 24 3.3
1 -1 10 28.3 3.5
-2 1 -10 0.2 1.8
-3 1 -10 3.9 2.2
3 -1 10 5.2 2.8
-4 1 -10 7 2.4
4 -1 10 8.4 3.3
-5 1 -10 3.4 2.9
5 -1 10 -1 3.9
4 0 -10 2.8 3.1
-4 0 10 4 2.7
3 0 -10 9.9 3.1
-3 0 10 17.6 2.8
2 0 -10 -0.6 2.5
-2 0 10 -2 1.8
-2 0 10 0.1 1.8
1 0 -10 1.8 1.5
1 0 -10 -4.6 2.2
-1 0 10 2.3 2
-1 0 10 -1.1 1.7
0 0 -10 4 1.6
0 0 -10 7.3 2.5
0 0 10 4.7 2.1
0 0 10 4.3 1.8
-1 0 -10 -3.6 1.6
1 0 10 2.9 1.5
1 0 10 -1.7 1.7
-2 0 -10 42.7 3.9
2 0 10 39.6 4.5
-3 0 -10 6.2 2.1
3 0 10 6.8 2.4
-4 0 -10 46 4.3
4 0 10 50.59 5.9
-5 0 -10 9.1 2.8
5 0 10 11.1 3.9
4 -1 -10 5.5 3
-4 1 10 0.3 2.1
3 -1 -10 32 4
-3 1 10 27.5 3.6
2 -1 -10 1.6 2.2
-2 1 10 4.6 2.7
-2 1 10 1.6 1.9
1 -1 -10 56.19 5.2
1 -1 -10 59.79 4.2
-1 1 10 55.89 4.6
-1 1 10 61.59 4.5
0 -1 -10 12.9 2
0 -1 -10 17 2.8
0 1 10 12.6 2.5
0 1 10 16 2
-1 -1 -10 112.59 7.2
1 1 10 119.99 7.7
1 1 10 111.59 6.8
-2 -1 -10 12.9 2.4
2 1 10 14 2.6
-3 -1 -10 100.89 6.6
3 1 10 87.89 7.1
-4 -1 -10 9 2.5
4 1 10 19.2 3.5
-5 -1 -10 11.6 2.6
5 1 10 11.3 3.4
-6 -1 -10 9.1 2.9
6 1 10 11.8 4.5
5 -2 -10 0.4 3.1
-5 2 10 1.4 2.7
4 -2 -10 0.2 2.8
-4 2 10 -3.5 1.9
3 -2 -10 0.2 2.3
-3 2 10 -1.2 1.6
2 -2 -10 3.2 1.9
-2 2 10 1.1 1.6
-2 2 10 0.7 1.7
1 -2 -10 1.3 1.6
1 -2 -10 8.8 2.2
-1 2 10 5.2 1.5
-1 2 10 1.5 1.7
0 -2 -10 3.3 1.5
0 -2 -10 6 2.1
0 2 10 3.4 1.3
0 2 10 3.4 1.8
-1 -2 -10 3 1.5
1 2 10 1.9 1.7
1 2 10 -1.2 1.1
-2 -2 -10 3 1.6
2 2 10 0.5 1.7
-3 -2 -10 2.1 1.9
3 2 10 -2 2
-4 -2 -10 5.3 2.3
4 2 10 -1.5 2.8
-5 -2 -10 1.8 2.6
5 2 10 -2.2 2.8
-6 -2 -10 13.3 3.2
6 2 10 16.7 4.7
5 -3 -10 0.1 2.9
-5 3 10 -2.9 2.3
4 -3 -10 3.3 2.8
-4 3 10 2.6 2.1
3 -3 -10 17.7 3
-3 3 10 16.6 2.3
2 -3 -10 26.4 3.2
2 -3 -10 29.4 3.6
-2 3 10 21.4 2.5
-2 3 10 23.5 2.9
1 -3 -10 44.3 4.1
1 -3 -10 47.4 3.9
-1 3 10 36.9 3.9
-1 3 10 49.3 3.5
0 -3 -10 72.19 5
0 3 10 73.49 4.7
-1 -3 -10 29.6 3.3
1 3 10 36.1 2.6
-2 -3 -10 34.5 3.6
2 3 10 42.8 4.2
-3 -3 -10 11 2.4
3 3 10 11.1 2.6
-4 -3 -10 5.1 2.3
4 3 10 -1.2 2.9
-5 -3 -10 8 2.4
5 3 10 8.4 3.2
-6 -3 -10 -2.9 2.9
6 3 10 4.7 4.4
5 -4 -10 11 3.5
-5 4 10 19.3 3
4 -4 -10 31.9 4.1
-4 4 10 24.8 3.2
3 -4 -10 5.7 2.3
-3 4 10 1.3 1.6
2 -4 -10 71.09 5.3
-2 4 10 62.29 4.6
-2 4 10 57.69 4.7
1 -4 -10 2.6 1.9
1 -4 -10 3.8 1.8
-1 4 10 1.1 1.7
-1 4 10 4.6 1.2
0 -4 -10 45.8 4.2
0 -4 -10 44.9 4
0 4 10 49.6 3.4
0 4 10 45.9 4.2
-1 -4 -10 5.3 1.8
1 4 10 3.3 1.8
1 4 10 1.5 1
-2 -4 -10 5.7 1.9
2 4 10 5.9 2.3
-3 -4 -10 -3.8 1.8
3 4 10 1.1 2.1
-4 -4 -10 0.7 2.3
4 4 10 4.4 2.8
-5 -4 -10 3.7 2.4
5 4 10 1.8 2.8
-6 -4 -10 8 3.4
6 4 10 7.5 4.5
5 -5 -10 -1.1 3.4
-5 5 10 6.1 2.7
4 -5 -10 13.7 3.4
-4 5 10 11.2 2.4
3 -5 -10 -0.3 2.3
-3 5 10 -0.3 1.6
2 -5 -10 67.09 4.8
2 -5 -10 68.69 5.3
-2 5 10 65.19 4.5
-2 5 10 55.49 4.6
-2 5 10 61.09 5
1 -5 -10 3.4 1.9
-1 5 10 3 1.2
0 -5 -10 120.09 7.5
0 -5 -10 106.59 7.6
0 5 10 113.09 7.5
0 5 10 113.09 6.7
-1 -5 -10 26.9 3.3
1 5 10 25.7 2.1
1 5 10 24.4 3.2
-2 -5 -10 59.29 5
-3 -5 -10 72.39 5.9
3 5 10 75.79 6
-4 -5 -10 17.4 3.2
4 5 10 12.4 3.5
-5 -5 -10 34.3 4.4
5 5 10 33.3 4.7
-6 -5 -10 -1.5 3.8
6 5 10 4 3.9
5 -6 -10 13.5 3.8
-5 6 10 15.3 2.8
4 -6 -10 4.3 2.8
-4 6 10 4.2 2.1
3 -6 -10 87.39 6.4
-3 6 10 78.69 5.8
2 -6 -10 -2.8 1.7
2 -6 -10 -1.3 1.9
-2 6 10 2 1.5
-2 6 10 2.8 1.7
-2 6 10 0.9 1.6
1 -6 -10 101.99 6.3
1 -6 -10 80.19 6.9
-1 6 10 85.59 6
-1 6 10 89.89 6.4
-1 6 10 78.49 5.5
0 -6 -10 20.9 3
0 6 10 25.7 2.4
0 6 10 23 3.2
-1 -6 -10 18.4 2.9
1 6 10 18.4 2.7
1 6 10 18.5 2
-2 -6 -10 97.59 7.1
-3 -6 -10 1.3 2.5
3 6 10 4.1 2.5
-4 -6 -10 140.19 9.5
4 6 10 138.29 9.9
-5 -6 -10 8.8 3.3
5 6 10 11.5 3.7
-6 -6 -10 64.99 7.2
6 6 10 61.29 7.4
5 -7 -10 2.6 3.3
-5 7 10 -0.9 2.4
4 -7 -10 1.4 2.6
-4 7 10 3.1 2
3 -7 -10 -3.1 2
-3 7 10 3.3 1.9
2 -7 -10 11.6 2.6
-2 7 10 8.3 2.1
-2 7 10 9.6 2
-2 7 10 16.8 2.2
1 -7 -10 5.6 2.2
1 -7 -10 7 2.2
-1 7 10 3.1 1.8
-1 7 10 4.1 1.9
-1 7 10 4.7 1.5
0 -7 -10 -2 2.1
0 7 10 -0.2 1.1
0 7 10 0.9 1.7
0 7 10 2.5 1.9
-1 -7 -10 6 2.5
1 7 10 5.2 1.2
1 7 10 3.3 1.8
-2 -7 -10 1.4 2.8
2 7 10 1.1 2.8
-3 -7 -10 -1.5 2.7
3 7 10 0 2.6
-4 -7 -10 11.9 3
4 7 10 14.6 3.5
-5 -7 -10 11.7 3.7
5 7 10 9.5 3.7
-6 -7 -10 47.2 6
6 7 10 61.99 8
4 -8 -10 4.7 2.9
-4 8 10 10.5 2.6
3 -8 -10 6 2.5
-3 8 10 0.4 2.2
-3 8 10 2 1.9
2 -8 -10 5.8 2.4
-2 8 10 4.7 1.8
-2 8 10 6 2
-2 8 10 5.5 1.9
1 -8 -10 7.5 2.3
1 -8 -10 6.2 2.4
-1 8 10 2.5 1.6
-1 8 10 6.7 2.2
-1 8 10 2.5 1.6
0 -8 -10 2.2 2.6
0 8 10 3.8 1.5
0 8 10 5.4 1.8
0 8 10 3.4 2.2
-1 -8 -10 46.3 5.4
1 8 10 26 4.8
1 8 10 31.4 3.7
1 8 10 29.8 2.9
-2 -8 -10 5.2 2.9
2 8 10 8.6 1.7
2 8 10 3.8 2.6
-3 -8 -10 45.6 5.5
3 8 10 36 4.8
-4 -8 -10 5.4 3.3
4 8 10 2.4 3.2
-5 -8 -10 3.8 3.4
5 8 10 13.2 4.1
4 -9 -10 6.3 3.4
-4 9 10 12 3.1
3 -9 -10 8.9 2.9
-3 9 10 14 2.5
-3 9 10 11.3 2.6
2 -9 -10 12.4 2.9
-2 9 10 16.4 2.5
-2 9 10 14.1 2.7
-2 9 10 14 2.4
1 -9 -10 4.1 2.2
-1 9 10 0 2.1
-1 9 10 4.1 1.9
-1 9 10 4.5 1.8
0 9 10 2.4 1.8
0 9 10 5.3 1.7
-1 -9 -10 1.6 1.6
-1 -9 -10 -1.6 2.7
1 9 10 -2.8 2.4
1 9 10 -0.3 1.5
1 9 10 -4.3 1.7
-2 -9 -10 4.1 2.7
2 9 10 -3.4 2.5
2 9 10 -0.2 2.3
-3 -9 -10 18.8 3.9
3 9 10 16.6 3.4
3 9 10 18.9 3.5
-4 -9 -10 -1.6 3.5
4 9 10 5.7 3.3
4 9 10 -6.5 3
5 9 10 20.6 4.9
3 -10 -10 18.3 3.3
-3 10 10 19.2 3.3
-3 10 10 12 2.8
2 -10 -10 35.1 4.6
-2 10 10 35 4.3
-2 10 10 34.8 4
1 -10 -10 0 2.2
-1 10 10 5.7 2.2
-1 10 10 4.5 2.6
-1 10 10 1.3 2
0 -10 -10 35.2 4
0 10 10 33.8 3.9
0 10 10 25.3 3.5
0 10 10 30.2 3.9
-1 -10 -10 1.2 2.9
-1 -10 -10 -6.4 3.3
1 10 10 3.4 2.2
1 10 10 -2.2 1.7
1 10 10 2.1 2.6
-2 -10 -10 10.1 3.4
2 10 10 4.1 2.8
-3 -10 -10 -4.5 3.2
3 10 10 2.9 3
3 10 10 0.1 3.1
-4 -10 -10 3.6 3.9
4 10 10 4 3.6
4 10 10 8.6 3.4
-5 -10 -10 11.7 4.5
-3 11 10 2.9 3
2 -11 -10 2.4 2.9
-2 11 10 1.1 2.6
-2 11 10 6.8 2.8
1 -11 -10 -1.2 2.7
-1 11 10 2.5 2.4
-1 11 10 -5.3 2.9
-1 11 10 0.3 2.3
0 -11 -10 1.3 2.6
0 11 10 3.1 2.2
0 11 10 2 2.4
0 11 10 4.3 3
-1 -11 -10 4.4 2.7
1 11 10 2 2.6
1 11 10 3.1 2.6
1 11 10 1.5 3
-2 -11 -10 16.2 3.9
2 11 10 16.9 3.8
-3 -11 -10 -6.7 3.4
3 11 10 0.4 3.3
3 11 10 -1.3 3.4
-4 -11 -10 -0.2 4
4 11 10 2.4 4
4 11 10 0.1 3.8
1 -12 -10 63.79 6.4
-1 12 10 63.29 6.6
-1 12 10 50.29 6.3
0 -12 -10 30.3 4.3
0 12 10 27.8 4
0 12 10 34.5 4.6
-1 -12 -10 8.8 3.2
1 12 10 7.8 2.9
1 12 10 9.3 3.8
2 12 10 34.2 5
-3 -12 -10 -5.4 4.1
1 2 -11 4 3.5
-1 -2 11 12.3 3.2
-1 -2 11 13 3.1
0 2 -11 6.1 2.3
0 -2 11 8.2 3
-1 2 -11 2.9 2.4
1 -2 11 0.7 3
-2 2 -11 5.8 2.5
2 -2 11 8.9 3.4
2 1 -11 59.09 7.2
-2 -1 11 66.89 6
-2 -1 11 68.39 5.9
1 1 -11 10.2 3.5
-1 -1 11 9.3 2.7
-1 -1 11 6.7 2.5
0 1 -11 42.2 4.3
0 -1 11 45.7 4.9
0 -1 11 39.4 4.6
-1 1 -11 13.5 2.7
1 -1 11 20.2 3.5
-2 1 -11 6.1 2.5
2 -1 11 10.6 3.3
-3 1 -11 39.3 4.8
3 -1 11 49.9 6.4
3 0 -11 16.6 3.9
-3 0 11 15.5 3.1
-3 0 11 20.9 3.7
2 0 -11 0.2 3.1
-2 0 11 1.6 2.5
-2 0 11 -1.3 2.4
1 0 -11 103.39 7.9
-1 0 11 94.69 7.2
-1 0 11 105.59 7.1
0 0 11 3.2 1.9
0 0 11 6.7 2.5
-1 0 -11 80.39 5.9
1 0 11 88.59 6.7
-2 0 -11 3.7 2.2
2 0 11 -1.2 2.5
-3 0 -11 34.2 4.5
3 0 11 43.6 5.6
-4 0 -11 2.5 2.8
4 0 11 4.8 3.5
3 -1 -11 2.5 2.8
-3 1 11 5 2.5
-3 1 11 1.1 2.4
2 -1 -11 6.2 3
-2 1 11 9.8 2.3
-2 1 11 6.9 2.4
1 -1 -11 1 2.5
1 -1 -11 0.4 2
-1 1 11 7.2 2.1
-1 1 11 0 2.1
0 -1 -11 11.6 2
0 1 11 5 2.5
0 1 11 6.7 2
-1 -1 -11 -1.4 1.9
1 1 11 -0.6 2.2
-2 -1 -11 9 2.2
2 1 11 12.1 2.9
-3 -1 -11 0 2.3
3 1 11 -0.3 2.9
-4 -1 -11 0 2.8
4 1 11 -3.6 3.4
-5 -1 -11 5.8 3.1
5 1 11 14.2 4.4
4 -2 -11 11.4 3.8
-4 2 11 11.2 2.9
3 -2 -11 10.3 3.1
-3 2 11 9.4 2.7
-3 2 11 11.4 2.5
2 -2 -11 46.4 5.1
-2 2 11 37 4
-2 2 11 45.7 4.2
1 -2 -11 6.8 2.1
1 -2 -11 11.4 2.8
-1 2 11 12 1.9
-1 2 11 7 2.5
0 -2 -11 33.3 3.8
0 2 11 36.3 4.1
0 2 11 45.1 3.6
-1 -2 -11 -0.2 2.6
1 2 11 -1 2.1
-2 -2 -11 8.1 2.1
2 2 11 3.9 2.5
-3 -2 -11 11.9 2.6
3 2 11 5.7 2.8
-4 -2 -11 2.9 2.6
4 2 11 -3.2 3.2
-5 -2 -11 21.3 3.7
5 2 11 18.8 4.6
4 -3 -11 3.8 3.3
-4 3 11 5.7 2.5
3 -3 -11 -0.5 2.5
-3 3 11 2.7 2
2 -3 -11 5.7 2.6
-2 3 11 -1.9 1.6
-2 3 11 -1.1 1.7
1 -3 -11 5.9 2.5
1 -3 -11 6.9 2.3
-1 3 11 5.5 1.7
-1 3 11 5.9 2
0 -3 -11 2.1 2.6
0 -3 -11 3 2.1
0 3 11 0.3 2.1
0 3 11 3 1.4
-1 -3 -11 -3.4 1.9
1 3 11 2.1 1.9
-2 -3 -11 2.1 2.2
2 3 11 2.4 2.2
-3 -3 -11 4.3 2.2
3 3 11 1 2.7
-4 -3 -11 4.6 2.6
4 3 11 3.7 3
-5 -3 -11 6.4 3.2
5 3 11 10.8 4.3
4 -4 -11 6.1 3.1
-4 4 11 1.9 2.3
3 -4 -11 -2 2.8
-3 4 11 1.1 2
2 -4 -11 5.7 2.6
-2 4 11 5.3 2
1 -4 -11 8 2.4
1 -4 -11 9.8 2.4
-1 4 11 8.2 2.3
-1 4 11 8.7 1.8
0 -4 -11 17.8 3
0 -4 -11 17.7 2.9
0 4 11 19.3 3
0 4 11 16.6 2
-1 -4 -11 5.5 2.2
1 4 11 9.2 2.4
-2 -4 -11 6.1 2.3
2 4 11 5.5 2.5
-3 -4 -11 1 2.6
3 4 11 2.6 2.5
-4 -4 -11 0.6 2.8
4 4 11 -2.5 3
-5 -4 -11 6.6 3.3
5 4 11 3.4 4
4 -5 -11 21.1 4
-4 5 11 15.8 3
3 -5 -11 5.7 2.5
-3 5 11 -0.4 1.9
2 -5 -11 49 4.5
-2 5 11 40.8 4.2
1 -5 -11 11.7 2.6
1 -5 -11 12.2 2.6
-1 5 11 15.5 2
-1 5 11 12.4 2.4
0 -5 -11 3.4 2.3
0 5 11 3.2 2
0 5 11 4 1.4
-1 -5 -11 17.2 2.8
1 5 11 13.9 2.5
-2 -5 -11 38.4 4.6
2 5 11 43.4 4.8
-3 -5 -11 5.1 2.5
3 5 11 3.5 2.9
4 5 11 73.99 6.8
-5 -5 -11 3.2 3.3
5 5 11 2.7 3.9
4 -6 -11 5.1 3.3
-4 6 11 5.7 2.5
3 -6 -11 2 2.8
-3 6 11 0.8 2
-3 6 11 -2 2.1
2 -6 -11 21.7 3.2
-2 6 11 18 2.9
-2 6 11 24.7 3.1
1 -6 -11 9.2 2.7
1 -6 -11 12.6 2.7
-1 6 11 11.4 2.4
-1 6 11 13.3 1.8
-1 6 11 9.3 2.2
0 -6 -11 5.9 2.5
0 6 11 4.7 2
0 6 11 3.6 1.3
-1 -6 -11 13.3 2.9
1 6 11 12.5 2.8
1 6 11 11.1 1.9
-2 -6 -11 1 2.6
2 6 11 1.1 2.2
-3 -6 -11 3.5 3
3 6 11 9.4 2.8
-4 -6 -11 9.4 3.3
4 6 11 11.2 3.7
-5 -6 -11 19.2 4.2
5 6 11 9.8 3.9
4 -7 -11 0.2 3.3
-4 7 11 -0.8 2.3
3 -7 -11 16.2 3.1
-3 7 11 9.4 2.3
-3 7 11 10.6 2.7
2 -7 -11 1.2 2.7
-2 7 11 2.9 1.7
-2 7 11 0.9 2.1
1 -7 -11 6.1 2.6
1 -7 -11 2.7 2.6
-1 7 11 3.5 2.2
-1 7 11 8.4 2
-1 7 11 5.4 1.6
0 -7 -11 6 2.6
0 7 11 -1.7 2.1
0 7 11 2.7 1.3
0 7 11 2.5 2.1
-1 -7 -11 11.4 3.1
1 7 11 9.4 1.5
1 7 11 7.7 2.3
-2 -7 -11 4 2.8
2 7 11 1.2 2.3
-3 -7 -11 27 4.1
3 7 11 27.5 4.2
-4 -7 -11 4.3 3.2
4 7 11 1.1 3.2
-5 -7 -11 4.9 3.7
5 7 11 3.4 3.9
4 -8 -11 -3.8 3.3
-4 8 11 3.8 2.5
3 -8 -11 1.9 3.1
-3 8 11 9.5 2.3
-3 8 11 7.3 2.5
2 -8 -11 2.9 2.8
-2 8 11 4 2.1
-2 8 11 1.4 3.3
-2 8 11 5.1 2
1 -8 -11 -0.3 2.6
1 -8 -11 4.1 2.6
-1 8 11 -3.9 2.2
-1 8 11 2.4 1.7
-1 8 11 -0.1 2
0 -8 -11 10.1 3
0 8 11 6.5 2.2
0 8 11 6.4 1.8
0 8 11 6.8 3.1
-1 -8 -11 12.7 3.1
1 8 11 10.3 1.8
1 8 11 9.8 2.5
1 8 11 6.7 2.8
-2 -8 -11 6.8 3.2
2 8 11 4 2.6
-3 -8 -11 4.1 3.5
3 8 11 3.4 3
-4 -8 -11 -5.7 3.3
4 8 11 6.3 3.4
-5 -8 -11 9.7 4.3
5 8 11 14.1 4.5
3 -9 -11 91.69 7.4
-3 9 11 87.09 7.1
-3 9 11 82.89 6.8
2 -9 -11 2.1 2.7
-2 9 11 0.4 2.2
-2 9 11 2.6 2.2
-2 9 11 4.2 2.9
-1 9 11 70.59 5.4
-1 9 11 73.99 5.9
0 -9 -11 -3 2.8
0 9 11 -3.6 1.9
0 9 11 2.2 2.5
0 9 11 -1.5 1.7
-1 -9 -11 31.1 4.3
1 9 11 32.9 3.7
1 9 11 33.1 4.3
1 9 11 38.4 4.5
-2 -9 -11 2 3
2 9 11 7.6 2.9
2 9 11 3.3 2.7
-3 -9 -11 16.2 3.8
3 9 11 10.2 3.4
3 9 11 11.4 3.7
-4 -9 -11 6.3 4.3
4 9 11 12.9 4.1
3 -10 -11 54.39 6.4
-3 10 11 54.89 5.6
-3 10 11 54.49 5.4
2 -10 -11 2.6 3
-2 10 11 3.7 3.2
-2 10 11 2.8 4
-2 10 11 -1.1 2.4
-1 10 11 87.69 6.4
-1 10 11 85.69 6.9
-1 10 11 84.39 6.5
0 -10 -11 4.9 3
0 10 11 4.3 2.9
0 10 11 2.3 2.3
-1 -10 -11 90.89 7.8
1 10 11 102.69 7.4
1 10 11 95.99 7.7
-2 -10 -11 0.4 3.6
2 10 11 0.1 2.6
2 10 11 -1.2 3
-3 -10 -11 46.4 6
3 10 11 76.09 7
3 10 11 61.79 6.9
-4 -10 -11 11.3 4.4
4 10 11 10.7 3.5
4 10 11 4 4
-2 11 11 17.6 3.6
-2 11 11 29.9 6.2
-1 11 11 44.3 5.1
-1 11 11 45.3 5.1
-1 11 11 53.99 6.3
0 -11 -11 14.7 3
0 11 11 11.6 3.2
0 11 11 7.4 3.4
0 11 11 10.4 2.8
-1 -11 -11 9.5 3.6
1 11 11 6.4 3.6
1 11 11 6.3 3.2
-2 -11 -11 -1.8 3.4
2 11 11 -1.4 3
2 11 11 2.2 3.7
-3 -11 -11 -2.5 4.1
3 11 11 -0.4 3.7
3 11 11 2.4 3.8
0 12 11 8.8 3.9
0 12 11 -1.6 2.8
1 12 11 84.39 8.1
1 0 -12 0.4 3.7
-1 0 12 -1.7 4.7
-1 0 12 3.9 3
0 0 -12 -1.3 2.5
0 0 12 2.4 3.1
-1 0 -12 -0.3 2.5
1 0 12 -0.8 2.9
-2 0 -12 16.7 3
2 0 12 21.1 3.9
2 -1 -12 2 3.8
-2 1 12 6.8 2.7
-2 1 12 7.6 2.8
1 -1 -12 13.8 3.8
-1 1 12 17 3.5
-1 1 12 13.8 2.9
0 -1 -12 4.8 2.5
0 1 12 3.1 2.8
-1 -1 -12 5.4 2.5
1 1 12 0.7 2.9
-2 -1 -12 -1 2.6
2 1 12 -0.6 2.9
-3 -1 -12 2.3 2.8
3 1 12 -4.6 3.2
2 -2 -12 33.3 4.7
-2 2 12 34.3 4.3
-2 2 12 20.4 3.4
1 -2 -12 32.6 4.6
-1 2 12 32.3 3.7
-1 2 12 33.8 4.5
0 -2 -12 4.3 3.2
0 2 12 6.5 2.8
-1 -2 -12 17.6 2.8
1 2 12 11 3.1
-2 -2 -12 4 2.5
2 2 12 6.2 3.3
-3 -2 -12 3.9 2.8
3 2 12 3.6 3.4
-4 -2 -12 24.4 4
4 2 12 29.2 5.2
3 -3 -12 9.6 3.7
-3 3 12 8.5 2.6
-3 3 12 8.8 2.6
2 -3 -12 40.8 5.7
-2 3 12 36.1 4.7
-2 3 12 45.9 4.5
1 -3 -12 2.4 2.8
-1 3 12 7.5 2.5
-1 3 12 5 2.1
0 -3 -12 14.3 2.8
0 3 12 8.8 2.9
-1 -3 -12 -1 2.5
1 3 12 4.5 2.6
-2 -3 -12 1.8 2.3
2 3 12 -2.5 4.1
-3 -3 -12 -3.3 2.8
3 3 12 2.5 3.3
-4 -3 -12 4.3 2.9
4 3 12 0.6 3.7
3 -4 -12 6.2 3.2
-3 4 12 12.5 2.9
-3 4 12 10 2.5
2 -4 -12 30.9 4.3
-2 4 12 31.8 4.1
-2 4 12 42 4.2
1 -4 -12 11 3.3
-1 4 12 9.9 2.6
-1 4 12 10.8 2.2
0 -4 -12 21.1 3.4
0 4 12 23.5 3.7
-1 -4 -12 4.2 2.8
1 4 12 -0.2 2.4
-2 -4 -12 3.3 2.8
2 4 12 3.2 2.7
-3 -4 -12 8.6 3.1
3 4 12 5.5 3.4
-4 -4 -12 2 2.8
4 4 12 7.6 4
3 -5 -12 0.4 3.1
-3 5 12 1.5 2.5
-3 5 12 4.3 2.5
2 -5 -12 18.4 3.5
-2 5 12 17.5 3.1
-2 5 12 14.2 2.5
1 -5 -12 5.7 3
1 -5 -12 3.6 4.2
-1 5 12 5.3 1.9
-1 5 12 6 2.1
0 -5 -12 64.29 5.8
0 5 12 52.79 5.5
-1 -5 -12 1.4 2.7
1 5 12 -0.4 2.4
-2 -5 -12 43.9 5.5
2 5 12 56.19 5.8
-3 -5 -12 25.6 3.9
3 5 12 24.6 4.3
-4 -5 -12 20.5 4.2
4 5 12 13.9 4.2
3 -6 -12 -8 3.2
-3 6 12 0.4 2.2
-3 6 12 1 2.6
2 -6 -12 -0.4 3.1
-2 6 12 -3.7 1.9
-2 6 12 -1.2 2.3
1 -6 -12 9 3.2
1 -6 -12 3.4 3.1
-1 6 12 4.4 1.8
-1 6 12 -1.2 2.5
-1 6 12 3.1 2.2
0 -6 -12 5.2 2.9
0 6 12 0.8 2.4
-1 -6 -12 4.4 2.9
1 6 12 1.1 2.2
-2 -6 -12 -0.4 3.2
2 6 12 6.2 3
-3 -6 -12 2.3 3.3
3 6 12 6.6 3.3
-4 -6 -12 9.1 3.8
4 6 12 14.5 4.3
3 -7 -12 11.1 3.7
-3 7 12 9.3 3
-3 7 12 13.3 2.7
2 -7 -12 -4.6 2.9
-2 7 12 5 2
-2 7 12 5.5 2.4
1 -7 -12 4.3 3
1 -7 -12 -2.6 3
-1 7 12 1.9 1.7
-1 7 12 -0.3 2.6
-1 7 12 -3.6 2.1
0 -7 -12 1.7 3.5
0 7 12 1.2 2.2
-1 -7 -12 18.6 3.6
1 7 12 20.7 3.3
-2 -7 -12 9.2 3.5
2 7 12 22.4 3.7
-3 -7 -12 14.2 3.9
3 7 12 14.1 3.6
-4 -7 -12 2.9 3.8
4 7 12 11 4.3
3 -8 -12 9.9 3.7
-3 8 12 3.9 2.8
-3 8 12 7.1 2.6
2 -8 -12 4.8 3.4
-2 8 12 4.4 2.7
-2 8 12 1.8 2.2
1 -8 -12 18.5 3.5
1 -8 -12 15.5 3.6
-1 8 12 17.7 3.3
-1 8 12 21.6 3.3
-1 8 12 18.6 2.6
0 -8 -12 2.2 3.2
0 8 12 0.3 2.2
0 8 12 5.8 2.8
-1 -8 -12 29.2 4.2
1 8 12 17.6 3.4
-2 -8 -12 6.5 3.8
2 8 12 3.2 3
-3 -8 -12 1.1 3.9
3 8 12 0.4 3.3
-4 -8 -12 2.7 3.8
4 8 12 2.9 3.8
2 -9 -12 9.3 3.5
-2 9 12 11.7 2.8
-2 9 12 11.2 2.8
1 -9 -12 2 3.3
-1 9 12 0.9 2.7
-1 9 12 3.6 2.1
-1 9 12 -5.2 2.9
0 -9 -12 -1.1 3.2
0 9 12 -1.1 3.1
0 9 12 -0.8 2.3
-1 -9 -12 0.7 3.4
1 9 12 0.7 3.3
1 9 12 -1.1 2.5
-2 -9 -12 4.4 3.8
2 9 12 6.5 3.5
2 9 12 -0.6 3
-3 -9 -12 10 4.3
3 9 12 8 3.7
-4 -9 -12 0.9 4.8
-1 10 12 8.5 3.4
-1 10 12 11 3.2
-1 10 12 15.6 2.8
0 -10 -12 16.4 3.7
0 10 12 11.2 3.6
0 10 12 5.9 3
-1 -10 -12 27.8 4.5
1 10 12 33.2 4.6
1 10 12 36.2 4.9
-2 -10 -12 6.5 4.2
2 10 12 8.1 3.5
2 10 12 12.8 4.1
-3 -10 -12 45.2 5.6
3 10 12 49.7 6
3 10 12 44.1 5.7
0 11 12 23.5 3.9
0 11 12 28.2 4.6
-1 -11 -12 40.6 5.3
1 11 12 41.8 5.3
1 11 12 43.4 5.1
0 2 13 12.2 3.6
-1 -2 -13 3.2 3
1 2 13 2.3 3.1
1 -3 -13 16.7 4.2
-1 3 13 8.3 3.2
0 3 13 122.19 9.3
-1 -3 -13 14 3.3
1 3 13 10.5 3.6
-2 -3 -13 103.69 8
2 3 13 103.69 8.3
1 -4 -13 32.9 4.8
-1 4 13 23.4 3.8
0 -4 -13 63.39 6.3
0 4 13 62.29 6
-1 -4 -13 49.6 5.6
1 4 13 43.8 5.3
-2 -4 -13 43.7 5.6
2 4 13 42.3 5.5
-3 -4 -13 57.09 6.1
3 4 13 36.6 5.5
2 -5 -13 1.7 3.9
-2 5 13 -0.3 2.7
-2 5 13 3.2 2.5
1 -5 -13 31.1 4.9
-1 5 13 31.3 4.4
0 -5 -13 4.4 3.5
0 5 13 6.4 3.4
-1 -5 -13 9.8 3.4
1 5 13 9.4 3.3
-2 -5 -13 23.5 4.4
2 5 13 40 5.1
-3 -5 -13 1.5 3.7
3 5 13 0.9 3.8
2 -6 -13 3.3 3.8
-2 6 13 3.4 2.9
-2 6 13 -4.4 2.5
1 -6 -13 14.7 4
-1 6 13 12.1 3.3
0 -6 -13 9.2 3.9
0 6 13 6.9 3.2
-1 -6 -13 10.8 3.6
1 6 13 9.8 3.4
-2 -6 -13 12.5 3.9
2 6 13 5 3.5
-3 -6 -13 7.9 4.1
3 6 13 8.3 3.9
1 -7 -13 16.5 4
-1 7 13 13.4 3.5
0 -7 -13 2.9 4
0 7 13 3.7 2.6
-1 -7 -13 1.7 3.6
1 7 13 0.7 3.2
-2 -7 -13 -1.2 4
2 7 13 1.6 2.8
-3 -7 -13 2 4.1
3 7 13 8.3 4.1
-1 8 13 5.4 3.3
0 -8 -13 0.2 4
0 8 13 1.4 3.2
0 8 13 3.2 2.9
-1 -8 -13 8.1 4.1
1 8 13 9.7 3.3
-2 -8 -13 4.7 4.3
2 8 13 -3.1 3.4
-3 -8 -13 10.3 4.7
3 8 13 11.5 4.4
0 -9 -13 14.9 4.5
0 9 13 10.7 4.1
0 9 13 14.1 3.5
-1 -9 -13 21.6 4.7
1 9 13 23.6 4.4
1 9 13 12.4 3.8
-2 -9 -13 10.8 4.4
2 9 13 9.1 4
2 9 13 7.5 4
