#------------------------------------------------------------------------------
#$Date: 2020-08-04 05:10:40 +0300 (Tue, 04 Aug 2020) $
#$Revision: 254764 $
#$URL: file:///home/coder/svn-repositories/cod/cif/4/51/78/4517844.cif $
#------------------------------------------------------------------------------
#
# This file is available in the Crystallography Open Database (COD),
# http://www.crystallography.net/
#
# All data on this site have been placed in the public domain by the
# contributors.
#
data_4517844
loop_
_publ_author_name
'Pisarek, Joanna'
'Malinska, Maura'
_publ_section_title
;
 Structure and Morphology of Indole Analogue Crystals.
;
_journal_issue                   28
_journal_name_full               'ACS omega'
_journal_page_first              17141
_journal_page_last               17151
_journal_paper_doi               10.1021/acsomega.0c01020
_journal_volume                  5
_journal_year                    2020
_chemical_absolute_configuration ad
_chemical_formula_moiety         'C9 H6 N2'
_chemical_formula_sum            'C9 H6 N2'
_chemical_formula_weight         142.16
_space_group_crystal_system      orthorhombic
_space_group_IT_number           19
_space_group_name_Hall           'P 2ac 2ab'
_space_group_name_H-M_alt        'P 21 21 21'
_atom_sites_solution_hydrogens   mixed
_atom_sites_solution_primary     direct
_audit_creation_date             2018-11-19
_audit_creation_method
;
Olex2 1.2
(compiled May 29 2018 13:30:08 for OlexSys, GUI svn.r5506)
;
_cell_angle_alpha                90
_cell_angle_beta                 90
_cell_angle_gamma                90
_cell_formula_units_Z            4
_cell_length_a                   3.87758(14)
_cell_length_b                   7.6453(3)
_cell_length_c                   23.7995(9)
_cell_measurement_reflns_used    5174
_cell_measurement_temperature    100.00(10)
_cell_measurement_theta_max      71.3910
_cell_measurement_theta_min      3.7030
_cell_volume                     705.54(5)
_computing_cell_refinement       'CrysAlisPro 1.171.38.46 (Rigaku OD, 2015)'
_computing_data_collection       'CrysAlisPro 1.171.38.46 (Rigaku OD, 2015)'
_computing_data_reduction        'CrysAlisPro 1.171.38.46 (Rigaku OD, 2015)'
_computing_molecular_graphics    'Olex2 (Dolomanov et al., 2009)'
_computing_publication_material  'Olex2 (Dolomanov et al., 2009)'
_computing_structure_refinement  'ShelXL (Sheldrick, 2015)'
_computing_structure_solution    'XS (Sheldrick, 2008)'
_diffrn_ambient_environment      N~2~
_diffrn_ambient_temperature      100.00(10)
_diffrn_detector                 'CCD plate'
_diffrn_detector_area_resol_mean 5.2195
_diffrn_detector_type            Atlas
_diffrn_measured_fraction_theta_full 1.000
_diffrn_measured_fraction_theta_max 1.000
_diffrn_measurement_details
;
List of Runs (angles in degrees, time in seconds):

  # Type    Start    End  Width  t~exp~   \w     \q     \k     \f   Frames
--------------------------------------------------------------------------
  1  \w    -99.00 -34.00   1.00    1.00    --    0.00 178.00 120.00   65
  2  \w      1.00  51.00   1.00    1.00    --    0.00 -99.00 -90.00   50
  3  \w    -98.00  38.00   1.00    1.00    --  -55.02  61.00 -60.00  136
  4  \w   -151.00 -80.00   1.00    1.00    --  -55.02 -94.00  30.00   71
  5  \w   -151.00 -80.00   1.00    1.00    --  -55.02 -94.00 -90.00   71
  6  \w    -96.00  -2.00   1.00    1.00    --  -55.02 125.00  60.00   94
  7  \w   -151.00 -80.00   1.00    1.00    --  -55.02 -94.00-180.00   71
  8  \w     11.00 155.00   1.00    1.00    --   55.02  77.00   0.00  144
  9  \w     68.00 178.00   1.00    1.00    --  110.04  50.00 -30.00  110
 10  \w     57.00 150.00   1.00    1.00    --  110.04 178.00 150.00   93
 11  \w    100.00 178.00   1.00    1.00    --  110.04 111.00   0.00   78
 12  \w     64.00 178.00   1.00    1.00    --  110.04  38.00-120.00  114
 13  \w     13.00 158.00   1.00    1.00    --  110.04 -91.00-180.00  145
 14  \w    100.00 178.00   1.00    1.00    --  110.04 111.00 -90.00   78
 15  \w     18.00 115.00   1.00    1.00    --  110.04-111.00 120.00   97
 16  \w    100.00 178.00   1.00    1.00    --  110.04 111.00 150.00   78
 17  \w     66.00 178.00   1.00    1.00    --  110.04  63.00 -90.00  112
 18  \w     57.00 150.00   1.00    1.00    --  110.04 178.00  90.00   93
 19  \w     10.00 154.00   1.00    1.00    --  110.04 -77.00  60.00  144
 20  \w   -100.00  44.00   1.00    1.00    --    0.00 -77.00  30.00  144
 21  \w   -155.00 -11.00   1.00    1.00    --  -55.02 -77.00  60.00  144
 22  \w     13.00 146.00   1.00    1.00    --   55.02  45.00-150.00  133
 23  \w     11.00  38.00   1.00    1.00    --   55.02  84.00-178.50   27
 24  \w     94.00 146.00   1.00    1.00    --   55.02 125.00 120.00   52
 25  \w     13.00 146.00   1.00    1.00    --   55.02  45.00 150.00  133
 26  \w     13.00 146.00   1.00    1.00    --   55.02  45.00  30.00  133
 27  \w     11.00 155.00   1.00    1.00    --   55.02  77.00 -90.00  144
 28  \w     12.00 148.00   1.00    1.00    --   55.02  61.00 -90.00  136
 29  \w     11.00 155.00   1.00    1.00    --   55.02  77.00  60.00  144
 30  \w     67.00 157.00   1.00    1.00    --  110.04  77.00  60.00   90
 31  \w     64.00 178.00   1.00    1.00    --  110.04  38.00  30.00  114
 32  \w     66.00 178.00   1.00    1.00    --  110.04  63.00 150.00  112
 33  \w     32.00 178.00   1.00    1.00    --  110.04  25.00 120.00  146
;
_diffrn_measurement_device       'four-circle diffractometer'
_diffrn_measurement_device_type  'SuperNova, Dual, Cu at zero, Atlas'
_diffrn_measurement_method       '\w scans'
_diffrn_orient_matrix_type
'CrysAlisPro convention (1999,Acta A55,543-557)'
_diffrn_orient_matrix_UB_11      0.2268235000
_diffrn_orient_matrix_UB_12      0.1228674000
_diffrn_orient_matrix_UB_13      -0.0356536000
_diffrn_orient_matrix_UB_21      0.2011144000
_diffrn_orient_matrix_UB_22      0.0536503000
_diffrn_orient_matrix_UB_23      0.0530621000
_diffrn_orient_matrix_UB_31      0.2569739000
_diffrn_orient_matrix_UB_32      -0.1503988000
_diffrn_orient_matrix_UB_33      -0.0101041000
_diffrn_radiation_monochromator  mirror
_diffrn_radiation_probe          x-ray
_diffrn_radiation_type           CuK\a
_diffrn_radiation_wavelength     1.54184
_diffrn_reflns_av_R_equivalents  0.0363
_diffrn_reflns_av_unetI/netI     0.0202
_diffrn_reflns_Laue_measured_fraction_full 1.000
_diffrn_reflns_Laue_measured_fraction_max 1.000
_diffrn_reflns_limit_h_max       4
_diffrn_reflns_limit_h_min       -4
_diffrn_reflns_limit_k_max       9
_diffrn_reflns_limit_k_min       -9
_diffrn_reflns_limit_l_max       29
_diffrn_reflns_limit_l_min       -29
_diffrn_reflns_number            10448
_diffrn_reflns_point_group_measured_fraction_full 1.000
_diffrn_reflns_point_group_measured_fraction_max 0.997
_diffrn_reflns_theta_full        67.684
_diffrn_reflns_theta_max         71.570
_diffrn_reflns_theta_min         3.714
_diffrn_source                   'micro-focus sealed X-ray tube'
_diffrn_source_type              'SuperNova (Cu) X-ray Source'
_exptl_absorpt_coefficient_mu    0.657
_exptl_absorpt_correction_T_max  1.00000
_exptl_absorpt_correction_T_min  0.73418
_exptl_absorpt_correction_type   multi-scan
_exptl_absorpt_process_details
;
CrysAlisPro 1.171.38.46 (Rigaku Oxford Diffraction, 2015)
Empirical absorption correction using spherical harmonics,
 implemented in SCALE3 ABSPACK scaling algorithm.
;
_exptl_crystal_colour            'clear colourless'
_exptl_crystal_colour_lustre     clear
_exptl_crystal_colour_primary    colourless
_exptl_crystal_density_diffrn    1.338
_exptl_crystal_description       block
_exptl_crystal_F_000             296
_exptl_crystal_size_max          0.33
_exptl_crystal_size_mid          0.3
_exptl_crystal_size_min          0.2
_refine_diff_density_max         0.150
_refine_diff_density_min         -0.220
_refine_diff_density_rms         0.039
_refine_ls_abs_structure_details
;
 Flack x determined using 483 quotients [(I+)-(I-)]/[(I+)+(I-)]
 (Parsons, Flack and Wagner, Acta Cryst. B69 (2013) 249-259).
;
_refine_ls_abs_structure_Flack   -0.2(3)
_refine_ls_extinction_method     none
_refine_ls_goodness_of_fit_ref   1.110
_refine_ls_hydrogen_treatment    mixed
_refine_ls_matrix_type           full
_refine_ls_number_parameters     103
_refine_ls_number_reflns         1376
_refine_ls_number_restraints     0
_refine_ls_restrained_S_all      1.110
_refine_ls_R_factor_all          0.0353
_refine_ls_R_factor_gt           0.0326
_refine_ls_shift/su_max          0.000
_refine_ls_shift/su_mean         0.000
_refine_ls_structure_factor_coef Fsqd
_refine_ls_weighting_details
'w=1/[\s^2^(Fo^2^)+(0.0328P)^2^+0.1908P] where P=(Fo^2^+2Fc^2^)/3'
_refine_ls_weighting_scheme      calc
_refine_ls_wR_factor_gt          0.0768
_refine_ls_wR_factor_ref         0.0789
_reflns_Friedel_coverage         0.602
_reflns_Friedel_fraction_full    1.000
_reflns_Friedel_fraction_max     0.992
_reflns_number_gt                1306
_reflns_number_total             1376
_reflns_threshold_expression     'I > 2\s(I)'
_cod_data_source_file            ao0c01020_si_001.cif
_cod_data_source_block           4cI
_cod_depositor_comments
'Adding full bibliography for 4517840--4517846.cif.'
_cod_database_code               4517844
_shelx_shelxl_version_number     2018/3
_chemical_oxdiff_formula         'C9 N1 H6'
_chemical_oxdiff_usercomment     'colourless plate, 100 K'
_shelx_space_group_comment
;
The symmetry employed for this shelxl refinement is uniquely defined
by the following loop, which should always be used as a source of
symmetry information in preference to the above space-group names.
They are only intended as comments.
;
_shelx_estimated_absorpt_t_max   0.880
_shelx_estimated_absorpt_t_min   0.812
_reflns_odcompleteness_completeness 99.88
_reflns_odcompleteness_iscentric 1
_reflns_odcompleteness_theta     66.97
_olex2_refinement_description
;
1. Fixed Uiso
 At 1.2 times of:
  All C(H) groups, All N(H) groups
2.a Aromatic/amide H refined with riding coordinates:
 C2(H2), C7(H7), C3(H3), C6(H6), C5(H5)
;
_shelx_res_file
;
TITL 2017_09_20_mm9 in P212121 #19
    2017_09_20_mm9.res
    created by SHELXL-2018/3 at 16:26:09 on 19-Nov-2018
REM reset to P212121 #19
CELL 1.54184 3.877581 7.645292 23.799458 90 90 90
ZERR 4 0.000145 0.000271 0.000941 0 0 0
LATT -1
SYMM 0.5-X,-Y,0.5+Z
SYMM 0.5+X,0.5-Y,-Z
SYMM -X,0.5+Y,0.5-Z
SFAC C H N
UNIT 36 24 8

L.S. 15
PLAN  2
SIZE 0.33 0.3 0.2
TEMP -173.13
BOND
fmap 2
acta
SHEL 100 0.81
REM <olex2.extras>
REM <HklSrc "%./2017_09_20_mm9.hkl">
REM </olex2.extras>

WGHT    0.032800    0.190800
FVAR      11.84928
N1    3    0.665244    0.183591    0.076268    11.00000    0.02636    0.01427 =
         0.02956    0.00159   -0.00410   -0.00146
H1    2    0.766899    0.288409    0.077443    11.00000   -1.20000
C4    1    0.242048   -0.176812    0.141462    11.00000    0.02187    0.01529 =
         0.02961    0.00093   -0.00236    0.00078
C2    1    0.643073    0.076817    0.030057    11.00000    0.02482    0.02073 =
         0.02428    0.00142   -0.00200    0.00108
AFIX  43
H2    2    0.728590    0.105011   -0.006236    11.00000   -1.20000
AFIX   0
C8    1    0.519593    0.099706    0.121389    11.00000    0.02009    0.01349 =
         0.02773    0.00034   -0.00382    0.00156
N2    3    0.003952   -0.477570    0.109466    11.00000    0.03469    0.02022 =
         0.03971    0.00024    0.00106   -0.00486
C7    1    0.486199    0.153930    0.177011    11.00000    0.02587    0.01463 =
         0.03153   -0.00370   -0.00684    0.00261
AFIX  43
H7    2    0.564557    0.265909    0.188690    11.00000   -1.20000
AFIX   0
C3    1    0.480511   -0.075703    0.043730    11.00000    0.02309    0.01952 =
         0.02655   -0.00414   -0.00125    0.00119
AFIX  43
H3    2    0.430499   -0.170290    0.019159    11.00000   -1.20000
AFIX   0
C6    1    0.335402    0.039516    0.214623    11.00000    0.02737    0.02428 =
         0.02560   -0.00248   -0.00249    0.00359
AFIX  43
H6    2    0.314355    0.072531    0.252952    11.00000   -1.20000
AFIX   0
C9    1    0.400368   -0.065282    0.102160    11.00000    0.01964    0.01602 =
         0.02707   -0.00111   -0.00224    0.00200
C10   1    0.110305   -0.344686    0.123820    11.00000    0.02433    0.01811 =
         0.03021    0.00243    0.00139    0.00023
C5    1    0.212602   -0.124679    0.197292    11.00000    0.02402    0.02228 =
         0.02768    0.00443    0.00043    0.00113
AFIX  43
H5    2    0.108560   -0.200803    0.223901    11.00000   -1.20000
AFIX   0
HKLF 4




REM  2017_09_20_mm9 in P212121 #19
REM wR2 = 0.0789, GooF = S = 1.110, Restrained GooF = 1.110 for all data
REM R1 = 0.0326 for 1306 Fo > 4sig(Fo) and 0.0353 for all 1376 data
REM 103 parameters refined using 0 restraints

END

WGHT      0.0329      0.1884

REM Highest difference peak  0.150,  deepest hole -0.220,  1-sigma level  0.039
Q1    1   0.4743  0.0197  0.1151  11.00000  0.05    0.15
Q2    1   0.2127 -0.0880  0.1167  11.00000  0.05    0.13
;
_shelx_res_checksum              5383
_shelx_hkl_file
;
   0   0  -2 15359.8 226.432  20
   0   0  -2 15173.2 265.211   2
   0   0  -3 28.9690 63.2988   2
   0   0   3 31.1551 36.2777   1
   0   0  -3 31.8918 42.3921  20
   0   0   4 482331. 1363.11   1
   0   0  -4 477309. 2069.73   2
   0   0  -5 72.4700 73.5903  20
   0   0   5-51.5411 44.7052   1
   0   0  -5 14.0112 84.5753   2
   0   0   6 27824.9 369.811   1
   0   0  -6 27230.4 609.341   2
   0   0  -6 27241.2 746.299   7
   0   0   7-168.888 174.425  27
   0   0  -7-42.3600 148.921   7
   0   0  -7-8.15612 199.534  29
   0   0  -7 91.1505 119.203  25
   0   0   7 187.732 159.586  28
   0   0  -7 3.42468 71.8632  20
   0   0   7 24.9840 40.2512   1
   0   0  -7 39.5678 99.7906   2
   0   0  -8 14346.0 643.372   7
   0   0   8 14619.2 696.766  28
   0   0  -8 13957.7 808.022  29
   0   0  -8 14853.3 621.869   3
   0   0   8 15799.9 722.562  27
   0   0   8 13864.8 273.389   1
   0   0  -8 15463.3 597.499  25
   0   0  -8 15366.2 531.631   2
   0   0  -8 14059.8 442.754  20
   0   0  -9 85.9879 154.159   3
   0   0  -9-19.5107 119.448  25
   0   0  -9 8.56958 227.335  29
   0   0   9 12.8725 168.574  28
   0   0  -9 75.8016 164.133   7
   0   0  -9 66.0478 80.0537  20
   0   0   9-28.7790 194.575  27
   0   0  -9 143.430 114.043   2
   0   0  10 114996. 2122.13  27
   0   0  10 112944. 2110.32  28
   0   0 -10 112352. 1828.87  25
   0   0 -10 114952. 1947.78   7
   0   0 -10 109459. 1873.63   3
   0   0 -10 109797. 2389.60  29
   0   0 -10 110888. 1383.25  20
   0   0 -11 39.0529 175.221   3
   0   0 -11 189.729 245.759  29
   0   0 -11 2.83318 138.423  25
   0   0  11 107.547 191.995  28
   0   0  11 234.189 233.064  27
   0   0 -11 90.3566 201.753   7
   0   0 -12 207923. 2918.37   7
   0   0 -12 210656. 2891.26   3
   0   0 -12 215222. 2852.70  25
   0   0  12 206440. 3206.66  28
   0   0  12 213892. 3262.60  27
   0   0 -12 212205. 3752.06  29
   0   0  13 221.788 275.610  28
   0   0 -13-13.5462 176.310  25
   0   0  13 234.444 239.776  27
   0   0 -13 42.3305 182.478   7
   0   0 -13-277.909 340.822  29
   0   0 -13-82.3359 196.807   3
   0   0 -14 31068.2 1239.12   3
   0   0  14 32424.6 1424.48  28
   0   0 -14 33262.5 1302.71   7
   0   0 -14 33857.7 1693.21  29
   0   0 -14 36280.4 1302.51  25
   0   0  14 32630.7 1439.30  27
   0   0 -15 59.4999 144.945  25
   0   0 -15-144.334 223.868   3
   0   0 -15-366.875 300.341  29
   0   0 -15 121.929 192.683   7
   0   0  15 87.9507 258.640  27
   0   0  15-98.5668 257.014  28
   0   0 -16 877.694 300.131   7
   0   0  16 1327.27 397.544  28
   0   0 -16 1068.01 267.078  25
   0   0  16 1076.11 382.970  27
   0   0 -16 1167.71 425.742  29
   0   0 -16 606.972 260.991   3
   0   0  17-66.0215 260.538  28
   0   0 -17-505.414 249.402   7
   0   0 -17 171.497 286.233  29
   0   0  17 237.350 297.268  27
   0   0 -17 58.5610 177.779   3
   0   0 -18 904.544 420.336  29
   0   0 -18 961.613 342.666   3
   0   0 -18 786.896 264.978   7
   0   0  18 1314.34 441.306  27
   0   0  18 930.748 375.752  28
   0   0  19 754.770 410.034  26
   0   0  19-45.5616 265.674  27
   0   0 -19 148.547 238.818   3
   0   0 -19 332.659 212.955   7
   0   0  19 19.0956 277.859  28
   0   0 -19-632.375 373.545  29
   0   0 -20 10267.5 940.605  33
   0   0 -20 8957.33 732.454  13
   0   0  20 8902.07 1033.71   9
   0   0  20 9907.92 1015.45  27
   0   0  20 10081.4 1019.84  28
   0   0 -20 9796.77 863.500   7
   0   0 -20 9591.63 865.013   3
   0   0  20 9904.28 989.516  17
   0   0 -21-216.684 271.128  33
   0   0 -21-11.7333 175.586   7
   0   0  21-46.0906 265.414  27
   0   0  21 628.512 413.371  17
   0   0  21 190.819 300.089  28
   0   0 -21-600.316 276.916   3
   0   0  21 246.912 320.368   9
   0   0 -21-669.490 254.960  13
   0   0  22 1700.48 503.937  17
   0   0  22 1355.30 497.546   9
   0   0 -22 1536.18 368.761  13
   0   0 -22 1879.75 487.147  33
   0   0 -23-135.368 246.020  13
   0   0  23 127.284 275.511  17
   0   0  23 417.967 358.884   9
   0   0 -23-121.681 308.034  33
   0   0 -24 3031.35 523.466  33
   0   0  24 3764.79 599.334  17
   0   0  24 2225.04 576.547   9
   0   0 -25-651.500 309.664  33
   0   0  25-828.613 371.287   9
   0   0  26 3252.57 587.507   9
   0   0  26 2286.03 449.557  17
   0   0 -26 3115.68 487.374  33
   0   0  27 106.343 240.523   9
   0   0 -27-432.636 227.061  33
   0   0  27 198.016 216.997  17
   0   0  28 14341.4 830.273  14
   0   0 -28 15082.2 809.145  33
   0   0  29-95.9924 135.102  14
   0  -1   0 22.8452 68.1172   1
   0   1   0-9.61975 59.5936  20
   0  -1   1 797.747 104.612   1
   0   1   1 564.807 63.3671  20
   0  -1  -1 712.382 104.266   1
   0  -1   2 494617. 1929.71   1
   0   1   2 480710. 2127.20   1
   0  -1  -2 489228. 2196.23   1
   0  -1   3 52279.8 619.028   1
   0  -1  -3 51067.4 741.928   1
   0   1   3 51182.7 718.978   1
   0   1   4 2628.61 185.057   1
   0  -1  -4 2432.71 251.502   2
   0   1  -4 2557.73 209.714  20
   0  -1  -4 2447.34 189.010   1
   0  -1   4 2547.97 144.739   1
   0  -1  -5 5103.93 435.445  29
   0   1   5 5544.99 263.036   1
   0  -1  -5 5316.47 373.846   2
   0   1  -5 5048.05 297.074  20
   0  -1   5 5600.40 201.731   1
   0  -1  -5 5733.96 328.472   3
   0  -1  -5 5483.21 279.388   1
   0  -1  -6 499914. 4246.08  29
   0  -1  -6 485312. 3499.52   2
   0   1   6 499974. 3404.90  27
   0   1  -6 498746. 3274.18  25
   0   1   6 487657. 2432.03   1
   0  -1  -6 501556. 3027.27   7
   0  -1  -6 475973. 3058.93   3
   0  -1   6 478092. 3508.80  28
   0   1   6 494182. 3348.73  28
   0  -1   6 492347. 2905.18   4
   0  -1   6 499525. 1785.25   1
   0  -1   6 469937. 3472.18  27
   0  -1  -6 490104. 2668.29   1
   0  -1  -7 86367.5 1914.40  29
   0  -1  -7 86576.3 1394.45   3
   0   1   7 86055.3 1562.63  28
   0   1   7 86915.8 1559.20  27
   0  -1   7 86883.6 1612.32  28
   0   1   7 88757.3 1068.61   1
   0  -1  -7 87585.3 1191.22   1
   0  -1  -7 87552.3 1389.75   7
   0  -1   7 86823.9 1285.39   4
   0  -1   7 85979.3 715.349   1
   0  -1   7 87859.6 1623.42  27
   0   1  -7 87346.6 1466.45  25
   0   1  -7 84549.9 1287.31  20
   0  -1  -7 87599.2 1571.52   2
   0  -1   8 8452.08 440.904   4
   0   1  -8 7965.84 503.585  25
   0   1  -8 8986.08 577.937  29
   0  -1   8 8774.80 570.273  27
   0  -1  -8 8683.09 539.096   2
   0  -1  -8 7818.37 671.404  29
   0   1   8 9344.13 564.177  27
   0  -1  -8 8738.91 489.278   7
   0   1  -8 7896.93 430.063  20
   0   1   8 9003.91 356.955   1
   0  -1   8 8375.62 560.235  28
   0  -1  -8 9055.28 496.495   3
   0   1   8 9042.25 555.756  28
   0  -1  -9 54827.7 1379.37   2
   0  -1   9 51747.2 1134.71   4
   0  -1  -9 52552.4 1242.03   3
   0   1  -9 52296.5 1131.12  20
   0  -1   9 55313.4 1451.40  28
   0  -1   9 52696.4 1433.70  27
   0  -1  -9 51890.8 1728.56  29
   0   1   9 56760.2 897.614   1
   0   1   9 55261.8 1415.46  28
   0   1  -9 52850.5 1293.14  25
   0   1   9 56312.6 1418.95  27
   0  -1  -9 52507.0 1045.94  25
   0   1  -9 55870.1 1481.19  29
   0  -1  -9 52454.2 1237.97   7
   0   1 -10 13092.0 606.059  20
   0   1 -10 12679.9 785.562  29
   0  -1  10 11731.1 730.801  28
   0   1  10 11898.7 741.661  27
   0   1  10 13285.1 753.215  28
   0   1 -10 12103.0 681.666  25
   0  -1  10 12889.5 595.162   4
   0  -1 -10 13020.1 660.060   7
   0  -1 -10 12582.5 659.047   3
   0  -1 -10 11555.4 884.742  29
   0  -1 -10 12936.1 568.646  25
   0  -1 -10 13205.0 718.287   2
   0  -1  10 12721.3 773.434  27
   0  -1 -11 94418.1 1827.53   7
   0   1  11 95086.2 2076.93  27
   0   1 -11 92022.7 2199.76  29
   0  -1 -11 95172.2 2535.80  29
   0  -1  11 92445.1 2107.97  27
   0   1  11 91748.0 2030.96  28
   0  -1  11 91926.1 2104.95  28
   0  -1  11 96418.4 1653.45   4
   0   1 -11 89388.2 1899.62  25
   0  -1 -11 92547.0 1812.94   3
   0  -1  12 1830.28 383.529  27
   0   1 -12 2074.47 358.566   7
   0  -1 -12 1712.19 303.817   7
   0  -1  12 2540.69 307.667   4
   0   1  12 1740.66 374.822  27
   0   1 -12 2039.61 397.603  29
   0  -1 -12 1636.40 445.007  29
   0  -1  12 1907.42 388.438  28
   0  -1 -12 1492.94 299.125   3
   0   1 -12 1822.74 343.631  25
   0   1  12 1862.32 375.182  28
   0   1  13 29366.4 1296.15  28
   0  -1 -13 28507.2 1572.78  29
   0   1 -13 30081.5 1224.48   7
   0  -1 -13 29528.3 1157.80   3
   0   1 -13 32318.5 1058.95  22
   0  -1  13 30502.4 1366.88  27
   0   1  13 28322.3 1288.33  27
   0  -1  13 31679.4 1369.10  28
   0  -1 -13 30024.9 1152.02   7
   0   1 -13 29282.6 1204.19  25
   0  -1  13 30269.7 1510.49  26
   0   1 -13 32492.2 1455.41  29
   0  -1  14 258.995 314.191  26
   0   1 -14 234.290 182.863  22
   0  -1  14 540.974 340.530  27
   0   1  14 940.874 332.541  28
   0  -1 -14 558.048 251.516   3
   0  -1  14 772.994 338.514  28
   0  -1 -14 635.845 248.285   7
   0   1 -14 260.782 238.909   7
   0   1 -14 766.071 284.065   3
   0  -1 -14 125.324 276.602  29
   0   1 -14 283.576 266.287  25
   0   1  14 797.227 335.246  27
   0  -1  15 3120.85 539.089  27
   0  -1 -15 3108.53 457.390   3
   0   1  15 3144.00 533.276  28
   0  -1 -15 3989.04 711.538  29
   0  -1  15 3034.49 499.919  28
   0   1 -15 3711.61 500.216  25
   0   1 -15 3168.58 487.371   7
   0   1  15 3316.00 538.707  27
   0  -1 -15 3297.43 473.236   7
   0   1 -15 3918.75 510.779   3
   0   1  16 5727.86 692.404  27
   0  -1  16 4615.55 639.407  28
   0   1 -16 5046.64 599.473   7
   0   1  16 5352.39 687.371  28
   0   1 -16 5160.75 592.747  25
   0  -1 -16 5934.88 611.126   7
   0   1 -16 5957.77 627.450   3
   0  -1 -16 5309.28 826.407  29
   0  -1 -16 6011.83 615.915   3
   0  -1  16 5108.77 700.231  27
   0   1 -17 4189.29 568.412   7
   0   1  17 4308.70 623.315  28
   0   1 -17 4537.98 598.833  25
   0  -1 -17 3667.36 806.893  29
   0  -1 -17 3935.02 533.075   7
   0  -1 -17 3581.75 508.690   3
   0   1 -17 4238.51 562.847   3
   0  -1  17 4267.49 619.975  28
   0   1  17 3928.96 624.696  27
   0  -1  17 4249.31 660.801  27
   0   1  18 17701.8 1278.44  27
   0   1  18 16020.0 1214.55  28
   0  -1 -18 16444.3 1059.95   3
   0  -1 -18 16871.7 1080.84   7
   0   1 -18 16063.6 1093.05  25
   0   1 -18 16411.0 1090.02   3
   0   1 -18 15133.5 1065.33   7
   0  -1  18 16828.6 1257.85  27
   0  -1  18 15509.5 1219.38  28
   0  -1 -18 17689.7 1552.27  29
   0  -1 -19 14991.0 1470.79  30
   0   1 -19 16379.9 1103.25   3
   0   1  19 14222.3 1186.35  28
   0   1 -19 15847.1 1113.97   7
   0  -1 -19 15950.5 1563.47  29
   0   1  19 14792.8 1208.39  17
   0  -1  19 13405.2 1144.69  17
   0   1 -19 16755.2 1195.52  33
   0   1  19 13952.1 1185.52  27
   0  -1 -19 15220.4 1047.95   7
   0  -1  19 14770.2 1239.25  28
   0   1 -19 16924.8 1173.30  25
   0  -1 -19 14637.0 1041.53   3
   0  -1  19 15703.7 1257.08  27
   0  -1  20 5450.50 751.290  17
   0   1 -20 6624.04 789.885  33
   0  -1 -20 6718.71 654.010  13
   0   1 -20 7040.91 751.486   3
   0  -1  20 6085.41 854.842   9
   0  -1 -20 7162.47 754.139   3
   0   1  20 6728.81 875.251  17
   0  -1 -20 7695.22 1102.71  29
   0   1  20 7359.76 907.952  27
   0  -1 -20 6882.27 991.624  30
   0   1 -20 7846.47 811.480  25
   0   1  20 5946.81 836.723  28
   0  -1 -20 6835.20 727.780   7
   0  -1  20 5491.81 793.111  28
   0   1 -20 7189.51 661.965  13
   0  -1 -20 6791.77 780.790  33
   0   1 -20 5861.63 713.460   7
   0  -1  20 8067.49 933.265  27
   0  -1  21 34507.8 1894.07  27
   0  -1 -21 32786.2 2143.90  30
   0  -1 -21 32418.4 1546.30   7
   0   1  21 30879.3 1945.05   9
   0  -1 -21 32425.6 1572.99   3
   0   1  21 33204.7 1894.28  27
   0  -1 -21 36126.1 1716.25  33
   0   1  21 32305.4 2271.80  26
   0  -1 -21 34504.2 2297.66  29
   0   1 -21 32877.3 1640.69   7
   0   1 -21 34169.0 1722.84  33
   0  -1  21 31193.0 1898.38   9
   0   1  21 32139.9 1773.30  17
   0   1 -21 34684.9 1630.85   3
   0  -1  21 34114.4 1877.47  28
   0   1  21 32646.8 1837.50  28
   0  -1  21 36006.7 1863.36  17
   0  -1 -21 32419.7 1375.94  13
   0   1  22 6423.19 942.894   9
   0  -1  22 7443.21 954.883   9
   0   1 -22 6914.77 843.454  33
   0  -1 -22 8202.55 1126.77  30
   0  -1 -22 7935.26 689.142  13
   0  -1  22 8537.09 954.425  17
   0   1  22 8171.75 896.275  17
   0  -1 -22 8528.73 860.841  33
   0   1 -23 2580.63 539.521  33
   0  -1 -23 3737.20 841.615  30
   0   1  23 2932.80 625.127   9
   0  -1  23 2216.08 519.261  17
   0  -1 -23 2350.01 387.177  13
   0   1  23 2140.96 510.591  17
   0  -1  23 3288.57 615.633   9
   0  -1 -23 2149.04 486.085  33
   0  -1 -24-46.8387 219.961  33
   0  -1 -24 317.988 376.310  30
   0  -1  24-550.466 344.384  17
   0   1  24-154.163 313.615  17
   0   1 -24 702.308 353.574  33
   0  -1  24 165.459 267.533   9
   0   1  24-296.898 334.770   9
   0  -1 -24 519.932 234.136  13
   0  -1 -25 63.2175 206.478  33
   0   1  25-58.3340 325.223   9
   0  -1 -25 26.2553 343.010  30
   0   1  25-44.2008 255.634  17
   0  -1  25-263.344 303.126   9
   0   1 -25 30.7134 229.512  33
   0  -1  25 43.5705 261.860  17
   0   1 -26 1523.57 370.609  33
   0  -1  26 1673.39 377.815  14
   0   1  26 1322.48 310.540  17
   0  -1 -26 1551.07 343.484  33
   0  -1  26 1507.68 372.933  17
   0   1  26 1158.09 437.338   9
   0  -1 -27 3209.65 414.908  33
   0   1 -27 3444.44 464.613  33
   0   1  27 2307.85 489.372   9
   0  -1  27 2754.79 439.859  14
   0   1  27 2738.11 429.117  17
   0  -1  27 2483.58 415.571  17
   0   1 -28 206.188 185.144  33
   0   1  28 151.956 204.189   9
   0  -1  28 79.1839 157.969  14
   0  -1  29 2.82222 133.162  14
   0   1 -29-170.738 131.587  33
   0  -2   0 136454. 1561.90   1
   0   2   0 126339. 1323.01  20
   0  -2   0 130346. 1400.08   3
   0  -2   0 131578. 1353.17  21
   0   2   0 138547. 1487.27  23
   0  -2  -1 59004.4 1046.77   1
   0  -2  -1 52743.6 1147.35   2
   0  -2  -1 56123.4 932.781   3
   0  -2  -1 57507.5 1303.62   8
   0  -2   1 50976.6 1004.40   2
   0  -2   1 54986.6 1101.05  27
   0   2  -1 59018.9 948.915  22
   0  -2   1 56568.7 938.712   3
   0  -2   1 54967.4 901.541  21
   0   2   1 53103.7 800.025  20
   0   2  -1 53910.0 918.316  20
   0  -2   1 58797.4 1007.04   1
   0  -2  -2 11405.2 573.187   2
   0   2  -2 12750.5 479.024  23
   0  -2   2 11971.8 454.974   3
   0  -2   2 12298.2 547.025  27
   0  -2   2 11434.4 449.910   2
   0  -2   2 12529.6 466.298   1
   0  -2  -2 12639.8 662.962   8
   0  -2  -2 11825.7 449.154   3
   0  -2  -2 13014.5 508.514   1
   0   2  -2 13256.7 474.478  22
   0   2  -2 11576.9 456.838  20
   0  -2   2 11920.0 466.694   4
   0  -2   2 12738.8 454.626  21
   0   2   2 12336.4 353.558  20
   0   2   2 12170.4 480.560   1
   0  -2   3 53736.3 1173.45  27
   0   2  -3 57437.6 1021.52  25
   0   2  -3 56469.3 1050.93  20
   0   2  -3 60057.8 1049.87  22
   0  -2  -3 55731.6 1304.25   2
   0  -2   3 56088.3 1043.51   4
   0  -2   3 52160.7 861.156   2
   0   2  -3 54714.3 1007.58  23
   0  -2   3 57557.4 976.237   1
   0   2   3 58204.1 1099.38  28
   0  -2  -3 58387.2 1091.46   1
   0  -2  -3 59361.4 1276.41  26
   0  -2  -3 59613.0 1450.42   8
   0  -2   3 57129.6 976.119  21
   0  -2  -3 55392.4 997.096   3
   0   2   3 56976.2 671.683  20
   0  -2   3 54909.5 975.933   3
   0   2   3 56017.9 1044.08   1
   0  -2   4 10202.2 560.204  27
   0  -2  -4 11139.2 623.100  26
   0  -2   4 9341.20 324.713   2
   0  -2  -4 10001.8 657.504   8
   0  -2   4 10266.0 474.138   4
   0  -2  -4 10479.6 485.252   1
   0   2  -4 9861.59 470.001  25
   0   2  -4 10907.9 495.038  20
   0  -2  -4 9812.03 615.262  29
   0   2  -4 10348.7 464.366  22
   0  -2  -4 10224.1 470.064   7
   0   2  -4 10251.5 456.570  23
   0  -2   4 10271.5 443.684  21
   0  -2   4 10208.3 414.717   1
   0  -2   4 9185.23 537.298  28
   0   2   4 10387.4 501.636  28
   0   2   4 9708.84 491.201  27
   0  -2  -4 9705.36 581.198   2
   0  -2   4 9844.18 443.427   3
   0  -2  -4 10254.2 464.972   3
   0   2   4 10001.4 454.984   1
   0   2   4 9580.99 230.599  20
   0  -2   5 4336.50 180.590   2
   0  -2  -5 5399.18 512.033  29
   0  -2   5 5518.05 397.125   6
   0   2  -5 5486.76 366.642  20
   0   2  -5 5359.85 347.319  23
   0   2   5 4974.63 389.740  27
   0  -2  -5 5224.58 521.189   8
   0   2   5 6122.19 418.838  28
   0  -2  -5 6086.38 508.199  26
   0   2  -5 5522.02 388.643  25
   0  -2   5 5496.31 355.169   3
   0   2   5 5237.50 344.445   1
   0  -2  -5 5913.15 374.471   7
   0  -2   5 5173.48 450.738  28
   0  -2   5 5603.00 382.353   4
   0  -2  -5 5256.27 358.034   3
   0  -2  -5 6298.79 389.020   1
   0  -2  -5 5382.24 469.606   2
   0  -2   5 5468.60 448.602  27
   0  -2   5 5598.27 309.233   1
   0  -2   5 5441.60 340.792  21
   0   2  -5 5338.33 355.181  22
   0   2  -6 35972.9 1018.10  25
   0   2  -6 38662.1 1007.49  20
   0  -2   6 39465.1 784.263   1
   0   2   6 37488.1 1056.71  27
   0  -2   6 37243.3 980.313   4
   0  -2  -6 39246.8 994.175   1
   0  -2   6 37306.0 873.132  21
   0  -2   6 37144.7 1138.65  28
   0  -2   6 36813.4 1118.25  27
   0   2  -6 36793.2 899.510  23
   0  -2  -6 38873.6 963.012   7
   0  -2   6 38931.9 1087.65   6
   0   2  -6 36619.8 959.743  22
   0   2   6 39339.6 923.510   1
   0  -2  -6 35392.7 1318.86  29
   0  -2  -6 36757.3 941.810   3
   0   2   6 38418.0 1056.72  28
   0  -2  -6 39330.7 1252.48   2
   0  -2  -6 37191.3 1355.47   8
   0  -2  -7 37696.5 1001.64   7
   0  -2  -7 36174.7 984.476   3
   0  -2  -7 35650.6 1394.22   8
   0  -2  -7 35047.4 1388.93  29
   0   2  -7 36302.7 917.056  23
   0  -2  -7 36762.4 986.375   1
   0  -2   7 34378.1 1098.75   6
   0  -2   7 37373.2 746.916   1
   0   2   7 38354.1 934.736   1
   0  -2   7 34487.4 1148.42  27
   0   2  -7 34505.2 1052.22  25
   0   2   7 35746.2 1081.17  28
   0  -2   7 36394.7 1176.72  28
   0  -2   7 36573.6 1000.01   4
   0   2  -7 34228.5 960.917  22
   0   2   7 36631.5 1100.82  27
   0  -2   7 35284.5 877.306  21
   0  -2  -8 43913.3 1598.78  29
   0  -2   8 46679.6 1033.15  21
   0   2   8 43427.1 1277.37  27
   0   2   8 47053.3 1055.38   1
   0  -2  -8 45336.9 1141.08   7
   0  -2   8 45472.6 1363.48  27
   0  -2   8 44572.2 1375.35  28
   0   2  -8 46175.8 1062.72  23
   0  -2   8 44003.7 1155.51   4
   0  -2  -8 43117.9 1134.27   3
   0   2  -8 44739.3 1131.48  22
   0   2   8 44408.1 1259.67  28
   0  -2  -8 48054.0 1174.65   1
   0  -2   8 44097.8 1332.31   6
   0   2  -8 44170.4 1238.34  25
   0  -2  -9 3457.89 369.946   7
   0   2  -9 2720.90 356.316  25
   0   2  -9 3557.20 317.233  23
   0   2   9 3029.83 404.921  27
   0  -2   9 2948.69 327.988   4
   0  -2  -9 3360.97 338.878   1
   0  -2  -9 3401.54 364.778   3
   0  -2   9 3224.42 421.429   6
   0  -2   9 3622.26 316.825  21
   0  -2   9 2686.24 408.033  27
   0   2  -9 3322.63 349.710  22
   0  -2  -9 2756.99 512.280  29
   0  -2   9 3159.64 434.690  28
   0   2   9 3059.82 404.496  28
   0  -2 -10 49563.3 1330.24   3
   0  -2  10 48693.8 1574.36  28
   0  -2  10 50641.2 1592.98   6
   0   2  10 46624.8 1470.34  27
   0   2  10 48719.1 1493.69  28
   0   2 -10 51793.3 1179.78  23
   0   2 -10 48381.6 1282.37  22
   0  -2  10 48907.4 1581.78  27
   0  -2 -10 49377.1 1900.95  29
   0   2 -10 49403.1 1450.90  25
   0  -2 -10 51517.8 1351.75   7
   0  -2  10 49956.9 1319.88   4
   0  -2 -11 2073.23 345.191   3
   0   2 -11 1534.97 295.499  22
   0   2  11 1309.33 335.382  28
   0   2 -11 1029.01 305.393  25
   0  -2 -11 2187.09 337.363   7
   0  -2 -11 940.038 393.592  29
   0  -2  11 1698.57 384.883  27
   0  -2  11 1409.49 360.573  28
   0   2  11 1866.19 381.104  27
   0  -2  11 1492.25 268.035   4
   0  -2  11 1851.24 356.253   6
   0  -2 -12 97699.5 2945.61  29
   0  -2 -12 102314. 2091.25   7
   0   2 -12 104676. 2016.98  22
   0  -2  12 97859.5 2455.30  27
   0  -2 -12 101090. 2080.30   3
   0   2  12 101917. 2355.32  28
   0   2 -12 102147. 2286.50  25
   0   2  12 99057.4 2382.78  27
   0  -2  12 99785.8 2489.38  28
   0  -2  12 104390. 2058.33   4
   0  -2  13 4701.36 625.763  28
   0  -2 -13 4587.20 505.544   3
   0  -2  13 5603.67 513.013   4
   0  -2 -13 4901.40 517.442   7
   0   2  13 3944.09 541.447  28
   0   2 -13 4303.94 470.124  22
   0   2 -13 3560.12 475.476  25
   0  -2  13 5012.28 645.379  27
   0  -2  13 5095.54 605.410   6
   0  -2 -13 2267.87 560.139  29
   0   2  13 3870.82 542.573  27
   0   2  14 80851.6 2350.79  27
   0   2 -14 74980.1 1825.78  22
   0  -2  14 82310.0 2469.79   6
   0  -2 -14 81107.5 2963.59  29
   0   2 -14 77381.7 2196.83  25
   0  -2 -14 83081.8 2065.14   7
   0  -2  14 79922.3 2394.81  27
   0   2  14 80813.2 2326.01  28
   0  -2  14 81855.4 1933.92   4
   0  -2  14 81187.8 2414.50  28
   0  -2 -14 79851.4 2038.21   3
   0  -2 -15 6488.86 634.382   3
   0   2  15 5543.06 688.760  27
   0   2 -15 5968.11 651.404   7
   0   2 -15 5620.51 634.056  25
   0  -2 -15 6126.55 619.401   7
   0  -2 -15 6503.62 933.567  29
   0  -2  15 5574.77 545.219   4
   0   2  15 6501.21 731.115  28
   0   2 -15 5457.87 540.444  22
   0  -2  15 5843.84 723.146  27
   0  -2  15 5444.30 679.809   6
   0  -2  15 4802.02 666.808  28
   0   2 -16 33483.8 1330.97  22
   0   2  16 33719.6 1650.18  28
   0  -2 -16 33213.3 2092.58  29
   0   2 -16 33158.1 1524.04   7
   0  -2  16 30618.4 1626.30  28
   0   2  16 32106.9 1647.34  27
   0  -2 -16 34328.9 1423.09   7
   0  -2  16 31774.7 1641.67  27
   0  -2 -16 34598.4 1466.02   3
   0   2 -16 34455.5 1586.03  25
   0  -2  16 31926.3 1709.97   6
   0   2  17 10117.7 959.975  28
   0  -2  17 12175.3 1095.31   6
   0  -2 -17 12004.4 1326.05  29
   0   2 -17 11559.7 956.626   7
   0  -2  17 9980.40 989.658  28
   0  -2 -17 11058.5 877.683   3
   0  -2  17 10649.1 1004.25  27
   0   2  17 10690.5 1002.59  27
   0   2 -17 11928.3 981.321  25
   0   2 -17 10017.0 858.100   3
   0  -2 -17 10515.0 824.738   7
   0   2 -18 34137.9 1705.19  25
   0   2 -18 33166.6 1603.23   7
   0  -2 -18 35149.8 2286.33  29
   0   2  18 30922.2 1694.13  28
   0  -2  18 32244.9 1770.46  27
   0   2 -18 33202.9 1556.32   3
   0   2  18 32095.4 1733.19  27
   0  -2 -18 33513.5 1522.39   7
   0  -2 -18 34040.0 1541.91   3
   0  -2  18 33023.3 1801.23  28
   0  -2 -19 108057. 2735.44   7
   0   2  19 100006. 3126.82  27
   0   2 -19 99669.4 2911.71  25
   0   2 -19 95205.1 2705.91  32
   0  -2 -19 102712. 2702.18   3
   0   2 -19 96161.5 2751.43   7
   0  -2 -19 106860. 4041.63  29
   0   2 -19 101085. 2762.20   3
   0  -2 -19 99326.9 2393.68  13
   0  -2  19 102962. 3226.04  28
   0  -2  19 103696. 3202.88  27
   0  -2 -19 102342. 3799.92  30
   0   2  19 98625.0 3038.48  28
   0  -2  19 91505.7 2980.59  17
   0   2  19 98496.4 3047.30  17
   0   2 -19 101531. 2913.02  33
   0   2  20 12119.8 1122.88  17
   0  -2 -20 12590.6 879.867  13
   0  -2  20 13235.5 1198.13  28
   0  -2  20 12754.8 1194.47  27
   0   2 -20 12671.5 1018.31   3
   0   2  20 13525.5 1189.66  27
   0   2 -20 13220.0 1058.51   7
   0  -2  20 11545.7 1073.50  17
   0   2  20 11480.4 1107.76  28
   0   2 -20 13377.9 1118.60  25
   0  -2 -20 13352.1 1491.67  30
   0  -2 -20 12078.4 953.731   3
   0  -2 -20 12823.2 968.320   7
   0   2 -20 14582.3 1154.87  33
   0  -2 -20 14795.7 1548.08  29
   0  -2  21 36168.8 1881.23  17
   0  -2 -21 32066.7 1375.00  13
   0  -2 -21 33091.9 2240.23  30
   0   2 -21 32916.1 1685.54  33
   0   2  21 34887.8 1830.17  17
   0  -2  22 4224.61 673.279  17
   0  -2 -22 4631.25 947.858  30
   0  -2 -22 3740.28 505.937  13
   0   2 -22 5717.69 735.874  33
   0   2  22 4646.14 728.680  17
   0   2  23 36938.1 2074.41   9
   0  -2  23 41081.6 1930.91  17
   0  -2 -23 41423.6 1484.94  13
   0   2 -23 42941.3 1876.83  33
   0  -2  23 46664.7 1948.91  14
   0   2  23 40752.1 1904.20  17
   0  -2 -23 41176.4 2446.73  30
   0   2  24-1046.48 421.963   9
   0  -2  24 654.174 370.490  14
   0   2 -24-373.983 334.110  33
   0  -2 -24 1252.74 552.433  30
   0   2  24 433.553 286.717  17
   0  -2  24-103.702 280.008  17
   0  -2 -24-466.768 198.293  13
   0  -2  25 124.662 246.702  17
   0  -2  25-137.896 235.111  14
   0   2  25 559.290 294.600  17
   0   2  25 546.135 391.591   9
   0   2 -25 281.693 277.557  33
   0  -2 -25 566.056 434.815  30
   0   2  26 321.860 236.082  17
   0   2 -26 150.155 246.118  33
   0   2  26 80.0016 269.697   9
   0  -2  26 118.636 205.969  14
   0  -2  26-96.0417 325.783  17
   0   2  27-31.5196 207.577  17
   0  -2  27 431.452 218.476  14
   0   2  27 55.3328 253.789   9
   0  -2  27 643.053 230.781  17
   0   2 -27 534.834 234.980  33
   0   2 -28 2109.79 320.365  33
   0   2  28 1912.56 386.070   9
   0  -2  28 1405.17 276.773  14
   0  -3   0 35.1773 102.634   4
   0  -3   0-20.4408 242.897   8
   0   3   0 17.2604 109.220  22
   0  -3   0 327.758 139.103   3
   0  -3   0 53.7614 153.783   2
   0   3   0 90.3232 125.929  23
   0  -3   0 178.478 133.605   6
   0  -3   0-4.00760 160.520  26
   0   3   0 15.0862 98.3427  20
   0  -3   0 40.1590 120.165  21
   0  -3  -1 17742.1 850.751   2
   0  -3   1 18607.1 682.759   3
   0   3  -1 18778.3 669.469  22
   0  -3  -1 19021.6 783.959  26
   0  -3  -1 17947.6 668.613   3
   0   3  -1 18218.0 711.408  23
   0  -3  -1 16822.2 782.079   6
   0   3   1 18048.6 598.841  20
   0  -3   1 17346.5 670.738   4
   0   3  -1 19275.4 685.180  20
   0  -3  -1 18177.0 944.002   8
   0  -3   1 19357.6 932.052   8
   0  -3  -1 17445.7 639.769  21
   0  -3   1 17974.1 778.300   6
   0  -3   1 17981.6 663.003  21
   0  -3   1 17210.1 757.739   2
   0   3   1 18610.1 653.616  22
   0  -3  -1 17461.9 618.186   4
   0   3   1 18331.3 687.000  23
   0  -3   2 215730. 2379.23   4
   0  -3   2 218201. 2973.80   8
   0  -3   2 212764. 2318.01   3
   0  -3   2 206247. 2481.35   2
   0  -3  -2 219740. 3264.55   8
   0   3  -2 224537. 2190.92  25
   0   3  -2 211144. 2439.82  23
   0  -3  -2 202569. 2003.09   4
   0  -3  -2 220920. 2767.74  26
   0   3  -2 222934. 2415.47  20
   0  -3   2 211553. 2257.81  21
   0   3   2 215412. 1946.65  20
   0  -3   2 209530. 2630.48   6
   0   3   2 219328. 2294.64  23
   0  -3  -2 211740. 2294.63   3
   0   3  -2 221525. 2341.95  22
   0   3   2 226697. 2199.35  22
   0  -3  -2 206432. 2086.97  21
   0  -3  -3 980.360 199.107   3
   0   3   3 782.049 170.361  22
   0  -3  -3 782.303 232.859  29
   0  -3   3 571.726 243.739   8
   0  -3   3 770.658 179.553   1
   0  -3   3 583.791 177.204   6
   0  -3  -3 972.290 283.629  26
   0  -3   3 901.973 191.175   3
   0  -3   3 635.679 168.893   2
   0   3  -3 778.097 210.489  23
   0   3  -3 759.800 180.889  25
   0   3   3 604.477 204.966  28
   0  -3   3 591.977 170.769   4
   0  -3  -3 384.818 251.712   8
   0   3  -3 619.202 182.952  22
   0  -3   3 773.444 190.611  21
   0  -3  -3 720.399 156.079  21
   0  -3   3 629.380 246.065  27
   0  -3   4 2153.54 292.304   4
   0  -3   4 2272.13 300.897   6
   0  -3  -4 2138.01 372.483  26
   0  -3   4 2111.09 317.194   8
   0   3   4 1929.05 301.163  27
   0   3   4 2512.13 239.997  22
   0  -3  -4 2327.04 234.674  21
   0  -3   4 2386.47 357.910  27
   0  -3  -4 2036.03 412.799   8
   0  -3   4 2254.11 284.217   3
   0   3  -4 2332.89 294.003  23
   0   3  -4 2260.41 280.783  22
   0   3  -4 2361.92 284.670  25
   0   3   4 2395.19 324.428  28
   0  -3   4 2355.91 280.908  21
   0  -3  -4 2165.39 365.499  29
   0  -3   4 2591.05 283.242   1
   0  -3  -4 2314.03 291.938   3
   0  -3   5 61191.5 1344.87   3
   0  -3   5 62675.2 1317.02  21
   0  -3   5 61367.3 1418.73   4
   0  -3  -5 60171.8 1079.16  21
   0  -3   5 65044.5 1340.54   1
   0  -3  -5 60636.9 1927.95   8
   0  -3  -5 65615.5 1744.61  26
   0   3  -5 63453.8 1379.66  22
   0   3  -5 58421.6 1345.51  23
   0   3   5 62581.1 1496.41  28
   0  -3   5 61676.9 1630.28  27
   0   3   5 61549.1 1483.70  27
   0  -3  -5 61725.4 1349.24   3
   0  -3  -5 61816.4 1770.04  29
   0   3  -5 63002.7 1395.57  25
   0  -3   6 3640.37 383.321   4
   0   3  -6 3168.09 371.896  25
   0   3   6 3239.05 394.529  28
   0  -3   6 3733.78 366.295   3
   0  -3   6 3464.10 445.359  27
   0  -3   6 3821.08 350.893  21
   0  -3  -6 3041.72 506.397   8
   0  -3  -6 3124.16 347.585   3
   0   3  -6 3427.48 362.418  22
   0  -3  -6 3243.97 489.976  29
   0   3   6 2950.05 383.307  27
   0   3  -6 3983.58 384.722  23
   0  -3   7 63801.5 1543.58   4
   0   3  -7 62066.4 1535.48  25
   0  -3   7 63816.7 1746.67  27
   0   3   7 63420.7 1622.69  28
   0  -3  -7 61104.4 1437.82   3
   0  -3  -7 65614.2 2036.56  29
   0   3  -7 62426.8 1456.87  22
   0  -3   7 64728.4 1397.17  21
   0  -3  -7 66275.6 2098.17   8
   0   3   7 60729.7 1608.98  27
   0   3  -7 62014.3 1451.53  23
   0  -3  -8 421.652 197.079   3
   0  -3   8 416.138 198.407   4
   0  -3   8 476.750 193.087  21
   0  -3   8 462.602 265.704  28
   0   3  -8 460.770 233.336  25
   0  -3  -8 492.018 336.752   8
   0   3  -8 640.449 198.834  23
   0  -3  -8 547.957 212.344   7
   0  -3  -8 510.886 331.774  29
   0   3   8 321.644 212.865  27
   0   3  -8 119.657 152.474  22
   0   3   8 562.407 260.308  28
   0  -3   8 23.7226 204.068  27
   0  -3  -9 5849.65 505.539   7
   0  -3   9 5248.21 592.342  27
   0  -3   9 5771.72 519.913   4
   0  -3   9 5020.93 604.893  28
   0   3   9 5259.43 548.355  28
   0  -3  -9 5716.56 509.716   3
   0   3  -9 4513.15 427.358  23
   0   3  -9 4902.02 507.600  25
   0   3   9 4902.69 547.043  27
   0  -3   9 5916.70 465.295  21
   0  -3  -9 4512.28 663.014  29
   0   3  -9 4783.74 460.720  22
   0   3  10 71255.6 1940.91  28
   0  -3  10 74171.3 1840.56   4
   0   3 -10 72558.9 1732.99  22
   0  -3 -10 68564.5 2422.22  29
   0   3 -10 72316.6 1650.67  23
   0  -3  10 70726.8 2058.45  27
   0  -3 -10 73766.8 1771.05   7
   0  -3 -10 68888.9 1736.44   3
   0   3  10 67390.1 1954.56  27
   0   3 -10 71205.1 1886.48  25
   0  -3  10 76231.2 1629.56  21
   0  -3  10 71586.4 2125.91  28
   0  -3  11 31528.3 1446.93  27
   0   3 -11 29845.1 1169.84  22
   0  -3 -11 32006.2 1225.93   7
   0  -3 -11 29353.6 1189.40   3
   0  -3 -11 30066.7 1699.28  29
   0   3  11 29719.9 1356.10  28
   0   3 -11 31234.7 1318.44  25
   0  -3  11 29567.7 1411.77  28
   0   3  11 27555.3 1284.34  27
   0  -3  11 31716.8 1242.61   4
   0   3  12 1685.62 404.979  27
   0  -3 -12 1852.40 518.211  29
   0  -3  12 2102.59 380.811   4
   0  -3  12 1638.02 421.263  28
   0   3 -12 2392.65 360.002  22
   0  -3 -12 1168.94 308.097   3
   0   3 -12 1837.66 390.480  25
   0   3  12 1944.68 427.063  28
   0  -3  12 1561.51 415.229  27
   0  -3 -12 1499.13 331.154   7
   0  -3  13 5255.46 687.688  28
   0  -3 -13 4591.94 534.106   3
   0  -3 -13 5013.80 538.972   7
   0   3  13 3905.67 559.224  28
   0  -3  13 5211.20 662.827  27
   0   3 -13 5241.13 603.635  25
   0  -3 -13 4546.03 793.886  29
   0   3 -13 4516.66 505.628  22
   0  -3  13 4970.70 550.562   4
   0   3  13 4682.40 631.988  27
   0   3 -14 1169.45 362.874  25
   0   3  14 422.275 281.274  28
   0  -3  14 618.264 317.973  28
   0  -3  14 367.510 195.666   4
   0  -3 -14 773.805 279.737   7
   0  -3  14 1000.73 383.118  27
   0   3  14 1039.26 382.779  27
   0  -3 -14 711.723 268.679   3
   0  -3 -14 1136.47 493.085  29
   0   3 -14 452.740 209.559  22
   0  -3  15 906.568 374.170  27
   0  -3  15 615.947 358.157  28
   0   3 -15 542.324 228.499  22
   0   3  15 676.155 345.327  27
   0  -3 -15 867.971 301.099   3
   0  -3 -15 759.130 503.231  29
   0  -3 -15 660.293 251.583   7
   0   3 -15 841.036 339.841  25
   0  -3  15 486.622 190.810   4
   0   3  15 565.898 331.166  28
   0   3  16 3672.86 617.277  27
   0  -3  16 3134.81 466.730   4
   0  -3  16 3135.40 612.213  28
   0  -3  16 3930.49 637.689  27
   0  -3 -16 3669.64 536.133   3
   0  -3 -16 2992.92 743.886  29
   0   3 -16 3769.08 588.763  25
   0   3 -16 3584.83 495.373  22
   0   3  16 3197.54 565.222  28
   0  -3 -16 3866.39 543.126   7
   0  -3  17 213.911 294.431  28
   0   3 -17 822.829 377.075  33
   0   3  17 798.534 410.304  17
   0  -3  17 609.935 289.298  14
   0  -3  17 6.60301 326.140  17
   0   3  17-43.4302 266.818  27
   0  -3 -17 578.646 237.514   7
   0  -3 -17 336.411 400.144  29
   0  -3 -17 430.323 448.068  30
   0  -3  17 17.2809 178.325   4
   0   3  17 65.6468 314.681  28
   0   3 -17 28.1105 124.783  22
   0  -3 -17 127.963 199.947   3
   0  -3  17 108.704 302.327  27
   0   3 -17 158.948 263.547   7
   0   3 -17-503.962 328.372  32
   0   3 -17-70.5989 202.814  25
   0   3 -18 7888.56 832.550   7
   0  -3  18 7526.35 904.591  27
   0  -3  18 8317.43 951.990  17
   0   3 -18 7803.01 820.390  32
   0  -3 -18 7868.99 1160.33  30
   0   3 -18 8492.07 740.655  22
   0  -3  18 8601.61 909.186  14
   0   3  18 7206.93 849.891  28
   0   3  18 8499.49 944.806  27
   0   3 -18 9226.80 939.246  25
   0  -3 -18 8452.68 788.534   7
   0  -3  18 8933.40 986.570  28
   0  -3 -18 8282.23 1196.64  29
   0  -3 -18 9080.46 818.052   3
   0   3  18 6290.43 825.267  17
   0   3 -18 7925.88 824.982  33
   0  -3 -18 7575.63 683.102  13
   0   3  19 13479.1 1198.29  27
   0  -3 -19 12762.2 883.573  13
   0   3 -19 12444.9 1028.43   7
   0   3 -19 12847.6 1042.36  32
   0   3  19 13892.0 1180.92  17
   0  -3  19 13677.2 1207.99  27
   0   3  19 11904.4 1114.68  28
   0   3 -19 12786.2 1008.17   3
   0  -3  19 14315.1 1262.31  28
   0  -3 -19 13251.6 1467.03  30
   0  -3 -19 12600.0 1499.62  29
   0   3 -19 13802.4 1143.43  25
   0   3 -19 14577.9 1102.23  33
   0  -3 -19 13165.8 997.599   3
   0  -3  19 12524.1 1151.38  17
   0  -3  19 12814.2 1084.16  14
   0  -3  20 4311.43 668.811  14
   0  -3 -20 3823.13 919.363  30
   0   3 -20 3538.66 629.772  32
   0   3 -20 3999.33 629.959  33
   0  -3  20 4687.88 711.558  17
   0  -3 -20 3823.87 509.064  13
   0   3  20 4201.49 710.842  17
   0   3  21 29549.8 1675.00  17
   0  -3 -21 30123.6 2129.85  30
   0   3 -21 31225.4 1585.98  33
   0  -3  21 31867.5 1669.29  14
   0   3 -21 32338.2 1618.61  32
   0  -3  21 29514.3 1697.81  17
   0  -3 -21 29651.8 1297.66  13
   0   3 -22 4786.43 622.713  32
   0  -3  22 4382.68 648.796  14
   0   3 -22 4681.44 649.693  33
   0  -3 -22 5191.78 949.899  30
   0   3  22 4364.55 655.560  17
   0  -3  22 5317.39 755.135  17
   0  -3  23 2997.61 553.035  14
   0   3 -23 2187.54 433.673  32
   0  -3  23 3774.40 601.497  17
   0   3 -23 2813.84 498.938  33
   0   3  23 1722.11 436.946  17
   0  -3 -23 2787.23 714.739  30
   0   3 -24 2398.11 402.517  32
   0  -3  24 1901.68 451.817  14
   0   3  24 1577.43 364.488  17
   0   3  24 2504.28 616.163   9
   0   3 -24 3049.39 461.887  33
   0  -3 -24 2693.77 725.048  30
   0  -3  24 1866.63 421.373  17
   0   3  25 1369.20 355.050  17
   0  -3 -25 1683.48 567.002  30
   0  -3  25 1500.23 374.263  17
   0   3 -25 1658.67 356.974  33
   0  -3  25 1656.61 373.608  14
   0   3  25 1615.70 490.963   9
   0  -3  26 3272.82 438.194  17
   0   3 -26 3966.42 470.891  33
   0   3  26 3942.59 462.805  17
   0   3  26 3426.73 569.325   9
   0  -3  26 3367.06 444.753  14
   0  -3  27 168.976 157.931  13
   0   3 -27-295.953 174.122  33
   0   3  27 3.78545 208.777   9
   0  -3  27-60.9325 164.044  14
   0  -4   0 130708. 2886.09   8
   0  -4   0 122054. 1986.44  21
   0  -4   0 125740. 2034.01   4
   0   4   0 128113. 2042.18  22
   0  -4   0 124402. 2088.95   3
   0  -4  -1 1701.13 433.063   8
   0   4   1 2456.17 307.642  22
   0  -4   1 2577.80 339.013   3
   0  -4   1 2665.37 333.245  21
   0   4  -1 2268.22 300.705  22
   0  -4   1 2358.71 466.265   8
   0  -4  -1 2187.25 322.236   3
   0  -4  -1 2574.84 296.812   4
   0  -4  -1 2303.89 320.381  21
   0  -4   1 2331.68 322.870   4
   0  -4   2-72.6045 194.868   3
   0   4   2-55.4261 183.107  28
   0  -4  -2-174.817 314.477   8
   0   4  -2 171.426 189.653  23
   0  -4  -2-135.308 204.978   3
   0  -4   2 23.7151 233.927   8
   0  -4   2 143.339 160.688  21
   0   4   2 44.4347 112.238  22
   0  -4   2-57.8848 141.394   4
   0   4  -2 24.7885 152.851  22
   0  -4  -2-24.5035 128.612  21
   0  -4  -3 63708.7 2159.33   8
   0  -4  -3 64382.4 1540.71   3
   0   4  -3 63683.8 1602.31  23
   0   4   3 63678.7 1696.13  28
   0  -4   3 63913.3 1590.41   4
   0  -4  -3 62677.8 1390.42  21
   0   4  -3 63833.3 1519.86  22
   0  -4   3 65417.0 1570.76   3
   0   4   3 64993.8 1413.41  22
   0  -4   3 64567.5 1515.33  21
   0  -4   3 69805.1 2005.62   8
   0   4   4 5318.40 533.289  28
   0  -4  -4 4594.39 661.429   8
   0  -4   4 6420.29 534.562   4
   0   4  -4 6315.91 506.936  22
   0  -4  -4 5600.80 494.773   3
   0   4   4 5000.44 532.298  27
   0   4  -4 6444.94 544.911  23
   0  -4   4 6208.04 513.616   3
   0  -4   4 6770.12 521.179  21
   0  -4  -4 5371.69 424.121  21
   0  -4  -4 5841.02 595.304  26
   0   4  -5 13194.5 739.756  22
   0  -4  -5 12559.3 721.998   3
   0   4   5 11618.8 780.545  27
   0  -4   5 11358.5 721.707   4
   0  -4  -5 12508.5 1039.00   8
   0   4   5 13179.2 818.936  28
   0  -4   5 11964.4 701.478   3
   0   4  -5 13236.0 721.694  25
   0  -4   5 11954.0 691.149  21
   0   4  -5 11724.8 731.304  23
   0   4  -6 41713.4 1364.32  23
   0  -4  -6 42295.6 1909.78   8
   0  -4   6 44508.3 1640.02  27
   0   4   6 40185.2 1457.28  27
   0  -4   6 41864.3 1293.55  21
   0   4  -6 44986.6 1372.10  25
   0   4  -6 42412.4 1349.63  22
   0  -4   6 43248.4 1346.42   3
   0  -4   6 44365.6 1451.22   4
   0   4   6 43307.8 1503.99  28
   0  -4  -6 42953.8 1349.07   3
   0  -4  -7 177.005 371.285   8
   0  -4  -7 126.899 203.367   3
   0   4   7 344.792 259.544  28
   0  -4   7 39.1105 171.395   3
   0  -4   7 221.378 175.690  21
   0   4   7 52.8081 223.283  27
   0   4  -7 510.058 222.741  22
   0  -4   7 75.8035 176.124   4
   0  -4   7 94.0202 229.135  27
   0   4  -7 140.856 195.134  25
   0   4  -7 268.761 240.301  23
   0  -4  -8 1200.53 520.708   8
   0  -4  -8 846.874 423.802  29
   0   4  -8 2053.94 364.307  22
   0  -4   8 1495.08 382.431  27
   0  -4   8 1375.95 278.531  21
   0   4  -8 1729.72 343.666  25
   0   4   8 1058.32 327.435  28
   0  -4   8 888.395 277.928   4
   0   4   8 1159.18 338.656  27
   0  -4  -8 1193.50 317.727   3
   0  -4   9 82889.0 1927.29  21
   0   4   9 75532.8 2182.00  27
   0  -4   9 83073.1 2412.89  27
   0   4  -9 82786.6 2127.98  25
   0   4   9 77721.3 2193.19  28
   0  -4  -9 77635.9 1961.37   3
   0  -4   9 77573.0 2068.19   4
   0   4  -9 75622.6 1936.00  22
   0  -4  -9 77890.1 2675.76  29
   0   4  10 973.304 330.860  27
   0  -4  10 1202.48 299.764   4
   0   4 -10 1729.16 365.561  25
   0  -4 -10 1109.43 324.302   3
   0  -4 -10 1140.02 394.899  29
   0  -4  10 852.096 340.902  27
   0   4 -10 1304.73 310.573  22
   0  -4  10 1113.48 290.595  21
   0   4  10 1463.49 383.168  28
   0  -4  11 36067.5 1513.70   4
   0  -4 -11 34692.5 1951.33  29
   0   4 -11 35617.7 1533.98  25
   0   4  11 34568.2 1572.95  28
   0   4  11 34502.6 1604.03  27
   0  -4  11 37119.3 1726.84  27
   0   4 -11 34163.7 1385.12  22
   0  -4 -11 34418.6 1400.65   3
   0  -4 -12 7486.58 692.442   3
   0  -4  12 8493.71 873.373  27
   0   4 -12 8480.13 727.185  22
   0  -4  12 8095.03 743.228   4
   0  -4 -12 7495.48 1003.59  29
   0   4  12 8288.80 815.805  28
   0   4 -12 8069.20 758.525  25
   0   4  12 7001.89 772.896  27
   0   4 -13 11382.5 844.891  22
   0   4 -13 11767.0 949.043  25
   0   4  13 10884.4 964.104  28
   0  -4 -13 11525.9 871.062   3
   0  -4 -13 10654.8 1189.03  29
   0   4  13 11851.6 1025.78  27
   0  -4  13 12040.7 925.374   4
   0  -4  13 11930.7 1072.43  27
   0  -4 -14 3064.62 501.119   3
   0  -4  14 3588.11 540.977   4
   0  -4 -14 3196.53 696.525  29
   0   4  14 3922.94 636.866  27
   0   4 -14 3611.46 586.869  25
   0   4 -14 3036.22 466.613  22
   0   4  14 3149.12 573.037  28
   0  -4  14 3853.88 637.789  27
   0  -4  15 15148.6 1155.44  14
   0  -4 -15 12869.6 1403.83  29
   0  -4 -15 14982.9 1353.80  31
   0   4 -15 15466.3 1021.16  22
   0  -4  15 15591.3 1082.91   4
   0   4  15 16008.3 1247.39  17
   0  -4  15 15143.5 1232.00  17
   0  -4 -15 14336.0 1449.09  30
   0   4 -15 15362.9 1148.72  25
   0  -4 -15 16678.9 1086.32   3
   0   4  15 14997.7 1181.86  28
   0  -4  15 16272.7 1270.68  27
   0   4 -15 15310.4 1143.09  32
   0   4  15 15589.6 1235.75  27
   0   4 -16 27401.4 1583.26  25
   0  -4 -16 26458.6 1262.09  13
   0   4 -16 26665.8 1356.92  22
   0  -4 -16 24572.1 1897.76  30
   0  -4 -16 25895.7 1372.45   3
   0  -4 -16 25112.7 1980.18  29
   0   4  16 26199.8 1591.24  28
   0   4  16 26430.5 1627.72  17
   0  -4  16 29523.9 1730.02  27
   0  -4  16 29146.7 1499.45   4
   0  -4  16 24754.2 1589.61  17
   0  -4  16 22285.5 1403.87  14
   0   4  16 26656.7 1627.24  27
   0   4 -16 26165.9 1511.28  32
   0   4 -17-497.402 297.340  25
   0   4  17-271.098 284.743  27
   0  -4 -17 243.645 204.037   3
   0   4 -17 888.131 366.784  32
   0   4 -17-378.729 212.796  22
   0  -4 -17-230.425 246.526  13
   0  -4  17 231.943 315.461  27
   0  -4  17 323.201 250.441   4
   0  -4 -17 274.408 404.004  29
   0  -4  17 200.020 290.631  17
   0   4  17 400.492 363.781  17
   0   4  17 413.512 277.264  28
   0  -4  17-70.3185 268.666  14
   0  -4 -17 313.224 397.557  30
   0  -4  18 10783.9 987.342  14
   0  -4  18 11441.7 1116.71  17
   0  -4 -18 10589.5 820.745  13
   0   4  18 11819.8 1124.66  17
   0   4 -18 11004.2 1006.08  32
   0  -4 -18 9923.64 1298.28  30
   0  -4  19 694.996 446.142  17
   0   4 -19-437.696 267.913  33
   0  -4 -19 712.523 430.514  30
   0   4  19-503.911 336.327  17
   0   4 -19 509.392 345.214  32
   0  -4  19-137.174 249.788  14
   0   4 -20 2680.42 488.037  33
   0  -4 -20 2791.97 744.054  30
   0   4  20 2845.16 603.318  17
   0   4 -20 2428.94 480.930  32
   0  -4  20 3536.35 650.761  17
   0  -4  20 2633.63 528.804  14
   0  -4 -21 431.833 461.615  30
   0  -4  21 1143.13 374.998  17
   0  -4  21 1253.84 374.251  14
   0   4  21 1227.80 439.209  17
   0   4 -21 1297.13 391.818  33
   0   4 -21 753.620 325.767  32
   0  -4 -22 728.293 510.068  30
   0   4  22-6.59978 261.906  17
   0   4 -22 221.472 221.091  32
   0  -4  22-116.572 229.796  14
   0  -4  22 266.124 310.852  17
   0   4 -22-29.4509 245.440  33
   0   4 -23 348.651 235.561  33
   0   4 -23 146.098 251.761  32
   0  -4 -23-597.176 455.121  30
   0   4  23 184.688 269.943  17
   0  -4  23-16.3439 219.773  14
   0  -4  23 49.3107 275.748  17
   0  -4  24 3898.63 512.208  14
   0   4 -24 4688.36 494.334  33
   0  -4  24 3893.93 475.542  13
   0   4 -24 4154.15 483.908  32
   0   4  24 3558.57 493.161  17
   0  -4  24 4610.06 558.987  17
   0  -4  25 1826.55 337.375  14
   0   4 -25 1891.44 303.949  33
   0   4 -25 2168.42 330.349  32
   0   4  25 1220.39 293.132  17
   0  -4  25 1467.57 329.384  17
   0  -4  25 1584.70 302.098  13
   0   4  25 1488.77 424.018   9
   0  -4  26 1418.00 264.966  14
   0  -4  26 913.152 222.084  13
   0   4  26 851.211 280.271   9
   0   5   0 118.756 147.319  22
   0  -5   0-39.7290 157.361  21
   0  -5   0 69.7062 265.049   8
   0  -5   0-17.6817 185.040   3
   0  -5   1 4421.19 475.997  21
   0  -5   1 3097.67 570.118   8
   0  -5   1 4226.60 485.187   4
   0   5  -1 5321.65 516.605  22
   0   5   1 4720.65 560.912  28
   0   5   1 4348.01 451.450  22
   0  -5  -1 5005.55 723.719   8
   0  -5   1 4267.29 475.145   3
   0  -5  -1 4651.11 459.459  21
   0  -5  -1 4993.37 525.185   3
   0   5   2 28619.1 1322.37  28
   0  -5   2 28933.9 1547.70   8
   0   5  -2 31158.5 1212.71  22
   0  -5   2 30367.6 1203.62  21
   0  -5  -2 30339.6 1707.92   8
   0  -5  -2 28489.2 1101.57  21
   0  -5   2 30272.6 1219.97   3
   0  -5   2 28764.6 1206.97   4
   0  -5  -2 29230.1 1218.82   3
   0  -5   3 4635.21 509.692  21
   0  -5   3 3906.09 473.130   3
   0  -5  -3 4175.93 479.607   3
   0  -5  -3 4798.24 755.157   8
   0  -5  -3 3779.55 427.881  21
   0  -5   3 4751.69 525.021   4
   0   5  -3 4898.35 515.124  22
   0   5   3 4433.44 554.464  28
   0   5   3 5081.02 590.214  27
   0   5   4 4190.47 552.863  28
   0  -5  -4 4581.22 730.354   8
   0  -5  -4 4533.13 501.732   3
   0  -5   4 3816.44 499.103   4
   0  -5   4 4775.57 523.958  21
   0  -5   4 4289.88 496.905   3
   0   5  -4 4606.23 498.863  22
   0   5   4 4846.33 587.931  27
   0  -5   5 41082.2 1467.92  21
   0  -5  -5 43427.9 2169.15   8
   0   5  -5 42694.0 1498.72  22
   0  -5  -5 41885.9 1512.81   3
   0  -5   5 40681.0 1466.92   3
   0  -5   5 41849.0 1570.62   4
   0   5   5 43868.2 1680.48  28
   0   5   5 43331.2 1690.95  27
   0  -5   6 527.263 219.386   3
   0   5  -6 1080.09 287.261  22
   0   5   6 484.860 271.925  27
   0  -5  -6 1300.51 513.396   8
   0  -5  -6 732.632 273.844   3
   0   5   6 1095.18 329.194  28
   0  -5   6 1197.89 321.332  21
   0  -5   6 989.032 301.000   4
   0   5   7 5990.09 666.321  28
   0   5   7 7220.46 767.782  27
   0  -5   7 5736.79 597.401   3
   0  -5   7 6381.50 671.107   4
   0  -5   7 6935.88 649.480  21
   0  -5  -7 7356.07 986.447   8
   0  -5  -7 5654.99 598.516   3
   0   5  -7 6277.14 623.472  22
   0   5   8 406.201 256.203  27
   0   5   8-44.2107 230.983  28
   0   5  -8 139.237 201.175  22
   0  -5   8 9.28981 237.024   4
   0  -5  -8 36.6955 202.071   3
   0  -5   8 75.6332 214.868  21
   0  -5  -9 13674.5 930.961   3
   0   5   9 13074.9 1053.61  27
   0  -5   9 13887.4 997.884   4
   0   5  -9 13950.1 941.581  22
   0  -5   9 16067.5 980.209  21
   0   5   9 13338.8 1045.06  28
   0   5 -10 46825.9 1746.48  22
   0  -5  10 45787.8 1831.81   4
   0   5  10 45907.9 1936.16  28
   0   5  10 44086.6 1919.43  27
   0  -5 -10 46921.1 1744.26   3
   0   5 -11 51131.1 1946.36  25
   0  -5  11 48023.9 1912.93   4
   0   5  11 47076.5 2006.37  28
   0  -5 -11 50112.4 1835.98   3
   0   5  11 47548.7 2040.90  27
   0   5 -11 47594.5 1786.90  22
   0  -5  12 70734.6 2617.99  17
   0  -5 -12 66793.1 2034.74  13
   0  -5  12 64447.3 2246.87  13
   0   5 -12 68689.3 2375.44  32
   0  -5  12 68393.7 2382.72  19
   0  -5 -12 70035.8 3144.21  11
   0  -5  12 73921.8 2407.49   4
   0  -5 -12 69617.0 2194.21   3
   0   5 -12 74351.8 2404.72  25
   0  -5  12 66161.6 2281.73  14
   0   5  12 63095.1 2426.57  27
   0   5  12 70979.2 2512.80  28
   0   5 -12 70427.8 2207.27  22
   0  -5  13 1353.51 389.474  19
   0  -5  13-159.351 282.909  14
   0  -5 -13-38.9661 190.236  13
   0  -5 -13 95.3796 251.407   3
   0   5 -13 73.9878 227.317  25
   0   5  13 16.3759 260.679  27
   0  -5 -13-914.537 439.129  11
   0  -5 -13 461.161 324.541  31
   0   5 -13 230.308 235.503  32
   0  -5  13-1.73470 247.073  27
   0  -5  13-13.7540 291.526  17
   0  -5  13 89.4219 244.634  13
   0  -5  13-799.351 301.964   4
   0   5 -13-23.2822 185.114  22
   0   5  13 213.584 261.575  28
   0  -5  14 28399.2 1524.95   4
   0  -5 -14 27237.7 1410.66   3
   0  -5  14 25527.6 1468.84  14
   0   5  14 27119.0 1653.57  27
   0   5 -14 27232.1 1426.54  22
   0  -5 -14 29917.6 2047.11  11
   0  -5  14 26574.2 1476.81  13
   0  -5  14 28137.4 1697.48  17
   0  -5  14 31537.7 1809.93  27
   0   5  14 26065.2 1587.11  28
   0  -5 -14 27356.7 1320.95  13
   0   5 -14 26624.1 1517.09  32
   0   5 -14 30440.0 1619.89  25
   0  -5  15 36132.5 1762.06  14
   0  -5  15 34836.3 1690.19  13
   0  -5 -15 36110.2 1514.60  13
   0   5  15 36086.8 1887.82  17
   0   5 -15 36797.4 1800.87  32
   0  -5  15 37447.6 1948.21  17
   0  -5 -16 34488.2 2212.37  30
   0  -5 -16 33071.7 1436.22  13
   0   5  16 35348.2 1866.96  17
   0  -5  16 31912.1 1613.08  13
   0  -5  16 33302.8 1687.26  14
   0   5 -16 33815.1 1743.04  32
   0  -5  16 36164.2 1920.62  17
   0  -5  17 15318.1 1144.48  13
   0   5  17 19498.3 1376.11  17
   0  -5  17 18858.5 1372.74  17
   0  -5 -17 18315.4 1593.57  30
   0   5 -17 19079.2 1304.34  32
   0  -5  17 18266.0 1240.93  14
   0  -5  18 583.712 298.528  13
   0   5  18 2184.00 572.576  17
   0   5 -18 1980.78 473.264  32
   0  -5  18 1817.81 492.988  17
   0  -5  18 2831.53 569.014  14
   0  -5 -18 2330.45 658.822  30
   0  -5  19 2657.80 515.042  13
   0  -5  19 4144.36 676.827  17
   0  -5 -19 2002.86 612.292  30
   0   5 -19 3506.04 603.637  32
   0   5  19 4163.66 666.958  17
   0  -5  19 4578.94 634.816  14
   0  -5  20 538.348 286.588  14
   0  -5  20 442.493 278.942  13
   0  -5 -20 212.143 386.870  30
   0  -5  20 836.735 391.365  17
   0   5 -20 396.002 295.233  32
   0   5  20 824.429 371.086  17
   0   5 -21 4469.24 571.824  32
   0  -5  21 4486.24 584.466  13
   0  -5  21 4769.82 622.547  17
   0   5  21 5365.87 672.672  17
   0  -5  21 4883.96 603.717  14
   0  -5  22 864.112 289.886  14
   0   5  22 308.223 265.221  17
   0   5 -22 446.075 263.108  32
   0  -5  22 480.041 227.604  13
   0  -5  22 210.338 238.764  17
   0  -5  23-85.1385 185.995  13
   0  -5  23-340.615 179.514  14
   0   5 -23-58.1928 211.312  32
   0   5  23 90.4783 191.102  17
   0  -5  23 10.5084 232.151  17
   0   5 -24 7558.69 547.316  32
   0  -5  24 7462.75 559.462  17
   0  -5  24 6847.39 507.291  13
   0  -5  24 7197.29 539.535  14
   0  -6   0 5171.13 615.526   3
   0  -6   0 5475.77 596.686  21
   0   6   0 6128.37 704.672  28
   0  -6  -1 2359.85 413.238   3
   0   6   1 2812.54 496.950  27
   0   6   1 2540.86 480.485  28
   0  -6  -1 2636.62 662.579   8
   0  -6   1 2579.07 407.621  21
   0  -6  -1 2164.14 401.091  21
   0  -6   1 2048.82 416.546   3
   0   6  -1 2612.66 477.870  28
   0  -6  -2 19903.6 1582.39   8
   0   6  -2 19434.1 1085.96  22
   0   6   2 18673.1 1220.01  27
   0  -6  -2 18349.3 1100.30   3
   0   6   2 19645.4 1234.68  28
   0  -6  -2 20926.8 1079.93  21
   0  -6   2 20087.2 1136.76   3
   0   6  -2 19185.4 1231.99  28
   0  -6   2 19020.0 1081.55  21
   0   6   3 10021.4 933.165  28
   0  -6   3 9572.83 789.403  21
   0   6  -3 9541.36 786.568  22
   0   6   3 8734.78 852.130  27
   0  -6  -3 9881.10 1140.33   8
   0  -6  -3 8775.99 772.546   3
   0  -6   3 8833.23 775.065   3
   0  -6   4 39043.6 1586.45  21
   0   6   4 36956.0 1741.45  27
   0   6  -4 38870.2 1579.26  22
   0  -6  -4 40518.0 1640.85   3
   0  -6   4 38459.9 1638.18   4
   0  -6  -4 40464.2 2316.96   8
   0  -6   4 38194.1 1577.41   3
   0   6   4 39306.9 1769.98  28
   0  -6  -5 15674.1 1542.49  11
   0  -6   5 15662.9 1024.13   3
   0   6  -5 16109.2 1033.17  22
   0  -6  -5 15988.3 1045.86  13
   0  -6   5 17654.6 1133.24   4
   0  -6   5 16265.0 1051.51  21
   0   6   5 16261.8 1171.96  27
   0  -6   5 15947.5 1220.17  19
   0  -6   5 16974.5 1116.99  13
   0  -6  -5 17320.7 1086.23   3
   0   6   5 16599.8 1181.33  28
   0  -6  -6 515.319 236.955  13
   0  -6   6 1188.88 399.420  13
   0   6   6 1288.14 390.105  28
   0  -6  -6 638.487 286.832   3
   0   6  -6 529.950 251.046  22
   0  -6   6 555.999 259.198   3
   0  -6   6 596.259 299.435  21
   0   6   6 1198.68 342.766  27
   0  -6   6 402.511 300.172  19
   0  -6   6 340.274 275.200   4
   0  -6  -6 968.981 509.200  11
   0   6   7 701.773 311.759  27
   0  -6  -7 2117.04 619.752  11
   0   6  -7 782.124 274.250  22
   0  -6   7 1282.12 373.789   4
   0  -6  -7 2090.79 406.270  13
   0  -6   7 785.288 321.955  19
   0  -6  -7 1160.74 340.766   3
   0  -6   7 528.405 265.992  13
   0   6   7 1223.70 386.430  28
   0   6   8-503.402 299.024  27
   0  -6   8-84.2282 192.490  13
   0   6  -8-18.3068 157.939  22
   0  -6  -8 201.470 161.625   3
   0  -6  -8 92.2396 356.626  11
   0   6   8-124.821 243.030  28
   0  -6   8 58.5467 276.306  19
   0  -6   8 147.536 202.836   4
   0  -6  -8 201.220 250.285  13
   0  -6   9 21840.6 1304.37  14
   0  -6   9 21689.8 1337.11   4
   0  -6  -9 21787.4 1261.23   3
   0   6   9 22892.8 1466.90  27
   0   6  -9 21919.5 1261.51  22
   0  -6   9 20502.2 1290.16  13
   0   6   9 20514.6 1410.22  28
   0  -6  -9 21916.3 1889.83  11
   0  -6   9 20061.4 1383.27  19
   0  -6  -9 20804.6 1212.72  13
   0  -6  10 65.3060 273.641  14
   0  -6  10 194.952 282.756  17
   0   6 -10 241.589 192.420  22
   0   6  10 211.202 317.834  27
   0  -6  10 437.652 392.752  19
   0  -6 -10-2.28750 234.932  13
   0  -6  10 272.343 347.664  13
   0  -6 -10 797.324 607.584  11
   0  -6  10-27.7433 175.461   4
   0   6  10 113.897 242.609  28
   0  -6 -10 247.095 208.267   3
   0  -6  11 3461.86 658.904  17
   0  -6 -11 2330.08 408.237  13
   0  -6 -11 2090.74 728.456  11
   0  -6  11 2567.61 519.781  13
   0  -6  11 3713.86 579.908  14
   0   6 -11 3143.56 561.600  32
   0  -6  11 2576.16 524.944  19
   0  -6 -12 17107.2 1081.22  13
   0  -6  12 16398.2 1170.18  14
   0  -6  12 16080.5 1231.26  19
   0  -6  12 17220.9 1354.32  17
   0  -6  12 15858.4 1151.95  13
   0   6 -12 17050.3 1179.61  32
   0  -6 -12 18706.7 1723.03  11
   0  -6  13 2689.32 562.412  19
   0  -6 -13 1269.38 394.423  13
   0  -6  13 1306.38 407.395  14
   0  -6  13 1237.54 460.584  13
   0   6 -13 1810.29 445.013  32
   0  -6 -13 2731.73 727.675  11
   0  -6  13 2156.34 542.211  17
   0  -6  14 19950.2 1262.08  13
   0  -6  14 25735.8 1610.81  17
   0  -6 -14 23328.8 1867.18  11
   0  -6  14 24516.2 1386.90  14
   0   6 -14 22961.2 1361.96  32
   0  -6  14 23911.3 1426.34  19
   0  -6 -14 25372.3 1267.71  13
   0  -6  15 11171.7 938.079  14
   0  -6  15 11557.4 986.859  19
   0  -6  15 12060.7 1097.86  17
   0   6  15 12336.2 1128.20  17
   0   6 -15 11841.5 993.005  32
   0  -6  15 10643.5 947.676  13
   0  -6 -15 13190.4 1347.75  11
   0  -6  16 11527.0 938.371  14
   0  -6  16 10093.4 901.893  13
   0   6  16 11300.4 1045.29  17
   0  -6 -16 12673.7 1262.44  11
   0  -6  16 12837.3 1105.82  17
   0   6 -16 12331.9 1001.02  32
   0   6  17 33.0939 296.043  17
   0  -6  17 132.275 301.885  13
   0  -6  17-138.954 316.550  17
   0   6 -17 260.727 290.379  32
   0  -6  17 475.599 269.825  14
   0   6  18 272.166 305.058  17
   0  -6  18 121.933 286.420  13
   0  -6  18 281.772 197.946  14
   0  -6  18 186.499 292.074  17
   0   6 -18 407.607 246.664  32
   0   6  19 43.7729 236.347  17
   0  -6  19-43.3424 218.386  13
   0  -6  19-58.1956 223.917  14
   0   6 -19 154.461 225.595  32
   0  -6  20 7097.32 614.793  14
   0  -6  20 7093.81 612.679  13
   0   6 -20 7795.36 677.442  32
   0   6  20 6914.84 670.498  17
   0   6  21 2729.27 404.022  17
   0  -6  21 3227.37 396.246  14
   0   6 -21 3475.21 439.596  32
   0  -6  21 3345.88 405.859  13
   0  -6  22 119.551 148.586  13
   0   6 -22 259.122 171.566  32
   0  -7   0-101.453 328.897  19
   0  -7   0-843.146 334.572  13
   0  -7   1 6264.56 727.378  13
   0  -7   1 5108.64 744.353  19
   0  -7  -1 4494.79 932.136  11
   0  -7   1 5759.78 815.431   9
   0  -7  -1 5008.16 740.387  19
   0  -7  -1 6271.47 719.431  13
   0  -7   2 23957.4 1524.22  19
   0  -7   2 24948.3 1387.16  13
   0  -7  -2 25223.1 1356.75  13
   0  -7  -2 25193.1 1958.83  11
   0  -7  -3 1950.04 768.020  11
   0  -7  -3 3102.89 508.596  13
   0  -7   3 2694.65 601.611  19
   0  -7   3 3002.21 530.419  13
   0  -7   4 59666.1 2138.67  13
   0  -7  -4 59518.3 3027.53  11
   0  -7   4 59349.5 2386.65  19
   0  -7  -4 62296.8 2090.06  13
   0  -7  -5 37499.9 1632.82  13
   0  -7   5 38238.5 1731.06  13
   0  -7  -5 37378.7 2422.29  11
   0  -7   5 34210.7 1807.51  19
   0  -7  -6 4967.87 624.286  13
   0  -7   6 4559.63 649.927  13
   0  -7   6 4459.47 742.521  19
   0  -7  -6 4263.22 928.904  11
   0  -7   7 73905.0 2666.12  19
   0  -7  -7 81264.5 2350.94  13
   0  -7   7 76552.3 2420.42  13
   0  -7  -7 79988.6 3553.06  11
   0  -7  -8 1035.75 648.898  11
   0  -7   8 109.693 317.896  13
   0  -7   8 720.666 392.878  19
   0  -7  -8 861.154 308.419  13
   0  -7   9 15124.3 1235.24  19
   0  -7  -9 18310.5 1091.02  13
   0  -7   9 16534.8 1158.68  13
   0  -7 -10 46113.8 1689.39  13
   0  -7  10 40635.0 1950.79  19
   0  -7 -10 47411.3 2668.62  11
   0  -7  10 42795.8 1813.38  13
   0  -7  11 12086.5 968.789  13
   0  -7 -11 11198.2 1341.13  11
   0  -7 -11 12163.4 873.785  13
   0  -7  11 11140.2 1036.31  19
   0  -7 -12 1919.03 391.469  13
   0  -7  12 2746.63 535.347  19
   0  -7 -12 2808.94 752.033  11
   0  -7  12 2951.85 521.306  13
   0  -7 -13 13871.6 1372.25  11
   0  -7  13 12778.4 1032.50  19
   0  -7 -14 299.734 384.757  11
   0  -7  14 429.946 267.744  13
   0  -7  14-161.862 273.875  19
   0   7 -14 507.364 279.868  32
   0   7  14-12.9175 283.071  17
   0  -7  15 446.448 268.004  13
   0  -7  15 1147.44 320.550  19
   0  -7 -15 953.862 455.699  11
   0   7 -15 765.784 286.437  32
   0   7  15 816.635 347.153  17
   0  -7  16 7189.38 671.788  13
   0  -7 -16 7407.40 885.461  11
   0  -7  16 6439.11 610.756  19
   0   7 -16 6652.28 612.106  32
   0   7  16 7047.27 717.823  17
   0   7 -17 3287.11 422.360  32
   0  -7 -17 3469.88 595.262  11
   0  -7  17 3677.01 454.217  13
   0   7  17 3537.76 499.014  17
   0  -7  18 4798.95 477.042  13
   0   7  18 4493.01 482.474  17
   0   7 -18 4502.00 445.173  32
   0   7 -19 139.170 163.352  32
   0  -7  19 132.926 165.673  13
   0  -8   0 22543.3 1315.80  19
   0  -8   0 31475.4 1427.71  13
   0  -8   1 10044.2 935.095  19
   0  -8   1 15185.3 997.933  13
   0  -8  -1 15345.8 996.312  13
   0  -8  -2 16144.3 999.170  13
   0  -8   2 17033.1 1066.22  13
   0  -8   2 14989.4 1127.91  19
   0  -8  -3-109.942 419.423  11
   0  -8   3 81.9742 291.654  13
   0  -8  -3 182.807 249.455  13
   0  -8   3-235.786 259.078  19
   0  -8   4 80.2192 269.844  13
   0  -8   4 682.459 358.174  19
   0   8  -4 69.4188 198.241  12
   0  -8  -4 243.568 237.012  13
   0  -8  -4-54.6432 399.308  11
   0  -8  -5 594.648 443.454  11
   0   8  -5 423.992 262.837  12
   0  -8  -5 231.972 227.055  13
   0  -8   5 427.313 296.726  13
   0  -8   5 259.086 330.825  19
   0  -8   6 5525.38 631.138  13
   0  -8   6 5376.72 693.138  19
   0  -8  -6 6115.59 943.681  11
   0  -8  -6 5578.50 583.686  13
   0  -8  -7-395.963 271.253  13
   0  -8   7-26.2500 235.664  13
   0  -8  -7-268.195 477.346  11
   0  -8   7 324.113 316.726  19
   0  -8  -8 578.239 502.189  11
   0  -8   8 403.879 341.247  19
   0  -8   8 104.616 248.362  13
   0  -8  -8 202.854 201.412  13
   0  -8   9 10100.8 781.161  13
   0  -8   9 9765.34 879.572  19
   0  -8  -9 10115.3 1157.04  11
   0  -8  -9 9242.15 673.714  13
   0  -8 -10 7033.16 931.913  11
   0  -8  10 7618.13 669.308  13
   0  -8  10 8596.55 801.368  19
   0  -8 -11 596.903 459.200  11
   0  -8  11 616.608 322.116  19
   0  -8  11 627.405 269.749  13
   0  -8 -12 162.267 339.228  11
   0  -8  12 588.838 278.928  19
   0   8  12 150.897 252.903  17
   0  -8  12 995.675 267.449  13
   0   8  13-178.753 226.382  17
   0  -8  13 194.999 198.594  13
   0  -8  13 117.543 214.629  19
   0  -8 -13-330.657 331.996  11
   0   8  14 884.104 278.497  17
   0  -8  14 1007.60 247.629  13
   0  -8  14 1084.86 281.268  19
   0  -8 -14 1012.19 386.488  11
   0  -8  15 3649.29 385.960  13
   0  -9   0-124.718 208.636  13
   0  -9   1 5196.50 467.481  13
   0  -9  -1 4545.16 423.426  13
   0  -9   2 7305.33 545.719  13
   0  -9  -2 6292.94 492.463  13
   0  -9   2 5932.60 540.126  19
   0  -9   3 68.7860 196.160  19
   0  -9   3 276.611 205.387  13
   0  -9  -4 1383.78 260.720  13
   0  -9   4 1322.60 282.985  13
   0  -9   4 1222.03 286.040  19
   0  -9  -4 1651.25 422.305  11
   0  -9  -5 6738.44 719.335  11
   0  -9   5 9032.81 574.385  13
   0  -9   5 7724.09 634.050  19
   0  -9   6 2372.05 370.404  19
   0  -9  -6 3731.08 561.497  11
   0  -9   6 3366.35 362.747  13
   0  -9   7 402.051 190.634  13
   0  -9   7 125.505 162.283  19
   0  -9  -7 610.249 315.773  11
   0   9   8-80.0871 188.239  17
   0  -9  -8-121.098 233.811  11
   0  -9   8 154.037 157.695  19
  -1   0   0 14.5973 114.463  21
   1   0   0 56.7288 190.674   5
  -1   0   1 132939. 1540.18  20
   1   0   1 135572. 1972.62   5
   1   0   1 131956. 1573.38  20
   1   0  -1 132683. 1626.58  25
  -1   0  -1 137834. 1463.54  21
   1   0  -1 135047. 1969.74   5
  -1   0  -1 133158. 1549.59  20
  -1   0   2 159778. 1701.51  20
  -1   0   2 164196. 2376.09   8
   1   0  -2 158396. 1775.20  25
  -1   0  -2 156136. 1694.60  20
  -1   0   2 166537. 2378.38  26
   1   0  -2 154497. 1709.98  20
   1   0   2 160846. 1781.87  22
   1   0  -2 161037. 2167.48   5
   1   0  -2 165584. 1956.33  24
   1   0   2 154818. 1715.16  20
   1   0   2 157658. 2159.25   5
  -1   0  -2 155760. 1587.47  21
  -1   0   3 49755.3 1395.96  26
   1   0  -3 47662.3 1212.26   5
  -1   0   3 47321.7 942.204  20
   1   0   3 49675.4 1050.11  22
  -1   0   3 48026.1 1374.21   8
  -1   0  -3 45822.3 932.442  20
   1   0   3 48482.1 984.340  20
   1   0  -3 47263.7 962.113  20
   1   0  -3 49087.5 1011.87  25
   1   0   3 50411.2 1149.91   6
  -1   0  -3 44233.1 1336.46  29
   1   0   3 48705.9 1215.34   5
  -1   0  -3 48635.6 917.842  21
   1   0  -4 376946. 2895.48  25
   1   0   4 381547. 3472.93   5
  -1   0  -4 376956. 2711.28  20
  -1   0   4 385126. 3971.56   8
   1   0  -4 371409. 2539.93   7
   1   0   4 376274. 2781.80  20
  -1   0  -4 382299. 2627.56  21
   1   0  -4 370260. 3492.02   5
  -1   0   4 376813. 2694.83  20
   1   0  -4 374862. 2758.71  20
   1   0   4 384737. 3033.29  22
   1   0   4 389753. 3388.48   6
  -1   0   4 369948. 3979.89  26
  -1   0  -4 377295. 3901.57  29
   1   0   5 99827.5 1530.83  27
   1   0  -5 97555.2 1533.65  25
  -1   0   5 95214.6 2152.25  26
   1   0   5 100062. 1644.28  22
   1   0  -5 97783.4 1448.34  20
  -1   0   5 98317.3 1418.29  20
  -1   0  -5 98569.6 1375.12  21
  -1   0  -5 96875.0 2079.74  29
  -1   0  -5 100165. 1425.01  20
   1   0  -5 93714.4 1411.73   7
   1   0   5 97104.8 1859.70   6
  -1   0   5 98070.4 2096.46   8
   1   0   5 97421.4 1450.35  20
  -1   0  -5 100687. 1656.51  26
  -1   0   5 98840.5 1765.36   2
   1   0   5 100515. 1824.35   5
   1   0   5 101444. 1612.46  28
   1   0  -5 98817.6 1852.94   5
   1   0  -6 18143.6 626.677   3
   1   0  -6 17760.7 832.406   5
   1   0  -6 17932.9 703.638  25
  -1   0   6 18750.4 641.658  20
   1   0  -6 17956.8 645.724  20
  -1   0  -6 17085.8 946.087  29
  -1   0   6 18894.9 997.080   8
  -1   0  -6 18375.3 615.844  21
   1   0   6 18012.1 642.876  20
  -1   0   6 16120.8 974.249  26
  -1   0  -6 18563.3 638.026  20
   1   0   6 18781.5 729.625  27
  -1   0  -6 18192.6 734.288  25
   1   0   6 18110.8 814.659   5
   1   0  -6 16962.2 671.111   7
   1   0   6 17563.4 733.925  22
   1   0   6 19493.7 779.951  28
  -1   0   6 18668.2 789.091   2
  -1   0  -6 19319.4 771.268  26
  -1   0   7 173200. 3043.21   8
  -1   0  -7 172100. 2265.26  25
  -1   0   7 178798. 2013.39  20
  -1   0  -7 180493. 2430.28  26
   1   0  -7 175181. 2039.76  20
   1   0   7 178771. 2417.89  27
   1   0   7 173965. 2538.68   5
   1   0   7 181348. 2486.92  28
   1   0  -7 168772. 2179.01   7
  -1   0  -7 178679. 2006.25  20
  -1   0   7 167445. 3128.00  26
  -1   0   7 170560. 2423.73   2
  -1   0  -7 172888. 2994.88  29
   1   0   7 166855. 2337.24  22
   1   0  -7 170371. 2034.85   3
  -1   0  -7 174822. 1940.93  21
  -1   0  -7 177428. 1815.92   3
   1   0  -7 173132. 2242.77  25
   1   0   8 19522.1 856.762  27
  -1   0  -8 21177.8 908.034  26
  -1   0   8 19633.9 1150.30  26
  -1   0   8 19148.0 851.226   2
   1   0   8 19620.2 891.962  28
  -1   0  -8 20596.0 826.160  25
   1   0   8 20524.2 904.728   5
  -1   0  -8 19340.6 671.111  21
   1   0  -8 20210.6 726.885  20
  -1   0   8 21463.6 751.724  27
   1   0  -8 19226.9 789.325   7
  -1   0  -8 18498.7 1043.63  29
  -1   0   8 20095.3 706.717  20
   1   0  -8 20317.1 811.679  25
  -1   0   8 19765.1 1094.53   8
  -1   0  -8 20199.0 701.112  20
   1   0  -8 20094.2 747.253   3
  -1   0  -8 20348.0 676.339   3
  -1   0   9 56.4047 122.238   2
  -1   0  -9 133.138 158.555  25
   1   0  -9 236.111 157.331   7
   1   0   9 372.163 167.511   5
  -1   0   9 363.068 179.056  27
   1   0  -9 474.550 302.182  29
  -1   0  -9 94.7210 116.312   3
   1   0  -9 468.064 182.515   3
  -1   0  -9 636.317 155.673  20
  -1   0   9 336.942 136.188  20
  -1   0  -9 282.628 191.041  26
   1   0  -9 244.177 173.519  25
  -1   0   9 17.8735 259.916   8
  -1   0  -9 175.180 97.6368  21
  -1   0   9-33.7188 296.420  26
   1   0   9 304.388 232.913  27
  -1   0  -9 261.852 262.729  29
   1   0  -9 419.924 148.181  20
   1   0   9 416.252 234.093  28
   1   0 -10 90272.5 1832.22  25
   1   0  10 84724.4 2017.90  27
  -1   0 -10 89388.7 1473.90  21
  -1   0  10 80349.5 2461.96  26
   1   0 -10 83866.7 1798.36   7
  -1   0  10 90650.7 1785.39  27
   1   0  10 85805.5 2037.44  28
  -1   0 -10 85002.6 1834.55  25
   1   0 -10 85656.6 1732.30   3
  -1   0  10 85423.2 2397.98   8
  -1   0 -10 88028.9 1594.90   3
  -1   0 -10 86369.9 2403.09  29
   1   0 -10 86960.0 2445.49  29
   1   0 -11 252.162 185.286   3
  -1   0 -11 115.683 190.347  25
  -1   0  11 213.230 188.406  27
   1   0  11-23.9713 209.794  27
  -1   0 -11-62.3634 268.246  29
   1   0 -11 129.757 172.863  25
  -1   0  11 201.864 326.007  26
   1   0 -11 132.098 254.005  29
  -1   0  11 388.361 295.984   8
  -1   0 -11 79.9720 140.222   3
   1   0 -11 379.004 219.726   7
   1   0  11 305.061 271.636  28
  -1   0 -12 16.7114 137.683   3
  -1   0  12 135.272 426.080  26
   1   0 -12-102.652 142.220  25
  -1   0 -12 10.1972 162.400  25
  -1   0  12-17.3889 283.092   8
  -1   0 -12 30.6785 293.133  29
   1   0 -12-65.1789 209.365   7
   1   0  12-74.9383 239.813  28
   1   0 -12-128.282 299.904  29
   1   0 -12-4.37476 163.459   3
   1   0  12 105.279 237.137  27
  -1   0  12-205.836 179.780  27
   1   0 -13 7717.60 636.965  25
   1   0 -13 7149.37 649.026   7
  -1   0  13 7180.72 824.353   8
  -1   0 -13 7247.90 621.657  25
   1   0  13 7320.82 740.875  27
   1   0 -13 9126.68 765.357  24
  -1   0 -13 7947.95 876.297  29
  -1   0 -13 8026.42 589.273   3
   1   0 -13 7701.57 932.011  29
   1   0  13 7784.79 778.926  28
  -1   0  13 5221.38 862.993  26
   1   0 -13 7309.38 610.470   3
   1   0 -14 43687.6 1516.44  25
  -1   0  14 39049.2 2071.35  26
   1   0  14 36819.1 1614.92  27
  -1   0  14 38722.0 1874.62   8
   1   0 -14 41001.8 2005.84  29
  -1   0 -14 36727.1 1399.60  25
   1   0 -14 41078.6 1643.14  24
   1   0 -14 40448.8 1531.55   7
  -1   0 -14 41447.6 1971.17  29
  -1   0 -14 38794.0 1326.44   3
   1   0 -14 38577.9 1415.54   3
   1   0  14 39007.1 1696.88  28
   1   0 -15-1.91825 200.094   3
  -1   0 -15 122.192 164.135   3
   1   0 -15 52.2252 209.038   7
  -1   0 -15 10.0176 145.635  25
   1   0 -15 443.990 248.152  24
  -1   0  15 305.739 374.437  26
   1   0  15 179.402 271.319  27
  -1   0 -15 159.487 327.095  29
   1   0 -15 171.947 286.514  29
  -1   0  15-110.919 314.896   8
   1   0  15-40.2789 338.604  28
   1   0  16 867.060 369.452  27
  -1   0 -16 947.412 324.307  25
   1   0 -16 330.585 214.883   3
  -1   0 -16 1357.12 289.793   3
  -1   0 -16 1307.81 491.113  29
   1   0 -16 499.308 285.414   7
   1   0  16 497.533 316.145  28
  -1   0  16 542.684 386.609  26
  -1   0 -17 3354.15 492.648  25
  -1   0  17 3277.22 722.929  26
   1   0 -17 2671.55 508.705   7
   1   0  17 3213.50 589.234  27
   1   0 -17 2314.13 441.719   3
  -1   0 -17 2635.53 617.013  29
  -1   0 -17 3965.58 506.360   3
   1   0  17 2643.71 529.284  28
   1   0  18 13861.5 1176.00  27
   1   0 -18 13410.1 1026.87   7
   1   0  18 14748.9 1216.20  28
  -1   0 -18 14196.1 940.817   3
  -1   0 -18 15050.3 1396.16  29
   1   0 -18 15005.8 1032.64   3
  -1   0 -18 13847.3 990.342  25
  -1   0  18 12228.4 1378.20  26
   1   0  19 342.956 280.662  17
   1   0 -19 749.040 278.331   3
  -1   0 -19 498.162 258.355  33
   1   0 -19 362.742 251.917   7
   1   0  19 331.312 285.878  12
   1   0 -19 322.782 264.908  33
   1   0  19 300.540 255.199   6
  -1   0 -19 1260.80 496.739  30
   1   0 -19 553.468 263.069  13
  -1   0  19 144.785 294.711   9
  -1   0  19-369.408 400.583  26
  -1   0 -19-296.783 372.506  29
   1   0  19 591.743 363.781  27
   1   0  19 662.577 328.131  28
  -1   0  20 1352.19 594.535  26
   1   0 -20 743.597 302.710   7
   1   0  20 726.889 469.317   6
   1   0 -20 574.127 236.935   3
   1   0 -20 1249.88 434.243  33
  -1   0 -20 507.838 401.019  30
   1   0  20 684.517 365.856  12
   1   0 -20 844.930 311.875  13
  -1   0 -20 661.197 328.532  33
  -1   0  20 4.28629 247.774   9
   1   0  20 632.264 385.526  17
   1   0  20 729.622 374.419  28
   1   0  20 404.049 320.550  27
   1   0 -21 20067.5 1312.07  33
  -1   0  21 19400.4 1589.13   9
   1   0  21 20036.0 1459.66  17
  -1   0 -21 20156.0 1606.13  30
  -1   0 -21 19786.6 1327.87  33
   1   0 -21 20171.6 1159.71  13
   1   0  21 20184.9 1362.17  12
  -1   0 -22 12989.4 1060.87  33
   1   0  22 11117.9 1031.98  12
   1   0 -22 12119.6 901.495  13
   1   0  22 11473.1 1108.56  17
  -1   0  22 10415.4 1174.80   9
   1   0 -22 11894.7 987.520  33
  -1   0  23 804.179 432.766   9
  -1   0 -23 773.960 362.272  33
   1   0 -23 839.885 347.542  13
   1   0 -23 565.487 279.639  33
   1   0  23 1280.18 418.621  12
   1   0  23 417.181 291.603  17
   1   0  24 11591.7 1049.09  17
   1   0  24 10781.7 896.961  12
   1   0 -24 10110.2 802.492  13
   1   0  24 10064.6 809.446  14
   1   0 -24 10240.7 867.994  33
  -1   0 -24 11081.3 937.105  33
  -1   0  24 10095.2 1107.12   9
  -1   0 -25 1148.54 364.695  33
   1   0  25 1329.67 413.564  17
   1   0 -25 1442.44 327.095  33
  -1   0  25 2017.45 626.652   9
   1   0  26 287.459 270.631  17
  -1   0 -26 170.725 232.732  33
   1   0 -26-14.3101 179.145  33
  -1   0  26 141.213 295.277   9
  -1   0  27 2218.58 458.377   9
  -1   0 -27 2644.91 385.982  33
   1   0 -27 2358.25 347.854  33
   1   0  27 2210.65 416.439  17
  -1   0  28 807.536 284.312   9
   1   0  28 301.800 195.133  17
  -1   0 -28 714.667 226.158  33
  -1  -1 -28 1185.09 236.288  33
   1  -1  28 743.090 237.806  17
   1   1 -28 814.439 202.644  33
  -1   1  28 996.205 317.108   9
  -1  -1 -27 4412.42 461.008  33
  -1  -1 -27 4124.31 573.829  30
   1  -1  27 4695.18 532.815  17
   1   1 -27 4212.74 468.614  33
  -1   1  27 4165.93 588.840   9
   1  -1  27 3901.97 411.845  14
  -1   1  26 2496.82 543.858   9
   1  -1  26 2993.70 507.663  17
   1   1 -26 3023.68 443.427  33
  -1  -1 -26 2845.28 418.015  33
  -1  -1 -26 3513.40 612.195  30
   1  -1  26 2967.14 407.523  14
  -1   1  25 1850.02 501.551   9
   1   1 -25 3475.58 499.957  33
  -1  -1 -25 2471.18 561.589  30
  -1  -1 -25 2928.47 483.273  33
   1  -1  25 2597.55 525.462  17
   1  -1  25 2495.37 421.489  14
  -1  -1 -24 1500.19 505.942  30
   1  -1  24 1577.31 398.394  14
  -1   1  24 1628.60 567.782   9
   1   1 -24 1123.25 389.831  33
  -1  -1 -24 1293.99 374.997  33
   1  -1  24 1366.32 438.553  17
  -1  -1 -23 2338.44 486.891  33
   1  -1  23 3723.28 606.177  12
   1   1 -23 2713.12 533.848  33
  -1  -1 -23 2563.28 627.016  30
  -1   1  23 2268.17 633.251   9
   1  -1  23 2747.33 507.700  14
   1  -1  23 2933.55 586.606  17
  -1  -1 -22 15602.6 1146.01  33
   1  -1  22 14609.7 1264.97  17
   1  -1  22 14978.6 1087.20  14
  -1   1  22 15697.9 1430.63   9
   1  -1  22 14471.5 1165.61  12
   1   1 -22 14478.2 1115.93  33
  -1  -1 -22 14993.6 1481.96  30
   1  -1  21 6280.37 771.425  12
   1  -1  21 6814.28 858.046  17
  -1  -1 -21 5077.21 681.847  33
  -1  -1 -21 6412.66 1002.12  30
  -1   1  21 6314.68 949.995   9
   1   1 -21 5574.67 645.934  13
   1   1 -21 6568.08 788.327  33
   1  -1  20 20653.7 1413.94  12
  -1   1  20 20853.6 1873.05  26
   1   1 -20 19339.8 1175.78  13
  -1  -1 -20 21997.4 1376.32  33
   1  -1  20 23574.0 1739.59   6
   1   1 -20 22159.6 1389.73  33
   1   1 -20 21038.4 1279.35   3
   1  -1  20 24379.5 1620.41  27
  -1  -1 -20 21499.0 1756.79  30
   1  -1  20 22815.9 1581.88  28
   1  -1  20 19754.5 1456.67  17
  -1  -1 -20 23791.4 1874.38  29
   1   1 -20 19890.5 1284.58   7
  -1   1  20 18857.9 1590.73   9
   1   1 -19 4963.14 658.974  13
  -1  -1 -19 6026.77 628.154   3
   1  -1  19 7756.20 922.335  17
   1   1 -19 6030.89 729.640   7
  -1   1  19 5596.70 1009.11  26
   1   1 -19 6268.34 771.402  33
   1  -1  19 7235.36 905.314  28
  -1  -1 -19 6628.04 756.977  33
  -1  -1 -19 7506.03 1069.82  29
  -1   1  19 7019.87 964.476   9
   1   1 -19 6231.95 719.007   3
   1  -1  19 6065.07 806.828  12
   1  -1  19 7848.02 1015.26   6
  -1  -1 -19 5951.42 954.321  30
   1  -1  19 6920.42 857.756  27
   1   1 -18 31383.6 1496.17   3
  -1  -1 -18 31815.5 2016.67  30
   1   1 -18 33388.4 1608.68  25
   1   1 -18 30061.2 1427.25  13
   1   1 -18 33612.7 1663.85  33
   1   1 -18 28939.2 1518.99   7
   1  -1  18 27737.8 1586.43  12
  -1  -1 -18 32089.8 2104.56  29
   1  -1  18 32315.8 1812.50  28
   1  -1  18 30129.8 1734.70  27
  -1   1  18 31077.1 2173.01  26
   1  -1  18 33051.6 1966.73   6
   1  -1  18 30060.0 1734.24  17
  -1  -1 -18 32443.4 1411.44   3
  -1   1  18 27526.0 1809.20   9
  -1  -1 -17 33202.4 1382.05   3
   1   1 -17 34055.9 1604.15  25
   1  -1  17 31905.2 1740.48  27
  -1   1  17 33612.9 1992.74   8
  -1  -1 -17 30686.5 2010.86  29
   1  -1  17 32639.0 1910.28   6
  -1   1  17 28428.9 1988.78  26
   1   1 -17 28754.3 1398.77   3
   1   1 -17 29374.3 1470.91   7
   1  -1  17 33309.6 1785.45  28
   1   1 -16 1825.43 408.574   3
   1   1 -16 1704.47 372.888  25
  -1   1  16 2113.13 627.202  26
  -1  -1 -16 2332.78 627.063  29
  -1  -1 -16 1857.00 361.268   3
  -1   1  16 2171.82 544.232   8
   1   1 -16 1882.74 423.086   7
   1  -1  16 2218.93 517.841   6
   1  -1  16 2241.66 486.652  27
   1  -1  16 2084.21 508.305  28
  -1   1  15 31712.0 1449.87  27
   1  -1  15 33554.9 1662.03  27
   1   1 -15 34173.2 1495.69  25
  -1  -1 -15 31583.8 1260.50   3
  -1   1  15 30954.4 1959.98  26
   1  -1  15 33044.7 1788.04   6
   1   1 -15 29172.1 1316.33   3
  -1   1  15 32139.3 1853.20   8
   1   1 -15 28851.3 1386.19   7
   1  -1  15 31683.6 1620.74  28
  -1  -1 -15 31066.5 1871.44  29
   1   1 -14 11749.6 861.434  25
  -1   1  14 12100.6 1120.17   8
  -1  -1 -14 12665.2 786.801   3
   1  -1  14 11008.5 1005.43   6
   1   1 -14 10161.6 807.718   7
  -1  -1 -14 11988.8 1137.86  29
   1   1 -14 10113.8 763.465   3
   1  -1  14 11911.0 966.725  28
   1  -1  14 11522.9 948.471  27
  -1   1  14 11899.0 1203.18  26
  -1   1  14 9530.12 763.919  27
   1  -1  13 118212. 2836.76  28
  -1  -1 -13 122411. 2241.34   3
  -1  -1 -13 118638. 2379.28  25
   1  -1  13 112364. 2743.40  27
  -1   1  13 116560. 3206.39   8
   1   1 -13 121052. 2633.00  25
  -1   1  13 109407. 3336.13  26
   1  -1  13 119388. 3117.42   6
   1   1 -13 112688. 2376.97   3
  -1   1  13 124882. 2575.98  27
  -1  -1 -13 113985. 3294.28  29
   1   1 -13 114769. 2490.70   7
   1  -1  12 9464.61 789.479  28
  -1  -1 -12 9939.38 660.577  25
  -1   1  12 8703.54 891.963   8
   1   1 -12 11389.4 776.423   7
   1   1 -12 10670.4 774.260  25
  -1   1  12 10320.8 720.639  27
   1  -1  12 9784.78 906.064   6
  -1  -1 -12 10961.4 1028.27  29
  -1  -1 -12 10549.3 643.637   3
   1  -1  12 9442.23 809.659  27
  -1   1  12 8379.15 989.982  26
   1  -1  11 5069.13 590.483  27
  -1  -1 -11 6529.26 487.889   3
   1   1 -11 6256.58 560.793   7
  -1   1  11 4648.91 669.586   8
  -1  -1 -11 5894.29 511.996  25
   1   1 -11 5949.67 564.061  25
  -1  -1 -11 5425.25 726.739  29
   1  -1  11 5811.89 671.262   6
   1  -1  11 5319.31 608.324  28
  -1   1  11 5558.26 527.082  27
  -1  -1 -10 23070.1 1137.40  26
  -1  -1 -10 20708.3 1251.95  29
  -1   1  10 18587.1 1186.19   8
   1  -1  10 21725.8 1080.39  28
   1   1 -10 21317.1 944.003   7
  -1  -1 -10 21237.9 879.023  25
   1  -1  10 22367.6 830.264   4
   1  -1  10 21614.8 1063.49  27
   1   1 -10 21838.3 1002.55  25
  -1  -1 -10 21969.9 821.058   3
  -1   1  10 21210.6 917.929  27
   1  -1  10 21599.4 1188.65   6
   1   1  -9 67490.3 1670.68  25
  -1  -1  -9 67541.6 1340.21   3
  -1  -1  -9 71188.6 1890.89  26
  -1  -1  -9 68474.1 2143.73  29
  -1  -1  -9 68328.2 1514.28  25
  -1  -1  -9 70383.3 1238.63  21
  -1   1   9 65232.3 2053.26   8
   1  -1   9 68432.8 1802.31  28
   1  -1   9 68816.6 1406.01   4
   1  -1   9 65730.0 1734.93  27
   1   1  -9 66693.6 1575.82   7
  -1   1   9 70579.3 1546.13  27
   1  -1   9 66835.1 1952.78   6
   1   1  -8 7688.46 537.605   7
  -1  -1  -8 8549.19 582.455   8
  -1   1   8 7614.62 738.228   8
  -1  -1  -8 8427.58 432.310  21
   1  -1   8 7776.93 594.232  28
   1   1  -8 7541.47 417.041  22
  -1  -1  -8 8206.87 753.928  29
   1   1  -8 7452.58 560.752  25
  -1  -1  -8 8519.07 668.256  26
   1  -1   8 8112.10 681.480   6
  -1   1   8 9291.67 540.461  27
   1  -1   8 8593.82 491.607   4
  -1  -1  -8 7325.15 499.472  25
  -1  -1  -8 7703.72 445.668   3
   1  -1   8 7953.11 596.276  27
  -1   1   7 8.74011 117.243  27
   1  -1   7 249.048 198.332  27
  -1  -1  -7 97.6948 61.9905   1
  -1  -1  -7 366.450 235.795  26
   1   1  -7 314.047 165.031  25
   1  -1   7 161.788 185.413  28
   1   1  -7 338.470 187.853   7
  -1  -1  -7 582.995 198.069  25
   1   1  -7 309.836 201.762   5
  -1  -1  -7 460.956 222.129   8
  -1  -1  -7 208.586 116.230   3
  -1  -1  -7 365.057 137.311  21
  -1   1   7 75.6456 93.3047  20
  -1  -1  -7 373.647 101.139  20
  -1  -1  -7 187.577 232.403  29
   1   1  -7 178.500 127.932  22
   1  -1   7 179.543 156.800   4
   1  -1   7 241.825 231.847   6
  -1   1   6 8016.16 428.212  27
   1   1  -6 6380.48 493.406  25
  -1   1   6 7870.11 583.717   2
  -1  -1  -6 7047.70 598.993  26
   1  -1   6 6811.39 501.600  27
   1  -1   6 7690.93 603.175   6
   1   1  -6 7538.73 397.218  22
  -1  -1  -6 8018.56 416.479  21
  -1   1   6 7878.12 395.025  20
  -1  -1  -6 8207.63 385.239  20
   1   1  -6 6505.79 448.850   7
  -1   1   6 6056.12 651.400  26
   1  -1   6 7175.01 447.467   4
   1   1  -6 6598.07 481.797   5
  -1  -1  -6 7690.26 376.495   3
  -1  -1  -6 7799.64 550.346   8
   1   1  -6 7139.96 450.232  20
  -1   1   6 8360.81 526.351   1
   1  -1   6 7426.07 529.620  28
  -1  -1  -6 7327.02 694.723  29
   1  -1   5 101194. 1704.19  27
  -1  -1  -5 102892. 1876.73   8
  -1   1   5 106587. 1993.20   2
  -1   1   5 92116.8 2105.71  26
  -1  -1  -5 103557. 1240.81   3
  -1  -1  -5 101371. 1991.35  26
   1   1  -5 105138. 1798.19   5
   1   1  -5 100905. 1390.97  22
  -1  -1  -5 102183. 1406.49  21
  -1   1   5 110786. 1852.27   1
  -1  -1  -5 105286. 1352.59  20
  -1   1   5 102658. 1378.55  20
   1   1  -5 102776. 1757.03  25
   1  -1   5 104517. 2038.01   6
  -1  -1  -5 100915. 2241.95  29
   1  -1   5 106171. 1723.16   5
   1   1  -5 104698. 1617.68  20
   1  -1   5 104428. 1736.66  28
   1   1  -4 35321.9 998.996  25
   1   1  -4 37073.6 1072.75   5
   1  -1   4 37791.7 1030.51   5
  -1  -1  -4 33739.6 1081.05   8
   1  -1   4 36194.0 957.083  27
  -1  -1  -4 36354.8 834.887  21
  -1   1   4 37283.3 1145.61   2
  -1   1   4 37098.9 1269.12  26
  -1  -1  -4 36010.7 793.284  20
   1   1  -4 37708.0 942.226  20
  -1   1   4 36823.9 823.688  20
  -1   1   4 38708.7 1068.21   1
   1  -1   4 35359.5 953.215  28
  -1  -1  -4 35321.8 1276.60  29
   1  -1   4 36987.0 1189.92   6
  -1  -1  -4 35003.4 1143.47  26
   1   1  -4 35268.0 807.076  22
  -1  -1  -3 217983. 2756.61  26
   1   1  -3 211687. 2547.40   5
   1  -1   3 216653. 2289.02  20
  -1   1   3 211058. 2755.62  26
   1  -1   3 223239. 2497.98   5
   1   1  -3 216951. 1966.91  22
   1   1  -3 218036. 2343.01  25
  -1  -1  -3 214510. 1964.13  21
  -1   1   3 212500. 1990.40  20
   1   1  -3 216030. 2180.18  20
  -1   1   3 218742. 2667.79   2
  -1  -1  -3 213240. 1931.40  20
   1  -1   3 215025. 2711.62   6
  -1  -1  -3 208153. 2651.41   8
  -1  -1  -3 217108. 2985.16  29
  -1   1   3 221531. 2479.91   1
   1   1  -2 408633. 2702.90  22
   1   1  -2 403484. 3535.39   5
   1  -1   2 402327. 3396.38   5
  -1   1   2 418880. 3789.78   8
  -1  -1  -2 406046. 2643.58  21
   1  -1   2 404392. 3056.26  20
  -1   1   2 406380. 2776.37  20
  -1  -1  -2 400909. 2664.41  20
  -1  -1  -2 406736. 3735.51  26
  -1   1   2 406995. 3265.38   1
   1   1  -2 402473. 3125.32  25
  -1  -1  -2 403923. 3693.46   8
  -1  -1  -2 409430. 3952.95  29
   1   1  -2 407361. 2904.49  20
   1  -1   2 400438. 3662.12   6
  -1  -1  -1 948885. 3993.59  21
   1   1  -1 996188. 4748.07  25
  -1   1   1 957438. 4885.29   1
   1  -1   1 952046. 4946.27  24
  -1  -1  -1 979834. 5905.78  29
   1   1  -1 973535. 5475.64   5
   1   1  -1 964228. 4160.66  22
  -1   1   1 990007. 3881.75  21
  -1   1   1 996183. 5457.62   2
   1  -1   1 949029. 5267.47   5
   1  -1   1 976544. 4648.29  20
  -1   1   1 966730. 4319.05  20
   1   1  -1 960057. 4364.78  20
  -1  -1  -1 977194. 5809.73   8
   1  -1   1 971440. 5513.12   6
  -1  -1  -1 968347. 5778.52  26
  -1  -1   0 57422.2 1429.17  29
  -1  -1   0 58412.5 985.545  21
   1  -1   0 53093.6 1191.81  24
  -1  -1   0 58016.5 1455.10   8
   1   1   0 58298.1 1057.71  22
   1  -1   0 51956.7 1271.13   5
   1  -1   0 52693.7 1064.67  20
  -1   1   0 53061.0 1031.57  20
   1   1   0 56972.1 1044.79  20
  -1  -1   0 55160.7 1409.55  26
  -1  -1   0 57869.3 1045.64  20
   1   1   0 58466.3 1387.51   5
   1   1   0 62092.5 1183.69  25
  -1   1   0 54131.9 1258.34   2
   1  -1   0 51000.7 1281.63   6
  -1   1   0 52843.2 1121.18   1
  -1  -1   1 951873. 3921.83  21
   1  -1  -1 946898. 5520.44   5
  -1   1  -1 959658. 4437.12  20
   1   1   1 960253. 4205.61  20
  -1  -1   1 947327. 4308.24  20
   1  -1  -1 977308. 5176.45  24
  -1  -1   1 993498. 6120.93   8
  -1  -1   1 940303. 5866.90  26
   1  -1  -1 945019. 5457.72   6
  -1   1  -1 988463. 6039.47  29
   1  -1  -1 976562. 4509.06  20
   1   1   1 976203. 5720.00   5
   1  -1  -2 387281. 3580.96   6
  -1  -1   2 402713. 3986.89  26
  -1  -1   2 406097. 2558.72  21
   1  -1  -2 401967. 3376.16  24
   1  -1  -2 407731. 2520.30   7
   1   1   2 409244. 2948.34  22
  -1   1  -2 401589. 2931.12  20
   1   1   2 405548. 2715.78  20
  -1  -1   2 404482. 2890.66  20
   1  -1  -2 411605. 2900.57  20
   1  -1  -2 397861. 3722.03   5
  -1  -1   2 412917. 4064.64   8
  -1   1  -2 412198. 3911.35  29
  -1   1  -2 387560. 2830.23   1
   1  -1  -3 214965. 2538.49  24
   1  -1  -3 207453. 2702.30   6
   1  -1  -3 212054. 2088.99  20
  -1  -1   3 217844. 2177.37  20
   1   1   3 214979. 2235.37  22
  -1  -1   3 217002. 1869.86  21
  -1   1  -3 216511. 2198.19  20
   1   1   3 218022. 1983.61  20
   1  -1  -3 211667. 2791.78   5
   1  -1  -3 215093. 1939.65   7
  -1  -1   3 225639. 3088.04   8
  -1   1  -3 212268. 2025.93   1
  -1   1  -3 215878. 2858.97  29
  -1  -1   3 215026. 3053.01  26
   1   1   4 35692.7 805.659  20
  -1   1  -4 36948.1 981.119  25
  -1  -1   4 35863.0 1302.32   8
  -1  -1   4 35688.5 1317.72  26
  -1  -1   4 36374.6 785.180  21
   1   1   4 38018.4 947.857  28
  -1   1  -4 34775.6 916.581  20
   1  -1  -4 37604.7 880.053  20
  -1  -1   4 35481.7 916.573  20
   1  -1  -4 33649.6 1146.61   6
   1  -1  -4 35888.6 855.055   7
   1  -1  -4 35676.0 1195.58   5
  -1   1  -4 36837.1 796.987   1
   1   1   4 37413.4 983.511  22
  -1   1  -4 40091.2 1264.38  29
   1  -1  -4 36127.1 1091.83  24
   1   1   5 104934. 1606.49  27
  -1   1  -5 103912. 2090.28  29
   1  -1  -5 103401. 1896.43  24
   1   1   5 100985. 1685.55  22
  -1   1  -5 100804. 1695.88  25
   1  -1  -5 104235. 1322.80   3
  -1  -1   5 104785. 1613.85  20
   1  -1  -5 100757. 1440.00  20
  -1   1  -5 103407. 1237.76   1
   1   1   5 105926. 1396.42  20
  -1   1  -5 104543. 1622.29  20
   1  -1  -5 99920.2 1505.20   7
  -1  -1   5 98692.2 2204.77   8
  -1  -1   5 100691. 1311.88  21
  -1  -1   5 104938. 2329.88  26
   1   1   5 103519. 1692.97  28
  -1  -1   6 7407.26 700.202  26
   1   1   6 7987.71 512.820  27
   1  -1  -6 7406.05 565.515  24
   1   1   6 7757.96 511.918  22
  -1  -1   6 6964.44 358.142  21
   1  -1  -6 7710.50 409.961   3
   1   1   6 7879.88 395.077  20
   1  -1  -6 7662.33 408.643  20
  -1  -1   6 7349.38 459.924  20
  -1  -1   6 7371.04 675.878   8
  -1   1  -6 6404.36 587.540  29
  -1   1  -6 7767.93 462.347  20
   1  -1  -6 7896.46 414.441  25
   1  -1  -6 7417.82 453.814   7
  -1   1  -6 7494.85 311.038   1
  -1   1  -6 6639.68 482.822  25
   1   1   6 7763.09 523.863  28
  -1  -1   7 8.05363 269.506  26
   1  -1  -7 51.6848 192.335  24
  -1   1  -7 57.3427 147.312  25
   1  -1  -7 237.044 150.786   7
   1  -1  -7 265.957 137.760   3
  -1  -1   7 235.580 106.015  21
   1   1   7 299.677 111.675  20
   1  -1  -7 166.889 99.1916  20
   1  -1  -7 4.03460 259.859  29
   1   1   7 160.779 177.202  22
  -1   1  -7 42.0712 202.944  29
  -1  -1   7 814.450 330.981   8
  -1  -1   7 10.9704 90.6618   2
   1   1   7 358.836 190.057  27
   1   1   7 314.529 209.719  28
   1  -1  -7 126.125 126.392  25
  -1  -1   8 6540.29 730.974  26
  -1   1  -8 7285.16 534.566  25
   1  -1  -8 7228.36 747.168  29
   1  -1  -8 7711.97 474.333   3
  -1  -1   8 7261.17 718.954   8
   1   1   8 8324.25 582.590  27
   1  -1  -8 7819.84 450.747  25
   1  -1  -8 7757.55 527.055   7
   1  -1  -8 7257.53 595.818  24
   1   1   8 8112.01 594.295  28
   1   1   8 7854.62 548.782  22
  -1   1  -8 9359.24 726.970  29
   1   1   9 65794.3 1665.62  27
   1  -1  -9 68911.5 1768.38  24
  -1  -1   9 65020.9 2046.27   8
   1   1   9 67472.0 1591.49  22
   1  -1  -9 66010.7 1545.24   7
   1  -1  -9 68420.1 2186.66  29
  -1   1  -9 68659.4 1639.85  25
  -1  -1   9 62941.9 2110.47  26
   1   1   9 67985.1 1728.35  28
  -1   1  -9 67657.2 1940.47  29
   1  -1  -9 68370.5 1443.91   3
   1   1  10 21336.8 1015.19  27
   1  -1 -10 21125.9 1020.92  24
  -1  -1  10 21935.0 1251.23   8
   1   1  10 20465.8 928.660  22
   1  -1 -10 21224.9 1316.49  29
   1  -1 -10 22008.5 939.629   7
  -1   1 -10 21792.6 1155.27  29
  -1   1 -10 20811.2 966.484  25
  -1  -1  10 20592.7 1297.13  26
   1   1  10 20128.5 1017.80  28
  -1   1 -10 20818.9 777.738  21
   1  -1 -10 21488.0 864.927   3
  -1  -1  11 6277.20 746.172   8
  -1  -1  11 4830.19 713.047  26
   1  -1 -11 4876.40 553.607  24
   1  -1 -11 5564.13 493.783   3
   1   1  11 5636.34 601.765  28
   1  -1 -11 5541.70 527.112   7
   1  -1 -11 5362.49 748.912  29
  -1   1 -11 4951.22 513.216  25
   1   1  11 5784.69 597.589  27
  -1   1 -11 5670.80 430.448  21
  -1   1 -11 6224.17 663.913  29
  -1   1 -11 6008.86 481.183   3
   1  -1 -12 10041.0 719.020   7
   1  -1 -12 10581.6 783.243  24
  -1   1 -12 8563.46 703.918  25
  -1   1 -12 10253.1 656.131   7
   1   1  12 9485.46 764.728  27
  -1   1 -12 9959.84 639.133   3
  -1  -1  12 9495.40 987.864  26
   1  -1 -12 9289.36 650.425   3
  -1  -1  12 11116.9 980.840   8
   1   1  12 9038.99 783.334  28
   1  -1 -12 8916.10 977.795  29
  -1   1 -12 9472.10 855.851  29
   1  -1 -13 119836. 2674.40  24
  -1  -1  13 117148. 3404.22  26
  -1  -1  13 119252. 2297.55   4
  -1   1 -13 115097. 2497.38  25
   1   1  13 112570. 2657.95  27
   1  -1 -13 114209. 2475.79   7
  -1   1 -13 125518. 2304.63   3
  -1  -1  13 120737. 3183.23   8
   1  -1 -13 121771. 3468.91  29
   1   1  13 115592. 2741.12  28
  -1   1 -13 118082. 3054.21  29
   1  -1 -13 117808. 2358.97   3
  -1  -1  14 10916.9 1154.57  26
  -1   1 -14 11326.4 748.993   3
  -1   1 -14 12137.2 861.951  25
   1  -1 -14 10182.0 834.729  24
   1   1  14 12057.5 938.030  27
  -1  -1  14 10915.1 730.069   4
   1  -1 -14 12216.5 862.224   7
   1  -1 -14 11945.5 805.149   3
   1  -1 -14 12899.9 1244.74  29
   1   1  14 11485.2 952.851  28
   1  -1 -15 32337.1 1356.62   3
  -1  -1  15 32997.5 1943.79  26
  -1  -1  15 31563.3 1253.46   4
  -1   1 -15 33909.6 1791.43  29
  -1   1 -15 32716.0 1465.29  25
   1  -1 -15 31570.6 1422.79   7
   1   1  15 30851.6 1570.85  28
   1  -1 -15 33525.2 2045.72  29
  -1   1 -15 34671.4 1337.89   3
   1   1  15 31212.6 1562.01  27
  -1   1 -16 2314.32 364.694   3
   1   1  16 1943.35 470.750  27
   1  -1 -16 1615.57 403.000   7
   1  -1 -16 1923.57 384.699   3
  -1   1 -16 2209.48 437.291  25
  -1  -1  16 2262.12 634.653  26
   1   1  16 2676.56 545.431  28
   1  -1 -16 2278.54 626.360  29
   1  -1 -17 31748.1 1444.76   3
  -1  -1  17 33009.5 2082.09  26
   1   1  17 29967.2 1646.25  27
  -1   1 -17 32233.7 1374.54   3
   1  -1 -17 32667.0 2150.61  29
   1  -1 -17 32114.3 1519.42   7
   1   1  17 31247.1 1707.81  28
  -1   1 -17 32137.1 1537.45  25
   1   1  18 28258.0 1667.62  27
  -1   1 -18 31900.9 1618.76  33
   1  -1 -18 32837.0 1456.19  13
   1   1  18 31794.2 1768.96  28
   1  -1 -18 30330.4 2026.82  30
   1  -1 -18 33219.6 1586.25   7
  -1   1 -18 32697.0 1583.30  25
  -1  -1  18 32667.9 2151.84  26
   1  -1 -18 31722.1 1487.89   3
   1  -1 -18 35168.3 2262.48  29
  -1  -1  18 29780.8 1933.34   9
   1   1  18 31971.3 1757.32  17
  -1  -1  19 7262.69 1038.04  26
   1  -1 -19 6260.78 925.102  30
   1   1  19 6184.13 767.149  12
   1  -1 -19 8197.61 742.073  13
   1  -1 -19 7286.88 735.551   3
   1  -1 -19 6869.75 750.930   7
   1   1  19 6123.28 826.211  28
  -1   1 -19 6703.96 798.822  33
   1   1  19 7565.73 915.109  17
  -1   1 -19 7109.42 800.221  25
  -1  -1  19 6761.37 979.110   9
   1   1  19 5886.03 795.123  27
   1   1  20 18777.9 1312.00  12
   1   1  20 23169.5 1576.14  27
   1  -1 -20 21660.1 1203.49  13
   1  -1 -20 22407.2 1289.40   3
   1   1  20 21606.5 1507.02  17
  -1   1 -20 22519.6 1403.60  33
  -1  -1  20 19427.8 1606.40   9
   1   1  20 20991.7 1517.78  28
   1  -1 -20 22671.4 1369.02   7
  -1   1 -20 23258.6 1387.17  25
  -1  -1  21 6403.92 932.381   9
  -1   1 -21 7322.18 810.650  33
   1  -1 -21 7201.73 724.105  13
   1   1  21 6939.48 794.267  12
   1   1  21 6510.08 877.908  17
   1   1  22 13771.6 1080.26  12
   1  -1 -22 14908.4 1011.46  13
   1   1  22 15000.4 1254.09  17
  -1   1 -22 14965.1 1142.78  33
  -1  -1  22 14039.7 1353.91   9
   1   1  23 2011.18 534.564  17
  -1   1 -23 2657.12 541.611  33
   1  -1 -23 2528.34 467.529  13
  -1  -1  23 1926.59 575.876   9
  -1  -1  24 1607.73 566.978   9
  -1   1 -24 2173.83 468.909  33
   1  -1 -24 1599.06 366.948  13
   1   1  24 1533.93 496.056  17
   1   1  25 2759.55 539.260  17
   1  -1 -25 2968.85 443.668  13
  -1   1 -25 2991.40 497.512  33
  -1  -1  25 3022.20 612.863   9
   1  -1 -26 3167.43 429.752  13
  -1   1 -26 3647.63 500.695  33
  -1  -1  26 2720.12 552.303   9
   1   1  26 2645.89 490.016  17
  -1  -1  27 3623.56 544.136   9
   1   1  27 3632.67 489.368  17
  -1   1 -27 4217.05 469.085  33
  -1  -1  27 3911.28 461.193  14
  -1  -1  28 367.104 216.266   9
   1   1  28 947.413 250.878  17
  -1  -1  28 310.993 166.875  14
  -1   1 -28 780.102 220.143  33
   1  -2  27 938.013 217.155  14
  -1   2  27 921.317 337.733   9
   1  -2  27 1243.48 318.998  17
   1   2 -27 1075.18 257.223  33
  -1  -2 -27 1503.59 401.508  30
  -1   2  26 1.28788 296.221   9
   1  -2  26 80.7923 158.689  14
   1   2 -26-111.110 178.643  33
   1  -2  26-75.4102 236.038  17
  -1  -2 -26-467.988 330.911  30
  -1   2  25 2411.50 588.376   9
  -1  -2 -25 2594.73 623.982  30
   1  -2  25 1943.84 425.928  17
   1   2 -25 2176.14 402.668  33
  -1  -2 -25 2683.43 387.864  33
   1  -2  25 2520.01 411.168  14
   1  -2  24 599.304 310.664  14
   1  -2  24-16.9119 315.804  17
  -1  -2 -24-25.0362 205.638  33
   1   2 -24 311.323 251.402  33
  -1  -2 -24 321.514 366.833  30
  -1   2  24 169.214 387.256   9
   1   2 -23 8964.19 856.693  33
  -1  -2 -23 9904.43 834.449  33
   1  -2  23 8884.37 825.258  14
  -1  -2 -23 9998.91 1179.54  30
   1  -2  23 11962.1 1084.07  17
  -1   2  23 7452.94 1010.58   9
   1  -2  22 1989.42 459.787  14
   1   2 -22 2202.87 482.930  33
  -1  -2 -22 2509.42 727.716  30
   1  -2  22 2126.33 541.675  17
  -1   2  22 1937.16 572.549   9
  -1  -2 -22 1400.84 382.283  33
  -1  -2 -21 6698.32 1036.96  30
   1  -2  21 5130.40 672.952  14
  -1  -2 -21 5962.42 698.187  33
   1   2 -21 6163.20 792.916  33
   1  -2  21 6506.57 866.126  17
  -1   2  21 5559.83 928.517   9
   1  -2  20 32335.7 1636.20  14
   1   2 -20 31611.8 1662.37  33
   1  -2  20 29096.8 1702.92  12
   1  -2  20 33597.2 1872.89  17
  -1  -2 -20 33886.9 2211.87  30
  -1  -2 -20 32042.3 1595.70  33
   1   2 -19 6768.70 787.540  25
   1   2 -19 6412.89 727.684   3
  -1  -2 -19 7282.80 1085.04  29
   1  -2  19 6897.54 802.387  14
  -1  -2 -19 7470.38 791.036  33
   1  -2  19 5676.64 800.039  27
   1  -2  19 6899.59 891.462  12
   1  -2  19 6146.90 854.992  17
   1   2 -19 7607.60 818.894  32
  -1  -2 -19 6395.32 1044.56  30
   1   2 -19 7255.07 811.228   7
   1   2 -19 7767.25 855.406  33
   1  -2  19 6991.93 983.641   6
  -1  -2 -19 6293.31 641.819   3
   1  -2  19 7753.89 952.170  28
  -1   2  19 6306.08 1100.90  26
   1  -2  18 4507.07 727.611  27
   1  -2  18 4438.42 621.182  14
  -1   2  18 4799.38 928.141  26
  -1  -2 -18 5770.27 974.028  29
   1   2 -18 5025.73 696.621  33
  -1  -2 -18 5955.37 857.802  31
  -1   2  18 4230.39 812.522   8
   1   2 -18 5010.86 676.736   7
  -1  -2 -18 4601.39 646.224  33
  -1  -2 -18 6524.86 1000.86  30
   1  -2  18 5157.83 823.842   6
   1  -2  18 6165.84 808.298  17
   1   2 -18 5197.09 669.814  32
  -1  -2 -18 4723.16 574.374   3
   1   2 -18 4608.90 629.470   3
   1  -2  18 4516.86 721.463  12
   1   2 -18 5059.86 677.439  25
   1  -2  18 5289.37 790.881  28
   1  -2  17 25070.9 1581.02  27
  -1   2  17 24311.0 1895.15  26
  -1  -2 -17 24707.3 1225.35   3
   1   2 -17 23072.8 1345.96   7
   1   2 -17 23783.8 1413.31  25
   1  -2  17 27369.5 1793.25   6
   1  -2  17 25240.2 1609.35  28
   1   2 -17 21413.0 1260.56   3
  -1  -2 -17 25741.7 1902.90  29
  -1   2  17 24134.2 1787.24   8
  -1   2  16 2505.77 676.614  26
   1   2 -16 2502.61 496.726  25
   1  -2  16 2044.17 491.838  28
  -1  -2 -16 1821.34 339.175   3
  -1   2  16 2666.21 628.715   8
   1   2 -16 1874.31 432.230   7
   1   2 -16 1671.74 414.479   3
   1  -2  16 3200.79 667.838   6
  -1  -2 -16 2109.99 615.822  29
   1  -2  16 2671.50 555.639  27
  -1   2  16 2792.63 509.459  27
   1  -2  15 1926.51 473.145  27
  -1   2  15 2459.68 473.211  27
   1   2 -15 1683.07 405.601  25
   1   2 -15 1606.88 397.058   7
  -1   2  15 1637.16 493.613   8
  -1  -2 -15 1426.73 475.129  29
   1  -2  15 1852.48 489.009   6
   1  -2  15 1780.69 469.374  28
  -1  -2 -15 1725.06 309.675   3
   1   2 -14 3622.61 531.928  25
   1  -2  14 3430.47 619.822   6
  -1   2  14 2285.83 580.913   8
   1   2 -14 2850.37 500.643   7
  -1  -2 -14 3707.31 453.968   3
   1  -2  14 3572.99 597.917  27
  -1  -2 -14 4291.62 748.439  29
  -1   2  14 3958.82 557.962  27
   1  -2  14 4499.34 687.142  28
   1  -2  13 10056.2 692.967   4
  -1   2  13 13217.8 903.009  27
  -1  -2 -13 12212.1 767.081   3
  -1   2  13 12402.3 1158.14   8
   1   2 -13 10752.5 829.823   7
   1  -2  13 12158.6 1080.23   6
   1   2 -13 13198.6 955.808  25
   1  -2  13 12639.7 1001.71  28
   1  -2  13 12295.1 979.439  27
  -1  -2 -13 11778.4 1165.33  29
   1  -2  12 8372.82 786.086  27
   1  -2  12 8929.16 818.875  28
  -1  -2 -12 7533.20 932.834  29
  -1  -2 -12 8563.10 609.705   3
   1   2 -12 7187.62 673.043   7
   1   2 -12 8939.01 758.637  25
   1  -2  12 7935.64 840.840   6
   1  -2  12 8405.78 633.897   4
  -1   2  12 7249.95 660.985  27
  -1   2  11 13503.3 840.848  27
   1   2 -11 12418.1 860.594  25
  -1  -2 -11 13247.7 1040.77  26
   1  -2  11 12694.2 937.192  28
   1   2 -11 12740.5 697.304  22
  -1  -2 -11 11093.5 1054.70  29
  -1  -2 -11 12791.5 723.730   3
   1  -2  11 14005.3 784.532   4
   1  -2  11 12715.2 1003.97   6
   1  -2  11 12345.6 913.277  27
   1   2 -11 12576.3 811.644   7
   1   2 -10 19917.5 1044.64  25
  -1  -2 -10 21083.2 867.818   3
  -1  -2 -10 21436.7 1150.09   8
  -1  -2 -10 20651.7 1218.51  26
   1  -2  10 20791.2 1238.63   6
   1  -2  10 21422.2 940.975   4
   1  -2  10 20593.5 1115.89  27
  -1   2  10 19252.2 937.228  27
  -1  -2 -10 19064.6 1283.01  29
   1   2 -10 20627.5 834.251  22
   1  -2  10 19840.1 1105.53  28
  -1   2   9 32698.5 1153.90  27
  -1  -2  -9 33275.1 1449.81  26
   1   2  -9 32912.7 1255.49  25
   1   2  -9 32006.0 1018.76  22
  -1  -2  -9 32758.3 1586.68  29
   1  -2   9 30705.4 1303.11  27
   1  -2   9 33093.8 1132.30   4
  -1  -2  -9 35663.1 1434.65   8
  -1  -2  -9 32782.0 1030.48   3
   1  -2   9 32168.0 1458.47   6
   1  -2   9 32635.6 1347.44  28
   1   2  -8 121831. 2315.41  25
   1   2  -8 118948. 1908.87  22
  -1  -2  -8 118414. 2550.56   8
  -1  -2  -8 120481. 1850.71   3
  -1  -2  -8 120828. 1698.02  21
  -1   2   8 124425. 2110.11  27
  -1  -2  -8 119467. 2642.39  26
   1  -2   8 121803. 2105.44   4
  -1  -2  -8 118560. 2854.97  29
   1  -2   8 121492. 2432.07  27
   1  -2   8 127021. 2766.20   6
   1  -2   8 115760. 2390.91  28
  -1  -2  -7 8534.78 463.174  21
   1   2  -7 7799.30 496.342  22
  -1   2   7 8714.95 554.131  27
  -1  -2  -7 7637.75 669.948   8
  -1  -2  -7 7672.84 708.691  26
   1  -2   7 8238.91 721.759   6
   1  -2   7 8183.48 543.202   4
   1  -2   7 8077.50 624.698  27
  -1  -2  -7 8581.26 482.909   3
   1   2  -7 7791.25 593.054  25
  -1  -2  -7 7916.00 764.142  29
   1  -2   7 8309.51 639.486  28
  -1  -2  -6 47199.2 1545.93   8
   1   2  -6 50026.2 1391.84  25
  -1  -2  -6 45184.9 1556.76  26
  -1  -2  -6 48166.0 1072.86   3
  -1  -2  -6 47108.6 1060.37  21
  -1  -2  -6 50397.0 1704.99  29
  -1   2   6 51397.7 1232.12  27
   1  -2   6 48807.2 1413.08  28
   1  -2   6 49575.2 1420.43  27
   1  -2   6 48471.8 1265.77   4
   1  -2   6 50481.2 1639.76   6
   1   2  -6 48362.3 1166.68  22
  -1  -2  -5 24812.8 1111.71   8
  -1   2   5 25263.2 828.294  27
   1   2  -5 24336.0 940.117  25
  -1  -2  -5 23693.2 1112.48  26
  -1  -2  -5 22970.0 744.605  21
  -1   2   5 24752.5 700.023  20
  -1  -2  -5 23630.3 647.621  20
   1  -2   5 23989.5 1109.81   6
   1   2  -5 23861.0 898.015   5
   1  -2   5 24343.0 955.098  27
   1  -2   5 23881.4 960.745  28
  -1  -2  -5 23840.1 1156.68  29
   1   2  -5 23669.0 797.894  22
   1  -2   5 23339.1 873.079   4
  -1  -2  -5 24456.7 730.493   3
  -1   2   5 26362.6 752.345  28
  -1   2   4 8077.34 450.320  27
   1   2  -4 7822.75 541.561   5
   1   2  -4 7741.22 469.785  22
  -1   2   4 8566.46 411.445  28
   1  -2   4 8056.33 512.601   4
  -1  -2  -4 7427.19 636.035  26
  -1  -2  -4 7705.60 437.989  21
  -1   2   4 7752.69 407.987  20
  -1  -2  -4 7925.16 391.771  20
   1   2  -4 8104.40 552.572  25
   1  -2   4 6835.91 516.408  28
   1  -2   4 7008.76 523.272  27
  -1  -2  -4 7182.37 656.953   8
  -1  -2  -4 7192.60 664.868  29
  -1  -2  -4 7802.83 419.174   3
   1  -2   4 8021.75 646.615   6
   1  -2   3 1939.52 283.398  27
  -1  -2  -3 1699.52 392.380   8
   1   2  -3 2321.03 279.547  22
   1   2  -3 2139.65 301.439  25
  -1  -2  -3 2115.49 251.378  21
  -1  -2  -3 2031.61 220.334   3
  -1   2   3 2516.08 243.594  20
  -1  -2  -3 2153.54 222.668  20
   1  -2   3 2599.62 215.003   3
  -1  -2  -3 1432.56 359.293  29
   1  -2   3 2196.79 286.818   4
   1  -2   3 2617.87 390.197   6
   1  -2   3 2155.74 295.939  28
  -1  -2  -3 1984.78 383.414  26
   1   2  -3 2795.95 364.767   5
   1   2  -2 52824.7 1401.82   5
  -1  -2  -2 49990.4 1582.30   8
   1   2  -2 52955.6 1244.09  25
  -1   2   2 57560.0 1309.09   1
  -1   2   2 55964.5 1468.44   2
  -1  -2  -2 53354.8 974.882   3
   1   2  -2 51984.4 1165.44  22
  -1  -2  -2 51122.2 1081.45  21
  -1   2   2 53360.8 1095.09  20
   1   2  -2 54034.8 1187.96  20
  -1  -2  -2 53170.9 1055.92  20
  -1  -2  -2 50487.9 1515.70  26
   1  -2   2 53821.2 1248.86  27
   1  -2   2 57512.0 923.526   3
  -1  -2  -2 51133.5 1497.69  29
   1  -2   2 54815.5 1561.48   6
   1   2  -1 152557. 2457.48   5
  -1  -2  -1 151744. 2601.32  26
  -1   2   1 163205. 2150.58   1
  -1   2   1 159489. 2399.56   2
  -1  -2  -1 153034. 1617.70   3
   1   2  -1 153034. 1980.27  22
   1   2  -1 160893. 1979.64  20
  -1  -2  -1 148906. 1828.23  21
  -1   2   1 164085. 1956.45  20
   1  -2   1 154271. 2585.67   6
  -1  -2  -1 156811. 1864.52  20
  -1  -2  -1 152959. 2716.85   8
  -1  -2  -1 152244. 2445.67  29
   1   2  -1 157120. 2088.43  25
  -1  -2   0 22889.2 1049.11  26
  -1  -2   0 22529.3 919.335  29
   1   2   0 24565.6 813.658  25
  -1  -2   0 22613.8 1072.93   8
  -1  -2   0 22513.4 729.382  21
  -1   2   0 21379.9 725.449  20
   1   2   0 23707.6 746.769  20
  -1  -2   0 24037.0 758.333  20
   1   2   0 23199.2 774.622  22
  -1  -2   0 23114.8 636.342   3
  -1   2   0 22315.5 884.510   2
   1   2   0 22736.4 696.366  28
   1  -2   0 21207.9 996.379   6
  -1   2   0 23099.1 797.628   1
  -1   2   0 21954.2 663.092  25
  -1   2  -1 159068. 2023.42   1
  -1   2  -1 146776. 2419.20  29
   1   2   1 157748. 1863.10  28
  -1   2  -1 160594. 1858.17  25
   1  -2  -1 141879. 2357.96  24
   1  -2  -1 159466. 1537.26   3
   1   2   1 154091. 1996.18  22
  -1  -2   1 152080. 2652.03  26
  -1  -2   1 153323. 1850.01  21
  -1  -2   1 157811. 1660.33   3
  -1   2  -1 156061. 1998.92  20
   1   2   1 160918. 1870.94  20
  -1  -2   1 159529. 1987.92  20
  -1   2  -1 163051. 2326.55   2
  -1  -2   1 152112. 2748.39   8
   1  -2  -1 146828. 2583.20   6
   1   2   1 155132. 2029.49  25
  -1   2  -2 54411.4 1454.85  29
  -1   2  -2 56618.2 1165.61  25
  -1  -2   2 51887.7 1636.00   8
   1  -2  -2 51374.6 1442.03  24
   1   2   2 51041.3 1013.09  27
   1  -2  -2 53303.0 1592.59   6
  -1  -2   2 49956.3 1075.66  21
   1  -2  -2 55052.6 933.058   3
   1  -2  -2 56447.5 1184.39  20
  -1   2  -2 55991.7 1230.13  20
   1   2   2 52997.7 1052.26  20
  -1  -2   2 54931.9 1212.48  20
  -1   2  -2 54111.6 1142.42   1
  -1  -2   2 52016.2 992.660   3
  -1   2  -2 55684.9 1315.34   2
  -1  -2   2 52020.3 1582.49  26
   1   2   2 53351.6 1191.25  22
   1   2   2 51988.9 1143.70  28
  -1  -2   3 2486.87 241.926   3
   1  -2  -3 2052.57 387.287   6
  -1   2  -3 2144.26 281.068   2
  -1  -2   3 2228.99 407.119  26
  -1   2  -3 2437.67 275.153  25
   1   2   3 2436.72 292.701  22
   1  -2  -3 2228.77 211.063   3
  -1  -2   3 1971.29 423.908   8
  -1  -2   3 2153.87 247.589  21
   1  -2  -3 2664.34 268.552  20
   1   2   3 2500.55 237.153  20
   1   2   3 1790.94 272.461  28
  -1   2  -3 2443.40 252.247   1
   1   2   3 2152.70 257.454  27
   1  -2  -3 2229.58 379.238  24
  -1   2  -3 2231.56 316.027  29
  -1  -2   4 7670.75 678.716  26
  -1  -2   4 7819.35 440.350  21
  -1  -2   4 7395.14 426.381   3
   1   2   4 7475.63 461.602  27
  -1   2  -4 7845.87 478.165   2
  -1  -2   4 7805.27 715.215   8
   1   2   4 7591.61 504.364  22
   1  -2  -4 6997.89 588.714  24
   1  -2  -4 7916.46 437.256  20
   1   2   4 8221.73 404.554  20
  -1   2  -4 7602.97 409.263   1
   1  -2  -4 7962.99 480.622   7
  -1   2  -4 8054.30 496.150  25
   1  -2  -4 7198.38 647.730   6
  -1   2  -4 8088.98 581.829  29
   1  -2  -4 7898.39 395.931   3
   1   2   4 8478.54 517.609  28
   1   2   5 23058.3 841.389  27
  -1  -2   5 25118.2 776.828  21
   1  -2  -5 24413.4 734.177   3
  -1   2  -5 23622.7 683.613   1
   1   2   5 23066.3 871.714  22
   1  -2  -5 25275.6 1046.12  24
  -1   2  -5 24067.6 790.970   2
  -1  -2   5 24074.2 1187.92   8
   1   2   5 24486.7 901.809  28
   1  -2  -5 24399.3 750.146  20
   1  -2  -5 25568.0 879.014   7
  -1  -2   5 24850.8 1194.00  26
  -1   2  -5 24283.0 889.216  25
  -1   2  -5 23989.7 987.620  29
   1  -2  -5 23109.3 1144.13   6
   1   2   6 50007.3 1278.19  27
  -1  -2   6 51001.4 1752.68   8
  -1   2  -6 51243.5 1464.84  29
   1  -2  -6 47996.0 1080.77   3
  -1  -2   6 49897.7 1091.01  21
   1   2   6 50677.0 1305.21  22
   1  -2  -6 49738.3 1473.39  24
  -1  -2   6 47018.2 1691.86  26
   1   2   6 48325.9 1317.93  28
   1  -2  -6 50614.8 1245.18   7
  -1   2  -6 49228.3 1301.31  25
   1  -2  -6 44203.2 1615.94   6
  -1   2  -7 8179.59 625.845  29
  -1  -2   7 8060.14 752.547   8
   1  -2  -7 8885.39 502.564   3
   1  -2  -7 7458.40 627.078  24
  -1  -2   7 8113.37 773.797  26
   1   2   7 7966.15 562.866  22
  -1  -2   7 8604.78 468.731  21
   1  -2  -7 8715.78 565.317   7
  -1   2  -7 8247.91 578.286  25
   1   2   7 9254.61 627.876  28
   1  -2  -7 8504.48 815.531  29
   1   2   7 8641.43 584.542  27
   1   2   8 118670. 2218.20  27
  -1   2  -8 120129. 2235.48  25
   1   2   8 121277. 2320.55  28
   1   2   8 114613. 2094.35  22
   1  -2  -8 121007. 2440.50  24
  -1  -2   8 126877. 1783.80  21
   1  -2  -8 124132. 2151.00   7
   1  -2  -8 120311. 1897.98   3
  -1  -2   8 123218. 2910.72  26
   1  -2  -8 122173. 3040.00  29
  -1  -2   8 122973. 2842.77   8
   1   2   9 34184.5 1257.84  27
  -1  -2   9 36287.8 970.897  21
   1  -2  -9 31609.1 1037.68   3
  -1   2  -9 32079.2 1205.17  25
  -1  -2   9 33600.1 1525.98   8
   1  -2  -9 31816.9 1270.38  24
   1   2   9 33770.8 1185.05  22
   1  -2  -9 33832.9 1174.74   7
   1  -2  -9 31732.5 1643.46  29
   1   2   9 34352.4 1307.42  28
  -1  -2   9 32193.0 1561.72  26
   1   2  10 20394.0 1046.85  27
   1  -2 -10 20193.4 875.709   3
   1   2  10 18962.4 925.430  22
   1   2  10 20268.3 1076.04  28
  -1  -2  10 21841.7 1275.76   8
   1  -2 -10 21071.4 1073.72  24
  -1   2 -10 19295.6 975.119  25
  -1  -2  10 20312.3 960.781   4
   1  -2 -10 19988.8 956.064   7
  -1  -2  10 20124.5 1284.92  26
   1  -2 -10 19262.2 1356.64  29
   1   2  11 11693.1 768.658  22
  -1  -2  11 12211.9 1057.24  26
   1  -2 -11 12974.6 739.646   3
   1  -2 -11 10921.8 826.949  24
  -1  -2  11 12988.2 794.151   4
  -1  -2  11 12953.9 1012.09   8
   1  -2 -11 7717.41 617.204   7
   1   2  11 12806.7 871.838  27
  -1   2 -11 13109.3 851.938  25
   1  -2 -11 9449.90 1053.39  29
   1   2  11 11553.0 876.162  28
   1   2  12 7541.98 630.653  22
   1  -2 -12 7253.12 939.311  29
   1  -2 -12 7343.42 596.397   3
   1  -2 -12 7579.15 701.638  24
  -1  -2  12 7935.75 643.493   4
   1  -2 -12 6987.62 631.062   7
  -1   2 -12 8253.35 709.703  25
   1   2  12 7097.83 689.442  27
  -1  -2  12 6903.88 874.337  26
   1   2  12 8790.50 784.134  28
   1   2  13 11704.5 917.540  27
  -1   2 -13 11934.6 895.710  25
   1  -2 -13 11608.0 766.481   3
  -1  -2  13 11898.6 1131.83  26
   1  -2 -13 12147.1 859.314   7
  -1  -2  13 12150.3 811.583   4
   1  -2 -13 11958.5 1230.85  29
   1   2  13 12059.9 958.369  28
   1   2  14 3981.43 574.297  27
  -1  -2  14 3530.21 475.606   4
  -1  -2  14 4635.55 768.975  26
  -1   2 -14 4286.20 553.655  25
   1   2  14 3719.99 588.920  28
   1  -2 -14 3846.93 485.093   3
   1  -2 -14 3616.57 519.078   7
   1  -2 -14 3664.60 739.686  29
  -1   2 -14 4113.80 507.923   3
   1   2  15 1417.73 396.961  27
   1  -2 -15 2061.85 440.791   7
  -1  -2  15 2109.45 526.047  26
   1  -2 -15 1825.81 378.689   3
  -1   2 -15 2591.55 413.441   3
  -1   2 -15 2523.19 446.074  25
  -1  -2  15 1752.75 344.112   4
   1  -2 -15 2467.63 713.777  29
   1   2  15 1843.47 439.469  28
   1   2  16 1951.49 458.986  27
  -1   2 -16 2322.05 456.527  25
   1  -2 -16 1848.82 390.772   3
  -1  -2  16 2845.40 687.554  26
   1  -2 -16 2053.24 413.549   7
   1  -2 -16 1834.23 638.236  29
  -1  -2  16 2351.78 392.655   4
   1   2  16 2020.76 478.851  28
   1   2  17 24690.9 1522.87  27
   1  -2 -17 26003.6 1321.35   3
   1  -2 -17 24442.0 1946.76  29
   1  -2 -17 26727.6 1432.14   7
  -1   2 -17 25149.6 1431.19  25
   1   2  17 24338.9 1538.41  28
   1   2  18 4763.65 704.812  27
   1  -2 -18 4500.68 589.577   3
  -1   2 -18 4966.35 689.165  25
  -1   2 -18 4202.49 552.176  22
   1   2  18 4728.78 687.348  12
   1  -2 -18 5355.95 664.604   7
   1   2  18 5281.72 762.604  17
  -1   2 -18 6034.88 716.939  33
   1  -2 -18 5535.74 630.670  13
   1  -2 -18 4256.98 843.940  30
   1  -2 -18 4149.82 856.179  29
  -1  -2  18 4206.57 801.523   9
   1   2  18 5634.29 796.092  28
   1   2  19 6741.69 868.808  27
  -1   2 -19 6905.33 818.903  25
   1   2  19 7736.29 943.969  17
   1  -2 -19 6325.80 678.217  13
   1  -2 -19 7522.96 797.864   7
   1  -2 -19 6434.18 1047.76  30
  -1   2 -19 6396.97 675.486  22
  -1   2 -19 7321.82 778.305  32
   1   2  19 5626.53 821.438  28
   1  -2 -19 6950.31 723.595   3
  -1  -2  19 6083.61 917.242   9
  -1   2 -19 6443.27 782.168  33
  -1  -2  20 31781.4 2024.14   9
  -1   2 -20 32235.6 1639.02  33
   1  -2 -20 34941.5 1546.34  13
   1   2  20 32490.8 1844.29  17
   1  -2 -21 6472.61 699.085  13
  -1   2 -21 6210.21 746.194  33
  -1  -2  21 6472.82 930.434   9
   1   2  21 6218.41 843.575  17
   1  -2 -22 2094.27 429.994  13
  -1  -2  22 2968.14 685.764   9
  -1   2 -22 2998.40 511.801  33
   1   2  22 1926.58 449.148  17
  -1  -2  23 7962.18 973.641   9
   1  -2 -23 10094.9 802.692  13
  -1   2 -23 9768.11 862.628  33
   1   2  23 9512.81 978.689  17
  -1  -2  24 604.704 426.623   9
   1  -2 -24 160.097 234.810  13
   1   2  24 15.3528 308.257  17
  -1  -2  24-128.032 222.213  14
  -1   2 -24 423.499 293.330  33
  -1   2 -25 3190.04 474.762  33
  -1  -2  25 1718.20 473.712   9
   1  -2 -25 2593.20 381.416  13
  -1  -2  25 2661.97 442.730  14
   1   2  25 2296.15 471.576  17
  -1  -2  26-56.7075 298.084   9
   1  -2 -26 30.3425 176.782  13
  -1  -2  26-115.543 227.230  14
   1   2  26 360.694 259.164  17
  -1   2 -26 127.991 179.674  33
  -1  -2  27 902.146 281.303   9
  -1  -2  27 999.198 257.109  14
  -1   2 -27 1216.91 247.749  33
   1   2  27 779.358 256.134  17
   1  -3  27 822.409 234.235  17
  -1   3  27 880.529 287.619   9
   1   3 -27 531.464 185.503  33
  -1  -3 -27 181.022 220.206  30
  -1   3  26 335.509 244.864   9
   1  -3  26 247.859 153.575  14
   1  -3  26-323.477 258.349  17
   1   3 -26 181.070 175.301  33
  -1  -3 -26 658.430 401.575  30
  -1   3  25 3286.83 586.417   9
   1   3 -25 3940.49 490.371  33
   1  -3  25 3338.02 430.476  14
   1  -3  25 4121.00 549.786  17
  -1  -3 -25 4288.61 704.385  30
   1  -3  24 11273.6 841.872  14
   1  -3  24 11182.4 924.357  17
   1   3 -24 13166.2 910.140  33
  -1  -3 -24 13670.9 1268.63  30
  -1   3  24 11109.2 1037.23   9
   1  -3  23 8106.93 849.251  17
   1   3 -23 9073.41 809.010  33
   1  -3  23 7044.06 715.250  14
   1   3 -23 9247.40 775.348  32
  -1   3  23 7957.11 978.151   9
  -1  -3 -23 7982.55 1092.73  30
   1  -3  22 8608.95 833.590  14
   1   3 -22 9761.98 885.673  33
  -1  -3 -22 9421.18 1197.23  30
   1  -3  22 9352.65 948.808  17
   1   3 -22 10288.7 883.879  32
  -1   3  22 8723.74 1050.44   9
   1   3 -21 4353.04 610.854  32
   1   3 -21 4894.01 662.692  33
  -1  -3 -21 4799.78 903.608  30
   1  -3  21 4215.03 694.168  17
   1  -3  21 3444.54 583.912  14
   1   3 -20 19196.4 1295.57  33
   1  -3  20 19354.3 1275.73  14
   1   3 -20 20046.0 1304.26  32
  -1  -3 -20 16261.1 1568.18  30
   1  -3  20 21014.9 1472.29  17
   1  -3  19 31205.3 1638.71  14
  -1  -3 -19 38752.1 2115.44  31
   1   3 -19 33733.6 1693.40  33
   1   3 -19 34993.5 1749.08  32
  -1  -3 -19 30773.2 2140.50  30
   1  -3  19 34172.3 1889.51  17
  -1   3  18 23821.9 1944.96  26
  -1   3  18 22705.0 1867.67   8
   1   3 -18 26547.5 1575.01  25
  -1  -3 -18 24443.4 1900.26  30
   1  -3  18 27325.4 1723.53  27
  -1  -3 -18 23946.7 1264.81   3
   1   3 -18 23878.9 1414.62   7
   1  -3  18 25726.1 1787.02   6
  -1  -3 -18 24959.6 1700.23  31
  -1  -3 -18 24716.2 1971.03  29
   1  -3  18 24640.7 1609.70  17
   1  -3  18 23766.0 1428.12  14
   1   3 -18 24239.3 1446.80  33
   1   3 -18 26868.7 1541.80  32
   1   3 -18 23710.7 1385.43   3
   1  -3  18 28684.6 1798.50  28
   1  -3  17 7902.53 931.655  27
  -1   3  17 9149.11 1231.36  26
   1   3 -17 9586.19 945.953  25
  -1  -3 -17 7921.01 1122.12  30
  -1  -3 -17 9807.47 813.163   3
  -1   3  17 6000.55 984.368   8
   1   3 -17 8521.58 870.001  33
   1   3 -17 8560.74 850.585   7
   1  -3  17 8065.05 852.073  14
   1   3 -17 9119.73 905.596  32
  -1  -3 -17 9483.86 1101.73  31
   1  -3  17 9823.94 1120.55   6
  -1  -3 -17 8815.50 1192.46  29
   1  -3  17 8734.37 989.121  17
   1  -3  17 9125.14 1031.06  28
  -1   3  16 2236.08 502.305  27
   1   3 -16 1576.13 418.620  25
   1  -3  16 2072.03 532.956  27
  -1   3  16 1035.67 534.592   8
  -1  -3 -16 1864.39 384.391   3
   1   3 -16 1613.51 428.575   7
   1  -3  16 1861.74 509.864   6
   1   3 -16 1556.19 390.711  33
  -1  -3 -16 1474.37 477.475  30
   1   3 -16 1844.07 436.266  32
  -1  -3 -16 1975.34 558.623  31
   1  -3  16 2234.44 529.242  17
   1  -3  16 1745.21 411.848  14
  -1  -3 -16 1432.73 564.994  29
   1  -3  16 2560.87 571.868  28
  -1   3  15 16780.1 1180.75  27
  -1  -3 -15 16544.9 993.570   3
   1  -3  15 18177.9 1452.19   6
   1   3 -15 15046.5 1074.81   7
   1  -3  15 16612.8 1301.52  28
   1  -3  15 16689.0 1045.50   4
  -1   3  15 14705.8 1380.91   8
   1  -3  15 16883.7 1300.51  27
  -1  -3 -15 16695.5 1531.16  29
   1   3 -15 18098.3 1227.88  25
   1  -3  14 4511.94 689.884  28
   1  -3  14 4793.00 701.019  27
   1   3 -14 3975.21 591.291   7
   1   3 -14 4978.11 663.300  25
  -1   3  14 5190.73 653.756  27
   1  -3  14 4812.67 752.255   6
   1  -3  14 4688.07 557.938   4
  -1  -3 -14 4770.66 530.710   3
  -1  -3 -14 5019.41 858.601  29
   1  -3  13 11233.1 1014.94  27
  -1  -3 -13 12018.9 802.711   3
   1   3 -13 11964.1 797.463  22
   1   3 -13 10991.9 923.967  25
  -1   3  13 11169.8 903.246  27
   1  -3  13 11296.6 837.947   4
  -1  -3 -13 11023.4 1172.36  29
   1  -3  13 12142.0 1058.18  28
   1  -3  13 10047.3 1026.97   6
   1  -3  12 6761.77 771.646  27
  -1   3  12 7068.36 705.800  27
  -1  -3 -12 8513.09 901.113   8
  -1  -3 -12 7178.67 615.897   3
   1   3 -12 7288.45 618.168  22
   1   3 -12 7087.21 732.073  25
   1  -3  12 7000.53 655.411   4
  -1  -3 -12 6853.52 918.045  29
   1  -3  12 6342.69 817.042   6
   1  -3  12 7532.61 825.563  28
   1  -3  11 35693.3 1650.57  27
  -1   3  11 34239.2 1425.83  27
  -1  -3 -11 35597.3 1759.08   8
   1   3 -11 34101.2 1487.37  25
  -1  -3 -11 32799.5 1227.13   3
   1   3 -11 32690.4 1260.18  22
   1  -3  11 34099.0 1753.42   6
  -1  -3 -11 34048.7 1753.74  26
   1  -3  11 35425.5 1400.84   4
  -1  -3 -11 30037.4 1784.21  29
   1  -3  11 35225.7 1637.95  28
  -1   3  10 32873.7 1357.11  27
  -1  -3 -10 38509.8 1801.97  26
  -1  -3 -10 34545.6 1208.81   3
   1   3 -10 33086.2 1246.91  22
   1   3 -10 38716.0 1520.42  25
  -1  -3 -10 37508.2 1752.64   8
   1  -3  10 35155.4 1361.66   4
   1  -3  10 34432.5 1708.87   6
   1  -3  10 33435.5 1543.52  27
   1  -3  10 34404.7 1571.19  28
   1  -3   9 35797.7 1545.88  27
  -1   3   9 34975.8 1327.74  27
  -1  -3  -9 31155.2 1602.63  26
   1   3  -9 35307.5 1406.85  25
  -1  -3  -9 35792.5 1183.13   3
  -1  -3  -9 35930.9 1694.21   8
   1  -3   9 34522.2 1308.66   4
   1  -3   9 31571.5 1568.30   6
  -1  -3  -9 33099.3 1711.07  29
   1  -3   9 36227.0 1546.90  28
   1   3  -9 34496.7 1216.49  22
   1  -3   8 220.550 208.107   4
  -1  -3  -8 307.109 296.144  29
  -1   3   8 351.129 216.319  27
   1   3  -8 70.2718 186.055  25
  -1  -3  -8 58.1044 276.201   8
   1   3  -8 70.9722 150.061  22
  -1  -3  -8 193.671 158.928   3
   1  -3   8 192.595 243.327  27
   1  -3   8 137.433 208.293  28
   1  -3   8 186.440 248.621   6
  -1  -3  -8 247.483 340.384  26
  -1   3   7 13441.9 782.065  27
   1   3  -7 13204.3 819.027  25
   1   3  -7 11994.7 704.726  22
  -1  -3  -7 13185.7 681.022   3
   1  -3   7 14007.7 818.737   4
  -1  -3  -7 10748.9 922.500  26
   1  -3   7 13939.2 1001.34   6
   1  -3   7 13570.7 894.252  27
  -1  -3  -7 11702.5 968.215  29
  -1  -3  -7 12423.4 988.449   8
  -1  -3  -7 13427.1 644.109  21
   1  -3   7 12144.0 849.577  28
   1   3  -6 89800.8 2020.17  25
  -1  -3  -6 83387.5 2371.39  26
  -1   3   6 92833.4 1768.54  28
  -1  -3  -6 87687.1 2465.03   8
  -1   3   6 91261.6 1905.47  27
  -1  -3  -6 86299.8 1665.42   3
  -1  -3  -6 90669.0 1627.01  21
   1  -3   6 86948.3 1940.46   4
  -1  -3  -6 89788.4 2444.66  29
   1  -3   6 91818.3 2202.11  27
   1   3  -6 85405.6 1785.37  22
   1  -3   6 90581.0 2439.28   6
  -1  -3  -5 607.918 332.906  26
   1  -3   5 1519.27 230.309   3
   1   3  -5 602.703 213.181  22
  -1   3   5 950.652 228.093  28
  -1  -3  -5 1357.86 408.513   8
  -1  -3  -5 1131.81 222.261  21
   1   3  -5 1055.05 271.463  25
  -1   3   5 1062.75 261.945  27
  -1  -3  -5 1014.09 208.882   3
   1  -3   5 1171.73 287.891   4
  -1  -3  -5 469.812 298.394  29
   1  -3   5 1307.66 359.722   6
   1  -3   5 756.418 273.910  27
   1  -3   4 29848.2 1093.06   4
   1  -3   4 30992.9 904.532   3
   1   3  -4 26779.5 977.336  22
  -1  -3  -4 29267.1 1278.44  29
  -1  -3  -4 27097.0 896.281  21
  -1  -3  -4 28494.1 907.772   3
   1  -3   4 30479.4 1373.30   6
   1   3  -4 27332.8 1065.78  25
  -1  -3  -4 26370.9 1297.89  26
   1  -3   4 30317.9 1193.54  27
  -1  -3  -4 27650.7 1357.87   8
  -1   3   4 31022.6 967.529  28
   1  -3   3 21207.9 732.574   3
   1   3  -3 22415.3 998.629   5
  -1  -3  -3 19565.3 1087.19  26
   1   3  -3 21326.5 902.390  25
   1   3  -3 19913.1 840.251  22
   1  -3   3 19741.7 880.538   4
  -1  -3  -3 19218.6 758.921  21
  -1  -3  -3 20271.9 759.546   3
   1  -3   3 21111.4 1143.99   6
  -1  -3  -3 20677.3 1168.88   8
  -1  -3  -3 20390.4 1038.20  29
  -1   3   3 21178.2 792.012  28
   1  -3   3 19549.3 944.616  27
  -1  -3  -2 23320.8 1175.47  26
   1   3  -2 22465.2 893.900  22
   1   3  -2 22504.7 912.293  25
  -1  -3  -2 23098.9 1242.39   8
  -1  -3  -2 21614.0 813.340  21
  -1  -3  -2 23550.0 805.441   3
   1  -3   2 23680.5 1219.14   6
   1  -3   2 23094.6 926.407   4
   1  -3   2 25214.4 782.368   3
  -1  -3  -1 3014.70 327.431  21
   1  -3   1 2593.15 447.806   6
  -1  -3  -1 2745.38 515.467   8
  -1  -3  -1 2772.45 476.938  26
   1   3  -1 3188.86 359.437  25
  -1  -3  -1 3107.46 297.342   4
   1  -3   1 3094.28 284.810   3
  -1  -3  -1 2786.48 291.755   3
   1   3  -1 2782.35 343.746  22
  -1  -3   0 5457.94 616.969  26
   1   3   0 5205.89 439.869  25
  -1  -3   0 4517.42 615.005   8
   1   3   0 4893.75 442.137  22
   1   3   0 5103.37 430.884  28
  -1  -3   0 4704.00 378.698   4
  -1  -3   0 4643.65 393.819  21
  -1  -3   0 5088.57 388.769   3
   1  -3   0 5804.25 381.058   3
   1  -3   0 5044.02 599.830   6
  -1  -3   1 3012.13 486.533  26
  -1  -3   1 2805.98 321.392  21
  -1  -3   1 3060.04 333.972   4
   1   3   1 3068.47 361.216  22
  -1  -3   1 2133.65 464.871   8
   1  -3  -1 3407.04 502.302   6
  -1   3  -1 3153.49 299.634  22
   1  -3  -1 3174.31 294.505   3
  -1  -3   1 3004.08 314.897   3
   1   3   1 3135.61 346.034  25
   1   3   1 3342.63 376.812  28
   1   3   1 3073.92 323.581  27
  -1  -3   2 22869.6 1169.62  26
  -1  -3   2 22413.2 1226.67   8
   1   3   2 23601.9 924.000  22
   1   3   2 24018.0 875.727  27
  -1   3  -2 25238.6 831.322  22
   1   3   2 23048.9 927.183  28
  -1  -3   2 22862.1 864.372   4
  -1  -3   2 23358.4 840.832  21
   1  -3  -2 23537.0 767.418   3
   1  -3  -2 21539.9 1199.26   6
  -1  -3   2 22093.6 789.068   3
   1  -3  -3 19176.9 1155.85   6
  -1   3  -3 21642.0 814.364  25
  -1  -3   3 20917.8 853.669   4
  -1  -3   3 20910.9 811.085  21
   1   3   3 20202.4 860.939  22
  -1   3  -3 22386.9 805.732  22
   1  -3  -3 21227.3 742.909   3
  -1  -3   3 21247.9 1132.88  26
   1   3   3 20642.4 823.906  27
  -1  -3   3 20178.4 1194.45   8
   1   3   3 19269.3 863.508  28
  -1  -3   3 20246.9 779.841   3
  -1  -3   4 26789.7 1285.18  26
   1   3   4 27340.7 1008.19  22
  -1  -3   4 27197.1 920.860  21
  -1   3  -4 31782.8 1018.40  25
   1  -3  -4 29564.3 901.088   3
  -1  -3   4 26700.4 1002.27   4
   1  -3  -4 26162.7 1366.71   6
  -1  -3   4 26598.6 914.166   3
   1   3   4 28275.0 997.698  27
  -1  -3   4 26954.9 1370.63   8
   1   3   4 26416.4 1026.35  28
   1   3   5 847.210 249.742  27
  -1  -3   5 814.440 228.925   4
  -1  -3   5 426.717 339.109   8
   1   3   5 1166.04 276.878  22
  -1  -3   5 600.159 321.527  26
  -1  -3   5 808.981 208.871  21
   1  -3  -5 1130.48 209.728   3
  -1  -3   5 887.734 203.314   3
   1   3   5 726.515 250.048  28
  -1   3  -5 1158.58 251.354  25
   1  -3  -5 763.318 328.866   6
   1   3   6 88500.7 1924.06  27
  -1   3  -6 89990.5 1878.25  25
   1   3   6 85792.2 1986.23  28
  -1  -3   6 88257.7 2518.06   8
   1   3   6 89546.2 1897.85  22
   1  -3  -6 90239.1 1678.37   3
  -1  -3   6 84638.2 1891.60   4
  -1  -3   6 87685.1 1700.83  21
  -1  -3   6 90011.1 2459.62  26
   1   3   7 11964.2 752.162  27
   1   3   7 12514.3 737.837  22
   1  -3  -7 12702.4 673.487   3
  -1  -3   7 12129.4 750.010   4
  -1  -3   7 12228.5 936.886  26
  -1  -3   7 12397.0 985.187   8
   1   3   7 11756.1 785.811  28
  -1   3  -7 13425.6 774.394  25
  -1  -3   7 13065.4 673.127  21
  -1  -3   8 135.777 185.183   4
  -1  -3   8 78.4926 289.333  26
   1   3   8 647.936 248.665  22
   1  -3  -8 218.097 160.361   3
  -1  -3   8 212.592 252.372   8
  -1  -3   8 359.119 191.133  21
   1  -3  -8 235.859 203.440   7
   1  -3  -8 248.535 255.135  24
  -1   3  -8 297.199 203.222  25
   1   3   8 85.8115 203.075  27
   1   3   8 301.036 251.336  28
   1  -3  -9 35618.6 1476.73  24
   1  -3  -9 34800.8 1181.20   3
   1   3   9 36052.5 1301.52  22
  -1  -3   9 32972.6 1309.78   4
  -1  -3   9 35823.9 1145.35  21
   1  -3  -9 35437.2 1343.16   7
  -1  -3   9 34493.7 1656.83   8
   1   3   9 30769.2 1358.15  28
   1  -3  -9 33341.5 1816.31  29
  -1   3  -9 36180.2 1363.04  25
  -1  -3   9 34136.0 1641.89  26
   1   3   9 30950.6 1299.26  27
   1  -3 -10 35038.7 1238.50   3
   1   3  10 36080.3 1529.76  28
   1   3  10 35550.2 1443.17  27
  -1   3 -10 34004.0 1380.80  25
  -1  -3  10 37709.5 1751.46   8
   1   3  10 35698.1 1328.91  22
   1  -3 -10 31198.2 1408.23  24
  -1  -3  10 36410.1 1385.67   4
  -1  -3  10 36422.8 1180.15  21
   1  -3 -10 33582.4 1884.48  29
   1  -3 -10 38143.0 1415.37   7
  -1  -3  10 36839.2 1757.14  26
   1   3  11 33961.2 1486.54  27
   1  -3 -11 34789.9 1399.32   7
   1  -3 -11 33415.5 1256.45   3
  -1  -3  11 32542.2 1354.42   4
  -1   3 -11 34033.1 1278.22  23
  -1   3 -11 35814.7 1470.57  25
   1  -3 -11 30716.6 1894.87  29
   1   3  11 31313.0 1478.59  28
  -1   3 -12 6855.62 690.752  25
  -1  -3  12 7182.26 673.286   4
   1  -3 -12 6013.99 639.708   7
   1   3  12 7642.88 772.749  27
   1  -3 -12 5947.58 558.453   3
   1  -3 -12 6745.17 981.804  29
  -1   3 -12 7020.85 604.943  23
   1   3  12 7294.95 787.122  28
   1   3  13 11584.8 957.655  27
  -1   3 -13 11405.9 903.722  25
  -1   3 -13 11668.3 845.841  22
  -1  -3  13 10843.1 841.123   4
   1  -3 -13 10664.0 783.260   3
   1  -3 -13 12885.7 930.175   7
   1  -3 -13 10660.6 1236.37  29
   1   3  13 11376.1 982.813  28
   1   3  14 4037.37 622.328  27
   1   3  14 4588.08 691.027  28
  -1   3 -14 5166.84 642.406  25
   1  -3 -14 5498.41 582.585   3
  -1   3 -14 5468.32 632.864  22
  -1  -3  14 4127.32 558.362   4
   1  -3 -14 5086.49 625.077   7
   1  -3 -14 5501.11 942.875  29
   1   3  15 16062.7 1191.48  27
   1  -3 -15 17798.6 1149.05   7
  -1   3 -15 17338.3 1187.39  25
   1  -3 -15 16183.3 1017.53   3
  -1   3 -15 16869.5 1066.24  22
  -1  -3  15 17233.1 1096.01   4
   1  -3 -15 14357.6 1524.82  29
   1   3  15 15957.5 1227.36  28
  -1  -3  16 2214.51 569.619   9
   1   3  16 2151.42 499.954  27
  -1   3 -16 2436.03 499.542  25
   1  -3 -16 1680.84 405.880  13
  -1   3 -16 2095.24 398.860  22
   1  -3 -16 2156.83 413.988   3
  -1  -3  16 1842.90 379.261   4
   1  -3 -16 2300.45 477.777   7
   1   3  16 2091.33 512.372  17
   1  -3 -16 1682.73 629.572  30
   1   3  16 1721.67 500.274  28
   1   3  17 7504.05 892.775  27
   1  -3 -17 9859.30 841.774  13
  -1   3 -17 8346.54 781.454  22
   1  -3 -17 9675.63 835.533   3
  -1  -3  17 8212.62 788.329   4
   1  -3 -17 9912.22 905.625   7
   1  -3 -17 9015.46 1255.04  30
   1   3  17 9002.45 1008.34  17
  -1   3 -17 8383.05 876.249  25
  -1  -3  17 8864.87 1054.21   9
   1   3  17 7780.49 929.216  28
   1   3  18 23051.6 1536.82  27
   1  -3 -18 26416.9 1349.17  13
  -1   3 -18 27721.5 1578.20  25
  -1   3 -18 26347.9 1374.42  22
  -1   3 -18 27250.2 1510.34  32
  -1  -3  18 25287.7 1361.54   4
  -1   3 -18 24701.4 1377.39  33
   1  -3 -18 22932.2 1278.08   3
   1   3  18 23943.6 1607.07  17
  -1  -3  18 24027.0 1745.80   9
   1   3  18 20476.6 1476.53  28
   1  -3 -18 26065.0 1468.16   7
  -1  -3  19 39743.3 1772.92  14
   1  -3 -19 36496.4 1575.41  13
  -1   3 -19 36072.9 1731.55  32
   1   3  19 34255.9 1884.13  17
  -1   3 -19 34220.9 1623.19  33
  -1  -3  19 33097.9 2062.86   9
   1   3  20 18921.5 1426.30  17
  -1  -3  20 23361.7 1343.74  14
   1  -3 -20 21088.4 1207.67  13
  -1   3 -20 21642.5 1278.33  33
  -1   3 -20 19412.5 1267.61  32
  -1  -3  20 18626.4 1520.41   9
  -1  -3  21 4669.73 813.726   9
   1  -3 -21 4208.60 570.834  13
  -1  -3  21 4552.36 636.181  14
  -1   3 -21 3915.01 553.286  33
  -1   3 -21 4496.16 603.611  32
   1   3  21 4335.34 712.605  17
   1   3  22 10265.4 1018.71  17
   1  -3 -22 9566.46 788.548  13
  -1   3 -22 10564.0 834.346  33
  -1  -3  22 10605.3 872.741  14
  -1   3 -22 9668.65 818.443  32
  -1  -3  22 9491.78 1030.24   9
  -1  -3  23 9159.98 777.613  14
   1  -3 -23 9485.17 760.638  13
  -1   3 -23 9662.28 770.341  33
   1   3  23 8296.48 882.500  17
  -1   3 -23 8347.14 726.575  32
  -1  -3  23 7771.37 916.019   9
   1   3  24 10996.5 935.091  17
  -1  -3  24 10971.4 990.198   9
  -1   3 -24 10999.1 782.974  33
  -1  -3  24 12077.1 831.398  14
   1  -3 -24 12774.8 816.465  13
  -1  -3  25 3407.39 440.710  14
  -1  -3  25 4282.43 576.202   9
   1  -3 -25 4222.41 459.166  13
  -1   3 -25 3966.25 451.152  33
   1   3  25 3411.88 501.539  17
  -1  -3  26 261.340 266.472   9
   1   3  26-110.020 199.310  17
  -1  -3  26 725.366 202.410  14
   1  -3 -26 141.493 164.015  13
  -1   3 -26 386.812 169.856  33
   1   3  27 687.187 214.927  17
  -1   4  25 936.827 304.084   9
   1  -4  25 857.322 215.763  14
   1   4 -25 703.492 198.986  32
   1   4 -25 883.460 223.952  33
   1  -4  25 730.703 254.705  17
  -1  -4 -25 1035.58 372.438  30
  -1  -4 -24 2911.85 614.054  30
   1  -4  24 2918.63 407.776  14
  -1   4  24 1813.36 442.978   9
   1   4 -24 3601.21 445.080  33
   1  -4  24 2701.43 449.931  17
   1   4 -24 3245.39 417.750  32
  -1   4  23 1198.51 457.982   9
   1  -4  23 1308.60 350.949  14
   1   4 -23 1742.41 354.833  33
   1   4 -23 1314.40 303.009  32
  -1  -4 -23 396.396 372.647  30
   1  -4  23 981.416 356.114  17
   1  -4  22 9427.01 888.435  17
   1  -4  22 9195.75 800.922  14
   1   4 -22 8412.30 754.878  33
   1   4 -22 9230.40 807.025  32
  -1  -4 -22 10730.3 1162.41  30
  -1   4  22 7795.55 907.210   9
   1  -4  21-23.4617 295.670  14
  -1  -4 -21-624.770 454.814  30
   1   4 -21 178.177 244.647  33
   1   4 -21 594.319 310.454  32
   1  -4  21-170.307 345.569  17
   1  -4  20 13330.2 1053.33  14
   1   4 -20 13041.4 997.875  33
   1  -4  20 13187.8 1139.71  17
  -1  -4 -20 11891.0 1294.14  30
   1   4 -20 12398.0 1022.76  32
   1   4 -19 2567.41 572.825  32
   1  -4  19 2608.88 528.658  14
   1  -4  19 2093.12 570.080  17
   1   4 -19 2272.40 452.631  33
  -1  -4 -19 1910.68 631.501  30
   1  -4  18 4910.06 766.037  17
   1  -4  18 3672.82 595.452  14
   1   4 -18 3136.60 513.766  33
   1   4 -18 3445.45 594.236  32
  -1  -4 -18 3192.81 776.951  30
  -1  -4 -18 2594.60 692.851  31
   1  -4  17 5970.02 758.466  14
  -1  -4 -17 6841.40 955.641  31
   1   4 -17 7063.30 854.614  32
   1  -4  17 6306.34 855.650  17
   1   4 -17 5745.24 723.225  33
  -1  -4 -17 4933.16 894.976  30
   1  -4  16 4389.41 753.649  17
   1  -4  16 4441.08 751.256  27
   1  -4  16 4182.69 672.774  14
  -1  -4 -16 3174.57 521.640   3
  -1   4  16 3520.24 823.139   8
   1   4 -16 3626.35 602.272  25
   1   4 -16 3751.31 599.506   7
  -1  -4 -16 3752.90 831.713  30
   1  -4  16 4520.52 608.482  13
   1   4 -16 3136.82 598.415  32
   1  -4  16 4493.71 634.364   4
  -1  -4 -16 3073.52 880.434  29
  -1   4  16 3029.88 559.106  27
  -1  -4 -16 3827.62 753.384  31
   1   4 -16 3363.35 554.093  33
   1  -4  15 41486.7 2101.26  27
  -1   4  15 40439.7 1878.87  27
   1  -4  15 37529.2 1831.32  14
   1   4 -15 41430.9 1923.07  25
   1  -4  15 34765.4 1565.14  13
   1   4 -15 37469.3 1578.57  22
  -1  -4 -15 37827.0 1578.40   3
   1   4 -15 37264.3 1740.27   7
   1   4 -15 36349.9 1676.63  33
   1  -4  15 40088.2 2029.36  17
  -1  -4 -15 41913.7 2173.80  31
  -1  -4 -15 35889.1 2216.98  30
   1   4 -15 38815.9 1851.96  32
  -1  -4 -15 35815.3 2286.17  29
   1  -4  15 40759.0 1766.13   4
   1   4 -14 21895.8 1393.89  25
   1  -4  14 21507.6 1353.43  14
   1   4 -14 20905.1 1167.32  22
  -1  -4 -14 21383.5 1170.20   3
  -1  -4 -14 19351.8 1617.27  30
  -1  -4 -14 20238.1 1504.74  31
   1   4 -14 17910.3 1163.14  33
   1   4 -14 21599.7 1378.35  32
   1  -4  14 22754.2 1525.32  17
   1  -4  14 22814.4 1319.92   4
   1  -4  14 25756.2 1738.27   6
  -1  -4 -14 19453.5 1658.69  29
  -1   4  14 22637.7 1389.65  27
   1  -4  14 24450.6 1599.68  27
  -1   4  13 59159.7 2176.30  27
   1  -4  13 58915.8 2086.14   4
  -1  -4 -13 56100.4 1836.48   3
   1   4 -13 55136.4 1858.07  22
  -1  -4 -13 54966.6 2692.99  29
   1  -4  13 58171.0 2390.78  27
   1   4 -13 57865.5 2192.24  25
  -1  -4 -12 21243.1 1596.75   8
   1   4 -12 23185.4 1361.54  25
   1  -4  12 23536.5 1611.25   6
   1   4 -12 21223.9 1152.97  22
  -1  -4 -12 21500.9 1121.08   3
  -1  -4 -12 21442.6 1646.32  29
   1  -4  12 21319.4 1245.10   4
  -1   4  12 21306.5 1289.11  27
   1  -4  12 22788.2 1479.94  27
  -1   4  11 4325.25 612.015  27
   1  -4  11 4973.84 603.192   4
   1   4 -11 5269.80 656.976  25
  -1  -4 -11 4678.65 775.060   8
   1   4 -11 4165.49 524.425  22
  -1  -4 -11 5115.71 552.522   3
   1  -4  11 3786.34 671.016   6
  -1  -4 -11 4135.60 744.667  29
   1  -4  11 4568.70 676.379  27
   1  -4  10 1559.57 462.749  27
  -1  -4 -10 1488.35 512.807  26
   1   4 -10 1117.04 341.430  25
  -1  -4 -10 1286.50 417.311   8
   1   4 -10 1464.95 319.815  22
  -1  -4 -10 754.886 243.107   3
   1  -4  10 1390.22 351.476   4
  -1  -4 -10 1772.38 475.302  29
  -1   4  10 1462.12 388.748  27
   1  -4  10 1040.80 376.012   6
  -1  -4  -9 3119.36 604.996  26
   1   4  -9 3724.27 527.697  25
   1   4  -9 3710.71 471.377  22
  -1  -4  -9 3897.31 708.218   8
  -1   4   9 4096.80 537.442  27
  -1  -4  -9 3731.11 464.893   3
   1  -4   9 3886.46 531.944   4
  -1  -4  -9 2799.02 611.632  29
   1  -4   9 2594.58 538.650   6
   1  -4   9 3991.39 622.669  27
   1   4  -8 31112.4 1378.25  25
   1   4  -8 28974.8 1237.23  22
  -1   4   8 29580.5 1350.91  27
  -1  -4  -8 29925.8 1209.95   3
  -1  -4  -8 30056.4 1679.37  26
   1  -4   8 28444.8 1322.33   4
   1  -4   8 29988.0 1659.79   6
   1  -4   8 30672.7 1548.72  27
  -1  -4  -8 32498.5 1813.11   8
  -1  -4  -7 9569.24 1001.06   8
   1   4  -7 10246.1 793.497  25
   1   4  -7 9819.95 722.088  22
  -1   4   7 11433.5 815.244  27
  -1  -4  -7 10196.9 700.961   3
   1  -4   7 10605.2 805.712   4
   1  -4   7 10212.4 977.796   6
  -1  -4  -7 10537.2 978.884  26
   1  -4   7 11379.8 937.860  27
  -1  -4  -6 13348.5 1091.99  26
  -1  -4  -6 15137.5 1220.27   8
  -1   4   6 15892.5 930.017  27
   1   4  -6 14807.1 872.359  22
  -1  -4  -6 15273.2 764.015  21
  -1  -4  -6 14760.6 825.532   3
   1  -4   6 13721.2 1108.99   6
   1  -4   6 14239.3 911.712   4
   1   4  -6 14779.2 898.211  25
  -1   4   6 14723.5 853.257  28
   1  -4   6 14623.3 1020.99  27
  -1   4   5 1440.83 302.906  28
  -1  -4  -5 2042.95 313.722  21
  -1  -4  -5 1189.29 395.051  26
   1  -4   5 1523.45 346.998   4
   1   4  -5 1749.17 334.925  22
  -1  -4  -5 1508.30 457.220   8
   1  -4   5 2679.59 344.222   3
  -1   4   5 1363.68 339.048  27
  -1  -4  -5 904.370 238.349   3
   1   4  -5 1816.75 346.991  25
   1  -4   5 214.612 277.859   6
  -1   4   4 20276.8 1016.83  27
   1  -4   4 21375.2 894.690   3
  -1  -4  -4 17150.5 1182.95  26
   1   4  -4 18316.8 941.127  25
   1   4  -4 14654.4 831.049  22
  -1  -4  -4 19197.5 875.657  21
  -1  -4  -4 20404.8 922.898   3
   1  -4   4 18182.1 990.529   4
  -1  -4  -4 16155.7 1224.88   8
   1  -4   4 21490.0 1336.84   6
  -1   4   4 20062.3 937.824  28
  -1  -4  -3 49788.6 1928.08  26
  -1  -4  -3 47185.6 2067.45   8
   1   4  -3 51867.5 1520.86  25
  -1   4   3 52159.8 1415.29  23
   1   4  -3 49541.9 1527.88  22
  -1   4   3 52620.4 1497.54  28
  -1  -4  -3 49387.0 1384.97  21
   1  -4   3 53669.6 2075.84   6
   1  -4   3 45094.7 1494.28   4
  -1  -4  -3 52274.4 1434.92   3
   1  -4   3 55120.5 1404.45   3
  -1  -4  -2 19029.1 1204.92  26
  -1   4   2 19391.8 876.372  23
   1   4  -2 19344.8 952.378  22
   1  -4   2 20283.1 847.469   3
  -1  -4  -2 16858.6 1255.39   8
  -1   4   2 19571.4 915.174  28
  -1  -4  -2 18948.3 873.759  21
  -1  -4  -2 20010.1 882.885   3
   1  -4   2 18274.4 946.694   4
   1  -4   2 18877.5 1238.19   6
  -1  -4  -1 16331.6 1102.24  26
  -1   4   1 16964.0 832.297  23
   1   4  -1 17817.3 909.642  22
  -1  -4  -1 15819.3 801.834  21
   1   4  -1 17026.1 902.547  28
  -1  -4  -1 16871.4 808.838   3
   1  -4   1 17648.3 1217.65   6
   1  -4   1 17256.1 783.422   3
  -1  -4  -1 14181.3 1130.62   8
  -1  -4   0 29129.0 1445.99  26
  -1  -4   0 29585.2 1074.43   3
  -1  -4   0 27829.3 1561.06   8
   1   4   0 30413.0 1177.65  22
  -1  -4   0 29952.7 1090.06  21
  -1   4   0 29571.2 1114.77  23
   1  -4   0 27666.0 1501.43   6
   1  -4   0 30107.3 1030.31   3
   1   4   0 30627.3 1193.78  28
  -1  -4   1 17862.1 1138.44  26
  -1  -4   1 16491.6 831.428  21
  -1  -4   1 17383.8 1241.27   8
  -1  -4   1 15957.3 800.040   4
  -1   4  -1 17632.3 881.274  23
   1   4   1 16059.4 875.632  22
   1   4   1 16787.9 898.071  28
  -1  -4   1 16766.6 816.409   3
   1   4   1 16658.5 851.697  27
   1  -4  -1 18320.2 812.940   3
   1  -4  -1 14610.0 1125.27   6
  -1  -4   2 18969.3 1292.83   8
  -1   4  -2 19228.5 939.479  23
   1   4   2 19719.3 928.373  27
   1   4   2 18938.5 947.198  22
  -1   4  -2 19896.3 831.032  22
  -1  -4   2 14878.0 779.135  21
  -1  -4   2 19761.5 908.010   4
   1  -4  -2 19375.4 835.830   3
   1  -4  -2 18729.4 1274.22   6
  -1  -4   2 18809.4 1162.87  26
  -1  -4   2 18922.7 861.593   3
   1   4   2 19223.1 979.187  28
   1   4   3 49742.3 1506.05  27
  -1  -4   3 53900.3 1941.37  26
  -1  -4   3 50101.9 2060.72   8
  -1   4  -3 52682.2 1566.77  23
   1   4   3 50534.4 1541.54  22
  -1   4  -3 54013.9 1409.97  22
  -1  -4   3 48499.5 1418.82  21
  -1  -4   3 48385.9 1461.77   4
   1  -4  -3 51717.4 1375.47   3
   1  -4  -3 49957.3 2079.92   6
   1   4   3 48164.2 1567.02  28
  -1  -4   3 48673.8 1411.23   3
   1   4   4 19336.6 976.819  27
  -1  -4   4 16850.5 835.848   3
  -1  -4   4 19691.3 1201.23  26
  -1  -4   4 16845.9 1205.18   8
   1   4   4 19422.3 982.362  22
  -1   4  -4 18257.2 932.268  23
  -1   4  -4 20814.9 917.292  22
  -1  -4   4 18782.7 902.836  21
  -1  -4   4 17554.3 916.634   4
   1  -4  -4 20180.7 877.967   3
   1  -4  -4 17257.6 1255.92   6
   1   4   4 17417.4 974.415  28
   1   4   5 1032.89 303.807  27
  -1  -4   5 1715.48 322.409   3
  -1  -4   5 1585.47 420.349  26
  -1  -4   5 1467.18 465.142   8
   1   4   5 2195.02 370.746  22
  -1   4  -5 2036.08 325.623  22
  -1  -4   5 2274.56 356.045  21
   1  -4  -5 1583.83 288.689   3
  -1   4  -5 1785.56 339.223  23
  -1  -4   5 1529.70 345.004   4
   1   4   5 730.538 262.321  28
   1  -4  -5 1068.81 431.060   6
  -1  -4   6 13647.7 803.525   3
  -1  -4   6 13412.4 1121.08   8
  -1   4  -6 15384.3 896.831  23
   1   4   6 14327.4 865.321  22
  -1  -4   6 15408.4 839.344  21
  -1  -4   6 13805.5 869.656   4
   1  -4  -6 14470.6 787.679   3
  -1   4  -6 16717.5 879.212  22
   1   4   6 14108.1 938.297  28
   1   4   6 14847.2 907.826  27
  -1  -4   7 8785.66 730.377   4
  -1  -4   7 8723.88 906.138   8
   1   4   7 9769.75 736.272  22
  -1   4  -7 11523.8 763.727  22
   1   4   7 8629.76 761.364  28
   1  -4  -7 10111.0 674.499   3
   1   4   7 9070.88 754.582  27
  -1   4  -7 11508.7 759.306  25
  -1  -4   7 10497.3 714.078  21
  -1   4  -7 11078.9 783.546  23
   1   4   8 28090.3 1349.28  27
   1  -4  -8 29533.4 1171.68   3
  -1  -4   8 28703.9 1639.57   8
  -1   4  -8 32204.2 1318.61  25
  -1   4  -8 28422.7 1242.66  23
  -1   4  -8 31562.2 1291.81  22
  -1  -4   8 31514.2 1220.42  21
   1   4   8 31353.7 1304.91  22
  -1  -4   8 28483.0 1298.79   4
   1   4   8 28389.1 1400.00  28
   1   4   9 4115.56 560.519  27
  -1   4  -9 4417.71 539.504  25
  -1   4  -9 3208.06 445.349  23
  -1   4  -9 4372.14 526.702  22
   1  -4  -9 3736.54 452.815   3
  -1  -4   9 3282.07 430.805  21
  -1  -4   9 3146.44 481.457   4
   1   4   9 3767.46 584.553  28
   1   4  10 1255.11 351.258  27
  -1   4 -10 1146.24 321.547  25
  -1   4 -10 1477.27 323.350  23
  -1   4 -10 1651.28 347.259  22
  -1  -4  10 868.111 250.623  21
   1  -4 -10 797.592 235.801   3
   1   4  10 692.497 283.105  28
  -1  -4  10 716.327 301.952   4
   1   4  11 4350.88 624.986  27
  -1   4 -11 5042.71 598.727  25
  -1   4 -11 5080.45 561.092  23
  -1   4 -11 4970.78 584.092  22
   1  -4 -11 4138.74 505.645   3
  -1  -4  11 4268.17 485.557  21
  -1  -4  11 4205.00 573.193   4
   1   4  11 4420.39 664.730  28
   1   4  12 20764.1 1326.80  27
  -1   4 -12 22147.6 1269.90  25
  -1   4 -12 21397.2 1137.00  23
  -1   4 -12 22217.1 1213.89  22
   1  -4 -12 22084.9 1147.39   3
  -1  -4  12 22720.7 1275.87   4
   1   4  12 20861.8 1365.16  28
   1  -4 -13 57305.4 1881.34   3
   1   4  13 54738.3 2170.10  27
  -1   4 -13 59339.1 2144.27  25
  -1   4 -13 56315.2 1854.19  23
  -1   4 -13 61618.2 2046.58  22
  -1  -4  13 55995.3 2027.96   4
   1   4  13 54087.4 2254.39  28
   1   4  14 19349.9 1355.49  27
   1  -4 -14 23712.9 1273.72  13
  -1   4 -14 23350.1 1292.69  22
   1  -4 -14 23229.0 1241.66   3
  -1  -4  14 21507.4 1283.94   4
  -1  -4  14 19555.2 1531.71   9
  -1   4 -14 21930.2 1344.57  25
   1   4  14 21956.5 1484.79  17
   1   4  14 20022.7 1403.85  28
   1   4  15 35565.2 1850.54  27
  -1   4 -15 41901.1 1885.24  25
   1  -4 -15 39843.3 1659.71  13
  -1  -4  15 37835.4 2143.09   9
  -1   4 -15 40540.8 1721.53  22
   1  -4 -15 37476.8 1599.06   3
  -1  -4  15 39873.7 1751.93   4
   1   4  15 38816.7 1994.42  17
   1   4  15 37446.9 1952.84  28
  -1  -4  16 3894.87 749.868   9
  -1  -4  16 4450.70 597.731   4
  -1   4 -16 4084.75 618.049  25
   1  -4 -16 3837.83 562.409  13
  -1   4 -16 4579.09 596.089  22
   1   4  16 2906.00 652.187  17
   1  -4 -16 3276.47 517.635   3
   1   4  16 2958.23 575.018  27
   1   4  16 3282.86 621.513  28
   1  -4 -17 6239.93 708.823  13
  -1   4 -17 7227.15 843.093  32
   1   4  17 6521.55 882.625  17
  -1  -4  17 7113.87 949.596   9
  -1  -4  18 3092.31 661.322   9
   1  -4 -18 4104.41 595.971  13
   1   4  18 2850.69 645.361  17
  -1   4 -18 3755.18 621.401  32
  -1  -4  19 2488.89 627.096   9
  -1   4 -19 2712.84 521.365  32
   1  -4 -19 2230.65 454.226  13
   1   4  19 2730.37 610.722  17
   1  -4 -20 13226.4 925.156  13
  -1  -4  20 12910.5 1205.50   9
   1   4  20 12172.2 1111.53  17
  -1   4 -20 12965.3 998.586  32
  -1  -4  21 47.2136 347.561   9
  -1   4 -21-237.692 263.037  32
   1   4  21-161.042 307.741  17
   1  -4 -21 518.130 311.422  13
   1  -4 -22 10301.2 764.669  13
  -1  -4  22 9488.16 953.849   9
   1   4  22 9468.14 907.001  17
  -1   4 -22 9488.88 778.355  32
   1  -4 -23 1337.35 305.479  13
  -1   4 -23 1361.31 314.148  32
   1   4  23 590.875 342.286  17
  -1  -4  23 1227.58 389.930   9
   1  -4 -24 2978.24 378.477  13
   1   4  24 2905.09 463.015  17
  -1   4 -24 2789.06 380.567  32
  -1  -4  24 2491.83 428.506   9
   1  -4 -25 1059.99 218.528  13
  -1  -4  25 826.443 254.584  13
  -1   4 -25 987.364 206.260  32
   1   4  25 585.957 243.326  17
  -1  -4  25 1221.03 306.741   9
  -1   5  23 1593.28 372.060   9
   1  -5  23 1990.46 317.801  14
  -1  -5 -23 1435.65 382.573  30
   1  -5  23 2298.51 374.768  17
   1   5 -23 2493.32 354.566  32
   1  -5  22 1628.92 342.319  14
  -1   5  22 1773.47 420.982   9
   1   5 -22 1552.43 328.085  32
   1  -5  22 1477.80 340.493  17
  -1  -5 -22 1298.40 400.615  30
   1  -5  21 702.667 296.650  14
   1   5 -21 210.857 229.541  32
   1  -5  21 820.524 297.203  17
  -1  -5 -21 934.757 415.765  30
   1  -5  20 3566.15 524.860  14
  -1  -5 -20 2381.91 574.082  30
   1   5 -20 4323.15 588.394  32
   1  -5  20 4492.61 639.208  17
   1  -5  19-119.571 301.502  14
   1  -5  19-102.191 223.266  13
   1  -5  19 35.4421 304.383  17
   1   5 -19-100.653 327.532  32
  -1  -5 -19 453.161 379.278  30
   1  -5  18 1232.09 424.426  14
   1  -5  18 1756.29 463.905  17
   1  -5  18 797.319 292.079  13
   1   5 -18 2619.31 521.611  32
  -1  -5 -18 1570.77 550.721  31
  -1  -5 -18 1445.72 592.618  30
   1  -5  17 6512.36 771.377  14
   1  -5  17 5117.67 614.851  13
  -1  -5 -17 6430.38 904.385  31
   1  -5  17 7364.10 898.103  17
   1   5 -17 7342.14 821.715  32
  -1  -5 -17 6917.20 969.777  30
   1  -5  16 9367.73 845.179  13
   1  -5  16 11001.0 1015.44  14
   1  -5  16 11338.9 966.182  19
   1   5 -16 10069.5 956.595  32
   1  -5  16 10096.8 1049.77  17
  -1  -5 -16 9918.47 1107.31  31
   1  -5  15 3418.27 596.445  14
   1  -5  15 2719.24 483.685  13
   1  -5  15 3847.60 606.851  19
   1   5 -15 3900.09 642.171  32
  -1  -5 -15 2706.44 652.770  31
   1  -5  15 3597.93 675.731  17
   1  -5  14 1560.35 438.422  14
   1  -5  14 1916.53 444.818  13
   1  -5  14 3100.63 699.537  17
   1  -5  14 1486.80 429.515  19
  -1  -5 -14 2278.42 642.519  11
  -1  -5 -14 1799.77 584.147  31
   1   5 -14 1715.96 470.765  32
  -1   5  13 40522.9 1903.99  27
   1  -5  13 37805.5 1834.18  14
   1   5 -13 38631.9 1824.96  32
   1   5 -13 37579.9 1794.44  25
   1   5 -13 37215.5 1649.00  22
  -1  -5 -13 36261.0 1567.75   3
   1  -5  13 39901.1 1884.14  19
   1  -5  13 34932.9 1614.32  13
  -1  -5 -13 42921.5 2433.19  11
  -1  -5 -13 39424.1 2161.03  31
   1  -5  13 41069.1 2072.53  17
   1  -5  13 42379.2 1889.64   4
   1  -5  13 44799.6 2223.33  27
   1  -5  12 5307.94 802.636  17
  -1   5  12 4322.64 645.118  27
   1  -5  12 5320.92 716.859  14
   1   5 -12 4185.96 549.342  22
   1  -5  12 4259.67 607.308  13
   1   5 -12 3437.44 550.941  25
  -1  -5 -12 5187.15 605.560   3
  -1  -5 -12 4950.89 900.390  11
   1  -5  12 6058.53 771.800  19
   1   5 -12 4028.76 617.258  32
  -1  -5 -12 3973.29 748.514  31
   1  -5  12 5777.63 722.686   4
   1   5 -11 15200.3 1161.17  32
  -1   5  11 13836.4 1102.21  27
   1  -5  11 13167.5 1086.90  14
  -1  -5 -11 16555.5 1506.98   8
   1   5 -11 14826.2 1110.32  25
   1  -5  11 12730.7 978.873  13
   1   5 -11 14726.1 1032.15  22
  -1  -5 -11 16628.2 1048.71   3
   1  -5  11 15002.2 1164.37  19
  -1  -5 -11 14811.4 1444.68  11
  -1  -5 -11 16565.5 1373.67  31
   1  -5  11 14605.6 1101.00   4
   1  -5  11 13927.4 1213.51  17
  -1   5  10 21254.5 1319.93  27
   1   5 -10 20966.2 1270.75  25
   1  -5  10 19115.9 1209.21  13
   1   5 -10 17952.1 1131.53  22
   1  -5  10 20561.2 1369.91  19
   1  -5  10 21667.7 1324.42   4
  -1  -5 -10 20249.1 1134.07   3
   1  -5  10 21735.6 1354.39  14
  -1  -5 -10 19623.4 1701.06  11
   1  -5  10 20702.8 1429.73  17
  -1  -5 -10 19783.9 1648.49   8
   1   5 -10 18875.6 1246.86  32
  -1  -5 -10 20511.2 1502.80  31
  -1   5   9 1365.24 397.915  27
  -1  -5  -9 1483.64 516.600  26
   1   5  -9 822.531 282.262  25
  -1  -5  -9 1996.14 615.467   8
   1   5  -9 1305.07 346.261  22
  -1  -5  -9 954.030 302.931   3
   1  -5   9 1154.82 377.273   4
  -1   5   8 18328.2 1183.56  27
  -1  -5  -8 17110.9 1396.66  26
  -1  -5  -8 20089.8 1111.84   3
   1   5  -8 17793.7 1102.47  22
  -1  -5  -8 18612.7 1570.83   8
   1  -5   8 18018.2 1174.17   4
  -1   5   7 4736.98 616.804  27
  -1  -5  -7 5793.91 831.207  26
  -1  -5  -7 6164.32 937.983   8
   1   5  -7 5914.40 642.887  22
  -1  -5  -7 5258.16 582.448   3
   1  -5   7 4296.60 584.324   4
  -1  -5  -6 14216.1 1225.68  26
  -1  -5  -6 16129.0 1418.13   8
   1   5  -6 13484.0 934.148  22
  -1   5   6 14613.2 1027.96  27
  -1  -5  -6 14863.1 932.008   3
   1  -5   6 14538.7 1035.36   4
  -1   5   5 3739.34 531.409  27
  -1  -5  -5 4608.01 708.547  26
   1   5  -5 3816.58 518.794  22
  -1  -5  -5 4280.38 778.213   8
  -1  -5  -5 3302.86 418.716  21
  -1  -5  -5 4702.16 526.868   3
   1  -5   5 3495.12 518.685   4
   1  -5   5 3742.43 443.593   3
  -1   5   5 4212.78 542.921  28
   1  -5   5 3027.98 607.030   6
  -1  -5  -4 817.928 371.579  26
  -1  -5  -4 823.074 476.344   8
   1   5  -4 874.590 277.661  22
  -1  -5  -4 1000.80 276.714   3
  -1  -5  -4 316.227 181.587  21
  -1   5   4 985.311 317.394  27
   1  -5   4 647.740 285.220   4
   1  -5   4 233.057 179.918   3
   1  -5   4 953.106 391.868   6
  -1   5   4 1108.87 331.636  28
   1  -5   3 3648.14 437.160   3
  -1   5   3 4821.41 496.329  23
   1   5  -3 4030.81 520.971  22
   1  -5   3 3077.49 595.434   6
  -1  -5  -3 3684.02 441.055  21
  -1   5   3 4764.99 581.500  27
  -1  -5  -3 4679.75 796.627   8
  -1  -5  -3 4835.64 695.941  26
  -1  -5  -3 4384.94 504.231   3
  -1   5   3 4402.60 525.974  28
   1   5  -3 3947.71 513.793  28
  -1  -5  -2 27567.7 1583.33  26
  -1  -5  -2 25777.3 1714.48   8
  -1   5   2 25316.4 1144.84  23
  -1  -5  -2 25623.8 1163.71   3
  -1  -5  -2 24779.1 1132.70  21
   1   5  -2 24951.1 1216.86  22
   1  -5   2 22042.2 1496.61   6
   1  -5   2 24788.7 1082.64   3
  -1   5   2 25494.6 1218.72  28
   1   5  -2 24131.4 1221.37  28
  -1  -5  -1 35646.2 1787.42  26
   1  -5   1 37992.3 1336.98   3
  -1   5   1 37795.0 1415.72  23
   1   5  -1 34721.2 1430.98  22
  -1  -5  -1 34345.6 1351.21  21
  -1  -5  -1 36029.9 1361.55   3
   1  -5   1 38401.5 1962.37   6
  -1  -5  -1 35614.4 1989.32   8
   1   5  -1 33326.3 1440.56  28
  -1   5   1 39540.0 1500.37  28
   1   5   0 467.373 252.032  22
  -1  -5   0 398.920 369.215   8
  -1   5   0 93.5713 157.079  23
  -1  -5   0 284.272 219.846  21
  -1  -5   0 321.397 182.535   3
   1  -5   0 115.464 148.381   3
   1  -5   0 57.7540 257.907   6
   1   5   0 442.677 295.476  28
   1   5   1 37834.8 1465.37  27
   1  -5  -1 37552.3 1965.46   6
  -1  -5   1 35349.3 1958.96   8
   1   5   1 36390.1 1516.56  28
   1   5   1 34042.2 1421.14  22
  -1  -5   1 34565.2 1354.35  21
  -1   5  -1 36171.2 1436.92  23
   1  -5  -1 38349.6 1350.47   3
  -1  -5   1 35766.5 1359.79   3
  -1   5  -2 23876.9 1182.59  23
   1   5   2 25364.5 1226.88  22
   1   5   2 25006.6 1216.36  27
  -1  -5   2 22172.4 1560.76   8
  -1  -5   2 24289.1 1151.45  21
   1  -5  -2 24182.4 1076.07   3
   1  -5  -2 21674.2 1524.33   6
  -1  -5   2 22571.1 1097.20   3
   1   5   2 25172.5 1282.57  28
  -1  -5   3 3728.81 499.415   3
  -1   5  -3 3765.12 495.033  23
   1   5   3 3716.78 492.680  22
  -1  -5   3 3437.48 679.133   8
  -1  -5   3 4029.05 499.678  21
   1   5   3 4393.25 542.138  27
  -1  -5   3 4238.31 513.554   4
   1  -5  -3 3796.97 444.756   3
   1   5   3 3852.28 554.782  28
   1  -5  -3 3299.93 616.846   6
   1   5   4 670.412 267.969  27
  -1   5  -4 878.969 273.648  23
   1   5   4 842.580 275.204  22
  -1   5  -4 1220.25 293.670  22
  -1  -5   4 1034.32 297.502  21
   1  -5  -4 776.995 264.218   3
  -1  -5   4 688.311 257.300   4
  -1  -5   4 1177.05 477.600   8
  -1  -5   4 1162.12 303.144   3
   1   5   4 523.458 258.873  28
   1   5   5 4206.72 558.111  27
  -1  -5   5 4588.57 527.867   3
   1   5   5 4405.95 607.646  28
  -1   5  -5 4147.66 541.188  23
   1   5   5 4008.55 526.433  22
  -1   5  -5 4588.59 511.041  22
  -1  -5   5 4016.34 722.276   8
  -1  -5   5 3838.13 492.146  21
  -1  -5   5 4360.70 540.865   4
   1  -5  -5 2974.87 408.928   3
   1   5   6 14998.9 1028.68  27
  -1  -5   6 13787.3 913.453   3
   1  -5  -6 14507.7 889.377   3
  -1   5  -6 14104.6 969.117  23
   1   5   6 14032.2 945.416  22
  -1   5  -6 17045.3 982.979  22
  -1  -5   6 13992.1 1257.23   8
  -1  -5   6 13839.2 907.266  21
  -1  -5   6 13203.6 935.881   4
   1   5   6 13837.4 1038.69  28
   1   5   7 6035.84 701.225  27
  -1   5  -7 4403.59 565.108  23
  -1   5  -7 5334.45 578.793  22
  -1  -5   7 5418.70 583.359  21
  -1  -5   7 5410.20 635.773   4
   1  -5  -7 5617.99 582.633   3
   1   5   7 5342.04 682.777  28
   1   5   8 17172.3 1150.06  27
  -1   5  -8 17792.7 1103.05  23
  -1   5  -8 18931.0 1089.05  22
  -1  -5   8 18524.4 1057.45  21
   1  -5  -8 18922.0 1049.42   3
  -1  -5   8 17625.4 1120.79   4
   1   5   8 18193.2 1232.12  28
   1   5   9 1146.14 366.248  27
  -1   5  -9 1192.61 333.887  23
  -1   5  -9 1462.04 345.938  22
  -1  -5   9 1316.96 328.463  21
  -1  -5   9 1007.02 359.889   4
   1  -5  -9 1608.19 350.458   3
   1   5   9 1012.51 365.945  28
   1   5  10 20245.5 1310.12  27
   1  -5 -10 20699.2 1211.21  13
  -1  -5  10 18913.4 1204.03  13
  -1   5 -10 20950.1 1219.61  23
  -1   5 -10 22338.4 1235.64  22
   1   5  10 21223.2 1311.09  12
   1  -5 -10 19745.7 1123.39   3
  -1  -5  10 18437.4 1252.02  19
  -1  -5  10 21405.7 1285.46   4
   1  -5 -10 21905.1 1817.19  11
   1  -5 -10 18405.0 1357.00  18
  -1  -5  10 21548.3 1152.09  21
  -1  -5  10 19185.4 1485.87   9
   1  -5 -10 19378.0 1156.49  15
   1   5  10 19621.4 1338.42  28
   1   5  11 16025.7 1211.56  27
   1  -5 -11 14542.5 1023.19  13
  -1   5 -11 12102.9 937.451  23
  -1  -5  11 15598.2 1093.74  13
  -1   5 -11 14628.2 1021.86  22
   1  -5 -11 13985.2 961.518   3
  -1  -5  11 14242.4 1108.40  19
   1  -5 -11 14585.1 1545.55  11
   1  -5 -11 11600.8 1080.20  18
  -1  -5  11 16333.6 998.977  21
  -1  -5  11 15344.7 1351.63   9
   1   5  11 15696.5 1245.25  28
  -1  -5  11 15658.2 1114.62   4
   1  -5 -12 5439.10 665.320  13
  -1  -5  12 5316.08 672.242  19
  -1   5 -12 4705.14 586.042  23
  -1  -5  12 3738.78 691.483   9
   1   5  12 4057.89 660.727  27
  -1   5 -12 5871.92 681.122  22
  -1  -5  12 4657.70 551.765  21
   1  -5 -12 5060.62 595.336   3
  -1  -5  12 4191.24 609.658   4
   1  -5 -12 5544.37 1014.91  11
   1   5  12 5586.68 786.472  28
   1   5  13 38103.8 1897.07  27
   1  -5 -13 40238.2 1698.19  13
  -1   5 -13 38087.1 1624.47  23
  -1   5 -13 41766.0 1754.34  22
   1  -5 -13 37253.3 1586.99   3
   1  -5 -13 41032.2 2527.50  11
  -1  -5  13 38196.7 1766.41   4
  -1   5 -13 43062.5 1912.46  32
  -1  -5  13 39180.3 2176.15   9
   1   5  13 35772.4 1900.95  28
   1  -5 -14 1076.77 348.117  13
   1  -5 -14 1325.13 587.129  11
  -1   5 -14 1753.08 417.508  32
   1   5  14 1550.42 538.524  17
  -1  -5  14 1515.00 531.448   9
   1  -5 -15 3786.51 562.542  13
   1  -5 -15 4122.38 855.492  11
  -1   5 -15 4497.26 671.900  32
   1   5  15 2976.25 633.561  17
  -1  -5  15 3387.02 697.085   9
   1  -5 -16 10424.1 905.039  13
  -1   5 -16 10582.2 961.420  32
   1   5  16 7368.70 939.503  17
  -1  -5  16 10695.0 1151.09   9
   1  -5 -17 7354.14 751.318  13
   1   5  17 7459.55 909.457  17
  -1  -5  17 6643.18 916.215   9
  -1   5 -17 7399.03 819.060  32
   1  -5 -18 2135.35 425.128  13
  -1   5 -18 2440.94 499.401  32
   1   5  18 3174.26 643.111  17
  -1  -5  18 1972.43 549.175   9
  -1  -5  19-139.506 230.528  13
   1   5  19 297.466 333.301  17
   1  -5 -19 77.6947 216.887  13
  -1   5 -19-138.227 302.188  32
  -1  -5  19 385.179 385.146   9
   1  -5 -20 4450.40 522.570  13
  -1  -5  20 3452.00 511.405  13
  -1   5 -20 4262.68 553.069  32
   1   5  20 3676.06 594.576  17
  -1  -5  20 2235.90 507.550   9
   1  -5 -21 275.773 197.991  13
  -1  -5  21 319.033 239.035  13
  -1   5 -21 590.674 276.816  32
   1   5  21 445.203 294.892  17
  -1  -5  21 305.875 279.971   9
   1  -5 -22 1851.84 326.371  13
  -1  -5  22 1391.43 344.711  13
  -1   5 -22 1899.52 347.046  32
   1   5  22 1138.64 340.336  17
  -1  -5  22 1160.44 352.183   9
   1  -5 -23 2526.07 322.245  13
  -1  -5  23 1912.78 318.303  13
  -1   5 -23 2242.86 325.367  32
   1   5  23 1973.39 364.920  17
  -1  -5  23 1619.03 346.464   9
   1   5  24 3513.61 397.242  17
   1  -6  21 951.305 240.276  14
   1   6 -21 947.560 237.046  32
   1  -6  20 3771.81 444.250  14
   1   6 -20 4874.50 511.595  32
   1   6 -19 4811.10 562.448  32
   1  -6  19 4840.14 545.857  14
   1  -6  19 5126.05 492.686  13
   1  -6  19 5400.48 622.341  17
   1  -6  18 2211.07 405.442  14
   1  -6  18 2280.85 371.516  13
   1   6 -18 1953.36 402.161  32
   1  -6  18 2319.34 441.432  17
   1  -6  17 6522.07 697.995  14
   1  -6  17 6876.17 642.209  13
   1  -6  17 7140.24 694.249  19
   1   6 -17 7390.79 739.408  32
   1  -6  17 7818.83 815.468  17
   1  -6  16 735.977 361.362  14
   1  -6  16 1522.49 342.901  13
   1  -6  16 1924.23 421.094  19
   1   6 -16 2157.40 483.057  32
   1  -6  16 224.010 320.462  17
  -1  -6 -16 2275.13 564.785  31
   1  -6  15 15835.1 1128.14  14
   1  -6  15 17403.4 1171.47  19
   1  -6  15 14778.3 999.898  13
  -1  -6 -15 15819.5 1390.23  11
   1   6 -15 15451.8 1106.17  32
   1  -6  15 18170.1 1298.30  17
  -1  -6 -15 15463.6 1246.33  31
   1  -6  14 24298.5 1424.27  14
   1  -6  14 20066.8 1168.00  13
   1  -6  14 23824.8 1424.55  19
  -1  -6 -14 22180.0 1751.56  11
   1   6 -14 22349.5 1333.94  32
   1  -6  14 23904.3 1534.13  17
  -1  -6 -14 23288.9 1547.59  31
   1  -6  13 4440.65 672.968  14
   1  -6  13 5264.12 752.941  19
  -1  -6 -13 4967.81 915.010  11
   1   6 -13 4196.07 637.589  32
  -1  -6 -13 3747.68 742.497  31
   1  -6  13 5290.02 644.486  13
   1  -6  13 5783.77 778.276  17
   1  -6  12 1177.69 407.413  13
   1  -6  12 930.590 427.543  19
  -1  -6 -12 1089.64 540.159  11
   1  -6  12-39.4488 340.627  17
   1   6 -12 517.535 293.764  32
  -1  -6 -12 845.230 403.514  31
   1  -6  12 736.167 368.116  14
   1  -6  11 46334.7 2012.57  14
   1  -6  11 46210.9 2097.69  19
   1  -6  11 42631.9 1803.49  13
  -1  -6 -11 45838.4 2632.74  11
   1   6 -11 46689.7 1911.55  32
   1  -6  11 46329.6 2170.57  17
  -1  -6 -11 50334.9 2331.01  31
   1  -6  10 28810.7 1600.89  14
   1   6 -10 26927.4 1454.69  32
   1  -6  10 29650.1 1710.03  19
  -1  -6 -10 28755.4 2114.80  11
  -1  -6 -10 29196.6 1770.44  31
   1  -6  10 31767.2 1795.11  17
   1  -6  10 28084.9 1487.11  13
   1  -6   9 26831.7 1535.50  14
   1  -6   9 23179.1 1348.96  13
   1  -6   9 26934.2 1617.07  19
  -1  -6  -9 26168.1 2041.07  11
   1  -6   9 26783.2 1649.86  17
  -1  -6  -9 27094.9 1711.22  31
  -1   6   8 23450.5 1444.54  27
   1  -6   8 22733.1 1452.12  14
  -1  -6  -8 24076.8 1882.08   8
   1  -6   8 21109.3 1296.22  13
   1   6  -8 21979.0 1289.09  22
  -1  -6  -8 19996.8 1797.25  11
   1  -6   8 22021.0 1472.51  19
  -1  -6  -8 23081.4 1269.62   3
   1  -6   7 21671.6 1382.80  14
  -1  -6  -7 23798.2 1882.25   8
   1  -6   7 21336.2 1300.72  13
   1  -6   7 19788.3 1388.12  19
   1   6  -7 19915.6 1222.96  22
  -1   6   7 20275.4 1338.72  27
  -1  -6  -7 21635.0 1827.55  11
  -1  -6  -7 22506.5 1236.15   3
  -1   6   6 2644.20 531.700  27
   1  -6   6 1999.22 487.154  19
   1  -6   6 2317.43 476.763  13
  -1  -6  -6 2088.76 673.823   8
   1   6  -6 1768.87 393.154  22
  -1  -6  -6 1660.24 667.283  11
  -1  -6  -6 2554.83 460.824   3
   1  -6   6 1869.26 433.129  14
   1   6  -6 1904.46 407.647  28
  -1  -6  -5 33300.9 2178.28   8
   1  -6   5 29306.0 1579.55  14
   1  -6   5 27621.8 1444.69  13
   1   6  -5 29016.1 1468.41  22
   1  -6   5 27692.9 1331.57  15
   1  -6   5 28945.0 1638.31  19
  -1  -6  -5 27632.8 2076.53  11
  -1  -6  -5 29715.0 1422.48   3
   1   6  -5 29138.5 1480.60  28
  -1   6   5 30239.5 1595.77  27
  -1   6   4 24092.6 1411.86  27
   1  -6   4 22597.3 1384.51  14
  -1  -6  -4 25567.0 1922.00   8
   1   6  -4 22133.2 1270.47  22
   1  -6   4 20201.9 1374.73  19
  -1  -6  -4 22045.0 1842.16  11
  -1  -6  -4 23641.1 1255.26   3
  -1  -6  -4 25238.6 1712.76   9
   1  -6   4 21177.1 1175.62  15
   1  -6   4 21491.5 1287.24  13
   1   6  -4 21095.3 1272.83  28
  -1  -6  -3 46285.2 1688.24  21
  -1   6   3 49679.6 2022.77  27
   1  -6   3 49536.6 2037.58  14
  -1  -6  -3 48223.1 2580.31   8
   1  -6   3 45353.5 1839.30  13
   1   6  -3 43317.9 1762.66  22
  -1  -6  -3 48380.0 1798.65   3
  -1  -6  -3 41168.1 1911.00  19
   1  -6   3 46650.5 2032.65  19
  -1  -6  -3 51169.1 2397.36   9
  -1  -6  -3 43207.9 2530.40  11
   1  -6   3 48135.0 1778.27  15
  -1   6   3 50043.8 1922.13  28
   1   6  -3 45249.1 1853.14  28
  -1   6   2 4371.94 616.404  27
   1  -6   2 3997.26 588.755  13
  -1  -6  -2 3655.95 771.010   8
   1   6  -2 2681.99 461.400  22
  -1  -6  -2 2809.96 456.757  21
   1  -6   2 4193.29 635.324  14
  -1  -6  -2 2514.47 529.124  19
   1  -6   2 3948.19 638.851  19
  -1  -6  -2 2508.26 681.416  11
  -1  -6  -2 2358.23 425.522   3
   1  -6   2 3859.42 542.840  15
  -1  -6  -2 4964.22 791.953   9
  -1   6   2 3555.24 530.089  28
   1   6  -2 2137.17 438.278  28
  -1  -6  -1 14310.7 1266.66   9
   1  -6   1 12411.0 1022.72  14
  -1  -6  -1 13116.5 1365.93   8
   1   6  -1 12641.0 1003.05  28
   1   6  -1 12924.5 964.474  22
   1  -6   1 12123.8 956.444  13
  -1  -6  -1 12723.2 918.059  21
  -1  -6  -1 11758.7 1058.03  19
   1  -6   1 11418.8 1014.82  19
  -1  -6  -1 12306.8 1353.37  11
  -1  -6  -1 12692.6 926.416   3
   1  -6   1 10685.8 854.744  15
  -1   6   1 13685.8 1022.96  28
   1  -6   0 13458.2 1049.11  14
  -1  -6   0 12579.2 1295.00   8
  -1  -6   0 12383.7 1072.28  19
   1  -6   0 13248.2 983.211  13
   1   6   0 12975.0 967.643  22
   1   6   0 15260.6 1099.91  12
  -1  -6   0 11963.7 1327.47  11
  -1  -6   0 12952.3 1234.29   9
  -1  -6   0 13310.4 944.800  21
   1  -6   0 13606.9 988.529  15
   1  -6   0 13044.1 891.383   3
  -1  -6   0 11191.9 887.227   3
   1   6   0 13042.8 1015.99  28
  -1   6   0 14088.2 1024.64  28
  -1  -6   1 12177.6 927.625   3
   1  -6  -1 11883.6 991.045  14
  -1  -6   1 12018.1 1265.13   8
   1  -6  -1 10994.6 906.424  13
   1   6   1 13174.9 975.617  22
   1  -6  -1 11228.6 833.586   3
  -1  -6   1 13770.1 961.656  21
   1   6   1 14368.9 1067.42  12
  -1  -6   1 12811.9 1106.13  19
   1  -6  -1 13968.7 1445.18  11
  -1  -6   1 13397.6 1337.74  11
  -1   6  -1 12840.6 940.154  23
  -1  -6   1 12687.8 1210.58   9
   1  -6  -1 12161.7 932.338  15
   1   6   1 13677.5 1046.97  28
  -1   6  -1 12952.4 987.344  28
   1  -6  -2 4550.14 647.278  14
  -1   6  -2 4177.78 563.810  23
   1  -6  -2 4754.28 646.468  13
   1   6   2 3587.93 510.651  22
  -1  -6   2 2593.75 694.578   8
  -1  -6   2 3078.48 497.030  21
   1   6   2 2877.11 531.230  12
  -1  -6   2 3301.24 627.492  19
   1  -6  -2 4071.16 852.932  11
   1  -6  -2 3493.92 479.624   3
  -1  -6   2 2470.19 446.525   3
   1  -6  -2 3847.72 561.516  15
  -1  -6   2 2815.22 658.453   9
  -1   6  -2 4863.10 628.422  28
   1   6   2 3232.20 558.813  28
   1  -6  -3 48065.6 1974.34  14
  -1  -6   3 45028.8 1725.11   3
  -1  -6   3 44526.2 2376.78   8
   1  -6  -3 44527.6 1807.74  13
  -1   6  -3 46825.2 1831.23  23
   1   6   3 45835.7 1791.35  22
   1   6   3 45795.1 1954.74  28
   1   6   3 50948.0 2001.48  12
  -1  -6   3 46625.1 1770.90  21
  -1  -6   3 43690.8 2023.79  19
   1  -6  -3 51057.5 2746.89  11
   1  -6  -3 46652.5 1809.13  15
   1  -6  -3 49326.4 1727.28   3
  -1  -6   3 46838.5 2324.60   9
  -1   6  -4 21467.3 1258.78  23
  -1  -6   4 22899.8 1240.63   3
   1  -6  -4 21402.0 1257.59  13
   1   6   4 23885.7 1390.05  12
  -1  -6   4 21271.6 1208.26  21
   1  -6  -4 24250.6 1944.61  11
   1  -6  -4 19195.9 1464.97  18
   1  -6  -4 22205.4 1179.39   3
  -1  -6   4 22116.8 1626.14   9
  -1  -6   4 20379.3 1386.78  19
   1  -6  -4 20663.9 1213.70  15
   1   6   4 23842.4 1435.72  28
   1  -6  -5 27017.5 1402.05  15
  -1  -6   5 29850.8 1436.81   3
   1  -6  -5 28904.1 1450.09  13
  -1   6  -5 28300.7 1448.86  23
   1   6   5 29698.6 1570.43  12
  -1  -6   5 31665.9 1471.20  21
  -1  -6   5 28540.1 1664.09  19
   1  -6  -5 34427.5 2321.18  11
   1  -6  -5 25889.2 1690.74  18
   1  -6  -5 30913.7 1388.71   3
  -1  -6   5 30198.8 1905.21   9
   1   6   5 28761.4 1586.29  28
   1  -6  -6 1884.45 440.722  15
   1   6   6 2704.98 493.802  27
  -1   6  -6 2056.00 442.984  23
   1  -6  -6 2395.17 445.539  13
  -1  -6   6 2192.25 429.641  21
   1   6   6 2484.79 506.199  12
  -1  -6   6 1931.72 496.316  19
   1  -6  -6 2806.32 744.795  11
   1  -6  -6 1825.08 504.091  18
   1  -6  -6 2388.70 431.687   3
  -1  -6   6 2300.78 426.271   4
  -1  -6   6 1239.52 489.049   9
   1   6   6 2674.95 520.967  28
   1   6   7 20637.9 1326.20  27
   1  -6  -7 21500.5 1267.15  13
  -1   6  -7 22252.8 1310.42  23
   1   6   7 22713.9 1374.07  12
  -1  -6   7 21026.1 1217.03  21
  -1  -6   7 21056.1 1454.91  19
   1  -6  -7 23015.2 1943.65  11
  -1  -6   7 21160.0 1275.31   4
   1  -6  -7 17333.4 1413.32  18
   1  -6  -7 24266.6 1257.66   3
   1  -6  -7 18404.5 1191.13  15
  -1  -6   7 20622.3 1590.58   9
   1   6   7 20758.9 1387.78  28
   1   6   8 18092.4 1257.04  27
  -1  -6   8 19318.4 1191.86  13
  -1   6  -8 23086.6 1329.46  23
  -1   6  -8 23919.6 1284.07  22
   1   6   8 23627.6 1411.81  12
  -1  -6   8 20304.8 1179.50  21
  -1  -6   8 20257.9 1404.62  19
   1  -6  -8 21677.5 1888.60  11
  -1  -6   8 20976.7 1293.45   4
   1  -6  -8 19180.2 1451.49  18
   1  -6  -8 20745.7 1167.64   3
   1  -6  -8 22413.8 1302.22  13
   1  -6  -8 18976.4 1206.46  15
  -1  -6   8 23324.3 1677.27   9
   1   6   8 21771.8 1437.79  28
  -1  -6   9 26136.5 1392.20  13
   1   6   9 28314.5 1528.68  12
  -1  -6   9 26382.8 1580.56  19
   1  -6  -9 26016.5 2072.12  11
   1  -6  -9 21930.4 1530.28  18
   1  -6  -9 25547.5 1371.90  13
  -1  -6   9 28764.0 1847.63   9
   1  -6 -10 28991.1 1474.43  13
  -1  -6  10 27510.9 1436.15  13
  -1  -6  10 25769.4 1546.51  19
   1  -6 -10 32149.8 2297.97  11
   1  -6 -10 25559.4 1640.94  18
  -1  -6  10 28650.4 1846.74   9
   1  -6 -11 46162.1 1826.01  13
  -1  -6  11 43932.0 1813.87  13
  -1  -6  11 43570.6 1972.86  19
   1  -6 -11 47222.4 2758.81  11
  -1   6 -11 47653.2 1918.95  32
  -1  -6  11 46804.6 2341.55   9
  -1  -6  12 981.907 365.832  13
   1  -6 -12 504.654 334.735  13
  -1   6 -12 947.302 334.212  32
  -1  -6  12 595.495 274.586  19
   1  -6 -12 774.713 533.136  11
  -1  -6  12 834.748 427.895   9
  -1  -6  13 4304.59 608.875  13
   1  -6 -13 4801.44 625.959  13
  -1  -6  13 4196.63 631.028  19
   1  -6 -13 4764.47 980.956  11
  -1   6 -13 4568.72 649.495  32
   1   6  13 4885.96 772.199  17
  -1  -6  13 5248.77 822.122   9
  -1   6 -14 23295.6 1326.89  32
   1  -6 -14 23136.6 1264.00  13
  -1  -6  14 21158.9 1245.86  13
   1  -6 -14 21190.1 1768.92  11
   1   6  14 21868.2 1464.19  17
  -1  -6  14 21575.0 1557.49   9
  -1  -6  15 14960.5 1255.01   9
   1  -6 -15 16679.1 1045.77  13
  -1  -6  15 14330.6 1019.86  13
   1  -6 -15 15398.7 1452.11  11
  -1   6 -15 16755.3 1113.89  32
   1   6  15 14628.5 1188.15  17
   1  -6 -16 805.199 324.978  13
  -1  -6  16 2481.05 455.713  13
   1  -6 -16 1300.31 504.040  11
   1   6  16 317.676 377.218  17
  -1   6 -16 1505.75 390.630  32
  -1  -6  16 1933.37 550.828   9
   1  -6 -17 6773.03 629.136  13
   1   6  17 7635.18 821.665  17
   1  -6 -17 8792.93 1007.21  11
  -1  -6  17 6029.68 644.028  13
  -1   6 -17 6370.88 676.026  32
  -1  -6  17 6141.64 778.536   9
   1  -6 -18 2448.75 394.615  13
  -1  -6  18 2592.70 410.023  13
   1   6  18 2740.08 525.873  17
  -1   6 -18 2721.72 460.028  32
  -1  -6  18 3347.27 565.584   9
   1  -6 -19 5251.62 512.197  13
  -1  -6  19 4545.69 499.070  13
  -1   6 -19 4802.87 539.260  32
   1   6  19 4672.07 608.228  17
  -1  -6  19 4022.93 558.516   9
   1  -6 -20 4497.16 431.046  13
  -1  -6  20 3936.62 445.516  13
  -1   6 -20 4197.69 455.488  32
   1   6  20 4033.93 513.324  17
  -1  -6  20 3341.06 440.101   9
  -1  -6  21 546.350 213.975  13
   1  -6 -21 569.999 191.531  13
  -1   6 -21 1073.96 254.368  32
   1   6  21 437.397 221.138  17
   1  -7  18 7945.69 544.862  14
   1  -7  17 17053.0 875.757  14
   1  -7  17 14832.4 728.971  13
   1  -7  17 16063.7 815.235  19
   1   7 -17 17449.7 845.650  32
   1  -7  16 553.893 256.796  14
   1  -7  16 492.157 189.920  13
   1   7 -16 395.444 254.164  32
   1  -7  16 433.178 229.559  19
  -1  -7 -16 183.394 302.620  11
   1  -7  15 3497.17 475.208  14
   1  -7  15 2979.62 406.966  13
   1  -7  15 3420.54 494.054  19
  -1  -7 -15 2993.88 590.496  11
   1   7 -15 3757.92 472.165  32
   1  -7  14 1118.86 368.809  14
   1  -7  14 431.705 231.303  13
   1  -7  14 1087.04 352.515  19
  -1  -7 -14 1095.26 474.730  11
   1   7 -14 1060.53 281.276  32
   1  -7  13 1150.92 335.715  13
   1  -7  13 637.388 329.479  14
   1  -7  13 1430.21 416.200  19
  -1  -7 -13 889.075 451.458  11
   1  -7  12 429.493 260.003  13
   1  -7  12 164.901 306.761  19
  -1  -7 -12-105.340 419.359  11
   1  -7  12 322.948 293.688  14
   1  -7  11 19035.2 1188.57  14
   1  -7  11 17911.7 1083.39  13
   1  -7  11 19068.0 1281.93  19
  -1  -7 -11 17627.3 1565.37  11
   1  -7  10 1917.76 421.626  13
   1  -7  10 1961.12 499.790  19
  -1  -7 -10 2665.77 702.396  11
   1  -7  10 2337.05 499.339  14
   1  -7   9 2224.74 472.550  13
   1  -7   9 3013.24 534.910  14
   1  -7   9 2753.36 601.707  19
  -1  -7  -9 2536.27 712.413  11
   1  -7   8 7590.30 786.144  13
   1  -7   8 6721.41 834.552  19
  -1  -7  -8 5588.26 1009.14  11
   1  -7   7 6805.97 801.022  14
   1  -7   7 7391.42 780.563  13
  -1  -7  -7 7172.50 1121.11  11
   1  -7   7 7397.99 858.450  19
   1  -7   6 5360.83 668.241  13
   1  -7   6 5797.30 744.657  14
   1  -7   6 5303.19 779.178  19
  -1  -7  -6 4056.19 885.845  11
   1  -7   5 2936.81 568.280  14
   1  -7   5 2466.97 519.263  13
   1  -7   5 2635.39 589.581  19
  -1  -7  -5 1707.27 766.739  11
   1  -7   4 6392.57 759.771  14
   1  -7   4 5836.03 719.745  13
   1   7  -4 6235.16 752.375  12
   1  -7   4 5174.96 723.873  19
  -1  -7  -4 5087.98 955.273  11
   1  -7   4 6458.74 679.813  15
   1  -7   3 40303.7 1840.63  14
   1  -7   3 36689.2 1691.56  13
   1   7  -3 39763.2 1764.37  12
   1  -7   3 38131.9 1877.86  19
  -1  -7  -3 35036.0 2296.87  11
  -1  -7  -3 36358.7 1789.62  19
   1  -7   3 38946.9 1596.84  15
   1  -7   2 4023.27 615.992  13
   1   7  -2 6182.62 757.474  12
  -1  -7  -2 4007.59 637.222  19
   1  -7   2 3648.15 611.303  19
   1  -7   2 4055.58 568.155  15
  -1  -7  -2 3410.03 770.153  11
   1  -7   2 3620.46 600.382  14
  -1  -7  -2 3769.20 751.705   9
   1  -7   1 5101.08 687.745  14
   1  -7   1 5555.22 702.946  13
   1   7  -1 4960.46 667.169  12
  -1  -7  -1 5498.60 768.554  19
   1  -7   1 3963.45 614.211  19
  -1  -7  -1 3385.33 749.768  11
   1  -7   1 5403.12 663.550  15
  -1  -7  -1 4482.63 797.849   9
   1  -7   0 518.148 312.715  15
   1  -7   0-965.398 360.844  14
   1  -7   0-50.4857 320.973  13
   1   7   0-172.360 312.477  12
  -1  -7   0-259.783 344.909  19
  -1  -7   0 170.600 375.944  11
  -1  -7   0-721.730 407.700   9
   1  -7  -1 5018.52 672.006  14
   1   7   1 6110.12 759.974  12
  -1  -7   1 3602.77 656.541  19
   1  -7  -1 4907.77 970.505  11
   1  -7  -1 4778.30 664.477  13
   1  -7  -1 4805.07 608.089  15
  -1  -7   1 4540.42 828.280   9
   1  -7  -2 3611.85 551.475  15
   1  -7  -2 3870.48 604.719  13
   1   7   2 4456.61 647.000  12
  -1  -7   2 3651.50 680.401  19
   1  -7  -2 4021.76 826.548  11
  -1  -7   2 4658.12 834.812   9
   1  -7  -3 38141.2 1707.11  13
   1   7   3 38384.3 1731.60  12
   1  -7  -3 37761.6 1638.05  15
  -1  -7   3 33991.3 1835.63  19
   1  -7  -3 39138.4 2421.03  11
  -1  -7   3 39700.7 2167.65   9
   1  -7  -4 6770.15 750.880  13
   1  -7  -4 7889.93 799.702  15
   1   7   4 5642.44 696.727  12
  -1  -7   4 6017.69 833.906  19
   1  -7  -4 6123.16 1037.34  11
  -1  -7   4 6305.97 906.795   9
   1  -7  -5 1804.16 429.272  13
   1   7   5 2817.54 503.117  12
  -1  -7   5 1790.38 489.963  19
   1  -7  -5 1980.17 645.733  11
  -1  -7   5 2196.64 599.469   9
   1  -7  -5 2817.16 533.969  15
   1  -7  -6 5589.39 674.995  13
   1   7   6 6201.90 728.917  12
  -1  -7   6 4513.64 711.892  19
   1  -7  -6 5762.26 1056.85  11
  -1  -7   6 5221.62 809.715   9
   1  -7  -7 7932.13 785.141  13
   1   7   7 6826.99 774.698  12
  -1  -7   7 6040.57 796.912  19
   1  -7  -7 8036.91 1179.69  11
  -1  -7   7 7898.39 975.145   9
   1  -7  -8 7462.58 763.905  13
  -1  -7   8 8119.04 742.291  13
  -1  -7   8 5888.43 813.747  19
   1  -7  -8 7964.00 1216.21  11
  -1  -7   8 6795.06 894.057   9
  -1  -7   9 2528.69 438.622  13
  -1  -7   9 1814.10 453.335  19
   1  -7  -9 2643.05 801.956  11
   1  -7  -9 2312.32 473.755  13
  -1  -7   9 2251.87 538.068   9
   1  -7 -10 2788.54 484.248  13
  -1  -7  10 2462.45 443.856  13
  -1  -7  10 1287.30 430.274  19
   1  -7 -10 1972.93 652.116  11
  -1  -7  10 1656.23 497.601   9
   1  -7 -11 19267.1 1108.58  13
  -1  -7  11 16029.8 1020.13  13
  -1  -7  11 14216.7 1098.11  19
   1  -7 -11 18739.4 1655.75  11
  -1  -7  11 14318.1 1197.04   9
   1  -7 -12-112.728 271.853  13
  -1  -7  12 184.242 237.893  13
  -1  -7  12 95.1893 253.635  19
   1  -7 -12-205.731 450.842  11
   1   7  12 500.106 320.855  17
  -1  -7  12 391.458 382.771   9
   1  -7 -13 811.255 308.528  13
  -1  -7  13 1344.66 322.586  13
  -1  -7  13 1143.79 369.391  19
   1  -7 -13 1888.74 600.183  11
   1   7  13 1208.50 420.798  17
  -1  -7  13 644.618 345.276   9
   1  -7 -14 780.976 292.948  13
  -1  -7  14 968.378 288.249  13
  -1  -7  14 988.502 322.943  19
   1  -7 -14 908.187 433.473  11
  -1   7 -14 733.778 260.204  32
   1   7  14 702.933 316.754  17
  -1  -7  14 629.335 318.054   9
   1  -7 -15 3943.45 462.992  13
  -1  -7  15 3508.43 464.135  13
   1   7  15 2861.76 502.532  17
   1  -7 -15 2886.13 626.011  11
  -1   7 -15 3679.29 431.869  32
  -1  -7  15 3405.14 520.090   9
   1  -7 -16 707.888 245.749  13
  -1  -7  16-3.59240 205.547  13
   1   7  16 229.076 204.300  17
  -1   7 -16 738.257 259.206  32
  -1  -7  16 727.119 330.840   9
   1  -7 -17 16812.1 786.114  13
  -1  -7  17 15226.1 762.876  13
   1   7  17 16542.5 941.689  17
  -1   7 -17 14985.0 763.497  32
  -1  -7  17 16132.8 902.612   9
   1   7  18 7475.10 585.283  17
   1  -7 -18 7412.73 482.908  13
   1  -8  13 5117.29 444.662  14
   1  -8  13 5152.20 425.236  13
   1   8 -13 4780.25 427.966  12
   1  -8  13 5187.09 498.474  19
  -1  -8 -13 4791.08 618.956  11
   1  -8  12 11919.5 709.070  14
   1  -8  12 12183.0 687.135  13
   1   8 -12 11838.9 702.233  12
   1  -8  12 12014.0 796.518  19
  -1  -8 -12 12438.4 1047.54  11
   1  -8  11 3656.76 439.660  14
   1  -8  11 3962.47 424.907  13
   1   8 -11 4224.38 461.763  12
   1  -8  11 4094.46 521.175  19
  -1  -8 -11 4485.36 685.923  11
   1  -8  10 6842.48 616.305  14
   1  -8  10 6511.56 574.193  13
   1   8 -10 7268.68 623.191  12
   1  -8  10 6801.97 673.022  19
  -1  -8 -10 7394.55 898.233  11
   1  -8   9 6227.79 603.107  14
   1  -8   9 6263.76 587.561  13
   1   8  -9 5206.47 555.969  12
   1  -8   9 6063.05 670.038  19
  -1  -8  -9 5067.35 796.158  11
   1  -8   8 38121.5 1459.60  14
   1  -8   8 36422.3 1381.29  13
   1   8  -8 36460.3 1421.90  12
   1  -8   8 35521.0 1558.83  19
  -1  -8  -8 34384.1 1979.85  11
   1  -8   7 149.155 222.452  14
   1  -8   7 419.957 273.228  13
   1   8  -7 540.340 296.960  12
   1  -8   7 605.933 312.650  19
  -1  -8  -7 774.338 474.271  11
   1  -8   6 18117.3 1062.59  14
   1  -8   6 15934.1 956.008  13
   1   8  -6 15799.8 981.421  12
   1  -8   6 16706.9 1104.61  19
  -1  -8  -6 15096.1 1371.89  11
   1  -8   5 8172.86 738.674  14
   1  -8   5 7816.68 724.778  13
   1   8  -5 9815.69 804.095  12
   1  -8   5 7760.73 778.649  19
  -1  -8  -5 7457.81 1009.29  11
   1  -8   4 18176.1 1113.37  14
   1  -8   4 17819.7 1046.35  13
   1   8  -4 17122.6 1046.48  12
   1  -8   4 16604.3 1113.09  19
  -1  -8  -4 14719.9 1348.81  11
   1  -8   3 12199.8 916.445  13
   1   8  -3 11401.4 876.941  12
   1  -8   3 11729.9 944.857  19
  -1  -8  -3 10407.8 1140.54  11
   1  -8   2 2837.76 500.504  13
   1   8  -2 3176.69 520.023  12
  -1  -8  -2 2782.03 476.199  19
   1  -8   2 2791.82 478.593  19
  -1  -8  -2 2076.72 586.257  11
   1  -8   1 6488.52 663.035  13
   1   8  -1 7222.25 714.093  12
  -1  -8  -1 6984.75 741.521  19
  -1  -8  -1 7175.97 964.239  11
   1  -8   0 1787.07 416.403  13
   1   8   0 1840.78 393.938  12
  -1  -8   0 1934.70 440.087  19
   1  -8  -1 6968.59 691.525  13
   1   8   1 6955.65 686.376  12
  -1  -8   1 5778.07 711.986  19
   1  -8  -2 2227.82 431.742  13
   1   8   2 2698.99 442.623  12
  -1  -8   2 2801.40 516.246  19
   1  -8  -2 2320.95 572.558  11
   1   8   3 12707.0 890.195  12
  -1  -8   3 11882.8 1011.78  19
   1  -8  -3 11206.7 1145.91  11
   1  -8  -3 12138.6 871.957  13
  -1  -8   3 12290.4 1107.02   9
   1  -8  -4 16662.7 1012.31  13
   1   8   4 16762.4 997.967  12
  -1  -8   4 16197.3 1146.38  19
   1  -8  -4 18387.4 1480.24  11
  -1  -8   4 18309.7 1300.62   9
   1  -8  -5 7449.13 687.451  13
  -1  -8   5 8581.63 856.982  19
   1  -8  -5 8102.43 997.543  11
  -1  -8   5 10487.8 996.342   9
   1  -8  -6 17341.6 997.624  13
  -1  -8   6 16321.9 1122.83  19
   1  -8  -6 17123.0 1421.30  11
  -1  -8   6 17146.7 1247.44   9
   1  -8  -7 77.9196 257.279  13
  -1  -8   7 1082.09 392.300  19
   1  -8  -7 562.656 489.351  11
  -1  -8   7 704.510 389.528   9
   1  -8  -8 36836.4 1371.32  13
  -1  -8   8 37799.6 1619.20  19
   1  -8  -8 36662.7 2020.54  11
  -1  -8   8 40391.4 1757.92   9
   1  -8  -9 6065.46 578.195  13
  -1  -8   9 4908.70 632.895   9
  -1  -8   9 4858.98 621.932  19
   1  -8  -9 6821.17 916.915  11
   1  -8 -10 6331.96 554.807  13
  -1  -8  10 7077.95 683.909  19
   1  -8 -10 6967.54 908.374  11
  -1  -8  10 7506.85 740.331   9
   1   8  10 6723.05 675.925  17
   1  -8 -11 4342.77 461.502  13
  -1  -8  11 3725.88 490.089  19
  -1  -8  11 4942.82 569.863   9
   1  -8 -11 3811.87 669.734  11
   1   8  11 3860.14 502.245  17
   1  -8 -12 11849.3 678.413  13
  -1  -8  12 12824.7 823.946   9
  -1  -8  12 11477.9 754.601  19
   1   8  12 12472.9 808.566  17
   1  -8 -13 5012.91 430.670  13
  -1  -8  13 3785.34 416.617  19
   1   8  13 4235.04 464.249  17
   1   8  14 721.829 213.716  17
   1  -9   5 3431.47 343.887  13
   1  -9   4 1672.10 261.364  13
   1  -9   3 5946.82 467.670  13
   1   9  -3 5632.31 457.759  12
   1   9  -2 6943.02 500.092  12
   1  -9   2 8630.22 576.528  13
   1  -9   1 6406.54 491.398  13
   1  -9   0 446.490 219.340  13
   1  -9  -1 6710.01 510.806  13
   1  -9  -2 8614.59 568.763  13
  -1  -9   3 4859.09 478.585  19
   1  -9  -3 5760.42 466.425  13
   1  -9  -4 1499.05 262.241  13
  -1  -9   4 1614.63 300.490  19
  -1  -9   5 3178.27 385.702  19
   1  -9  -5 4302.66 386.169  13
  -2   0   0 25397.6 1239.43  26
   2   0   0 26618.2 1346.14   5
   2   0   0 25356.9 1079.42  24
  -2   0   0 26401.4 1323.83   8
   2   0   0 27723.7 1025.44  22
  -2   0   0 25479.4 914.241  21
  -2   0   0 24704.9 1435.35  29
  -2   0  -1 47912.0 1958.11  29
  -2   0  -1 46711.9 1628.22  26
  -2   0   1 45151.1 1678.06  26
   2   0   1 46194.2 1737.31   5
   2   0  -1 43943.5 1709.02   5
   2   0   1 47209.6 1409.59  24
   2   0  -1 44477.9 1438.75  24
  -2   0  -1 48284.5 1708.36   8
  -2   0   1 44502.4 1743.50   8
   2   0  -1 46912.1 1285.80  22
  -2   0  -1 45536.9 1238.18  21
  -2   0   1 44437.3 1193.82  21
   2   0   1 46028.6 1347.65  22
   2   0   1 48829.0 1548.31   6
  -2   0   1 45536.3 1934.64  29
  -2   0  -2 23763.7 1406.70  29
  -2   0  -2 25979.1 1191.60  26
  -2   0   2 22995.0 1238.27  26
   2   0   2 24646.8 1289.74   5
   2   0  -2 23832.0 1273.55   5
  -2   0  -2 24295.6 1176.80   8
   2   0   2 23492.9 984.658  24
   2   0  -2 23228.9 1082.99  24
  -2   0   2 24477.2 1340.76   8
   2   0   2 22918.7 983.961  22
  -2   0  -2 24365.6 920.035  21
  -2   0   2 23362.4 856.201  21
  -2   0   2 20904.0 1344.93  29
   2   0   2 24948.4 1128.53   6
  -2   0  -3 440.368 247.285  26
  -2   0   3 1195.97 397.180  26
   2   0  -3 1154.52 334.008  24
   2   0   3 991.087 340.818   5
   2   0  -3 863.815 359.792   5
  -2   0   3 983.185 381.840   8
  -2   0  -3 676.073 202.806  21
  -2   0   3 795.290 199.704  21
   2   0   3 372.827 211.966  22
  -2   0  -3 682.717 380.458  29
  -2   0   3 597.977 382.399  29
   2   0   3 523.229 231.165   6
  -2   0  -4 50936.9 1619.40  26
   2   0   4 53800.4 1903.66   5
  -2   0  -4 52877.0 2103.60  29
   2   0  -4 54423.8 1719.16  24
  -2   0   4 54010.2 2066.10   8
   2   0  -4 51907.4 1887.60   5
  -2   0  -4 52799.4 1389.26  21
  -2   0   4 53709.8 1256.83  21
   2   0   4 55996.2 1781.15   6
   2   0   4 50957.7 1532.39  22
  -2   0   4 52112.8 1983.54  26
  -2   0   4 52871.1 2151.91  29
  -2   0   5 4719.06 692.588  26
   2   0   5 5530.40 665.083   5
   2   0  -5 4311.40 608.554   5
   2   0  -5 4918.20 582.604  24
  -2   0   5 5192.18 722.356   8
   2   0   5 4788.22 534.724  22
  -2   0  -5 4909.82 457.755  21
  -2   0   5 5437.44 417.040  21
   2   0   5 5748.89 625.772   6
  -2   0  -5 4274.09 676.468  29
  -2   0  -6 1928.75 520.294  29
   2   0  -6 991.928 303.946  25
   2   0  -6 1641.32 416.811  24
   2   0   6 1640.81 379.344   5
   2   0   6 973.357 330.078  22
   2   0  -6 1406.75 397.057   5
  -2   0   6 1163.01 443.293  26
  -2   0   6 1497.30 518.360   8
  -2   0  -6 1307.20 267.367  21
   2   0   6 1891.82 386.118   6
   2   0   7 6347.18 683.525   5
  -2   0   7 5169.36 788.702  26
   2   0  -7 4460.15 499.564  25
   2   0  -7 5050.81 627.554  24
   2   0  -7 5817.41 704.175   5
   2   0   7 4471.31 546.513  22
  -2   0  -7 5349.75 477.835  21
  -2   0  -7 5477.88 774.053  29
  -2   0   7 4374.10 722.656   8
   2   0   7 6146.53 669.047   6
   2   0   8 14588.4 1043.15   5
  -2   0   8 10876.9 1043.20  26
  -2   0  -8 11779.8 819.770  25
   2   0  -8 13402.9 992.031  24
   2   0  -8 13649.8 1045.46   5
  -2   0   8 12561.1 1139.43   8
  -2   0  -8 13152.1 755.007  21
   2   0  -8 12765.0 846.074  25
   2   0   8 14439.4 1053.77   6
  -2   0  -8 14135.7 1185.59  29
   2   0   9 5113.47 628.723   5
  -2   0   9 4333.57 733.078  26
  -2   0  -9 4241.41 526.670  25
   2   0  -9 4244.95 615.573  24
  -2   0  -9 4014.53 447.942  21
  -2   0   9 4269.66 727.294   8
   2   0   9 3976.52 605.943   6
  -2   0  -9 4023.73 708.014  29
   2   0  -9 4118.03 529.804  25
   2   0 -10 1195.19 309.418  25
  -2   0 -10 1282.11 328.147  25
  -2   0  10 1306.19 440.035   8
  -2   0 -10 1197.71 264.493  21
   2   0  10 2081.41 446.453   6
  -2   0 -10 1364.67 482.533  29
   2   0 -10 1553.83 414.367  24
  -2   0  10 1148.48 494.816  26
   2   0 -11 3054.35 461.687  25
  -2   0 -11 2811.44 461.910  25
   2   0 -11 2766.38 532.457  24
  -2   0 -11 2571.19 380.349  21
  -2   0  11 2134.60 602.463   8
  -2   0 -11 2315.02 604.257  29
   2   0  11 3795.94 632.798   6
  -2   0  11 2582.94 648.974  26
  -2   0  12 6676.83 954.739  26
   2   0 -12 6796.42 683.308  25
  -2   0 -12 6248.19 663.808  25
   2   0 -12 6728.19 801.757  24
  -2   0  12 6226.17 914.264   8
  -2   0 -12 6255.70 550.942  21
   2   0 -12 7198.85 633.919   7
   2   0  12 7649.42 878.854   6
  -2   0 -12 6431.78 889.090  29
   2   0 -13 1288.86 423.477  24
  -2   0 -13 1137.89 328.337  25
  -2   0  13 1138.79 536.213   8
   2   0  13 1953.17 472.420   6
   2   0 -13 767.466 307.797   7
  -2   0  13 873.514 474.514  26
  -2   0 -13 1897.20 568.140  29
  -2   0  14 144293. 4417.17  26
  -2   0 -14 137579. 3153.63  25
   2   0 -14 144157. 3685.12  24
  -2   0  14 134968. 4230.60   8
   2   0 -14 140707. 3002.99   7
   2   0  14 154076. 4098.30   6
  -2   0 -14 152547. 4312.16  29
   2   0  14 150422. 3527.91  28
  -2   0  15 10918.3 1289.10  26
  -2   0 -15 11141.4 920.471  25
   2   0 -15 10624.3 1065.16  24
  -2   0  15 12239.8 1324.53   8
   2   0  15 11259.3 1023.87  12
   2   0 -15 12418.9 908.792   7
   2   0 -15 11730.9 1076.09  18
  -2   0 -15 12529.7 1245.84  30
  -2   0 -15 12672.5 1015.71  33
  -2   0 -15 13738.7 1353.17  29
  -2   0  15 12280.9 1139.17   9
   2   0  15 12559.5 1217.63   6
   2   0  15 12426.8 1055.67  28
  -2   0  16 3218.77 622.123   9
  -2   0  16 3884.07 829.099  26
  -2   0 -16 3783.19 552.054  25
   2   0 -16 3745.56 647.119  24
   2   0 -16 3271.61 508.505  13
  -2   0 -16 4655.72 772.047  30
  -2   0  16 3491.81 780.538   8
   2   0  16 3163.64 553.204  12
   2   0 -16 3416.65 543.009   7
   2   0 -16 3033.34 568.428  18
   2   0  16 4014.44 729.149   6
   2   0 -16 4070.03 575.920  33
  -2   0 -16 3804.90 588.598  33
  -2   0 -16 3056.04 721.997  29
   2   0  16 4357.31 673.200  28
  -2   0  17-170.667 330.865   9
  -2   0  17-347.937 335.362  26
  -2   0 -17 528.334 264.700  25
   2   0 -17 135.198 218.352  24
   2   0 -17 6.57239 192.722  13
  -2   0  17-323.609 376.321   8
   2   0  17 37.1574 270.590  12
   2   0 -17 322.451 293.189  18
   2   0  17 154.356 264.748   6
   2   0 -17 37.9015 240.101   7
   2   0  17-51.7407 293.136  17
  -2   0 -17-198.452 291.563  33
   2   0 -17 333.384 215.877  33
  -2   0 -17-174.687 409.726  30
  -2   0 -17-230.021 367.244  29
   2   0  17 365.200 309.592  28
   2   0 -18 54851.5 1908.45  13
   2   0  18 52640.8 2252.17  12
   2   0 -18 55727.7 2068.31  33
   2   0 -18 55626.9 2286.75  18
  -2   0 -18 52205.2 2092.36  33
  -2   0 -18 53522.0 2586.59  30
   2   0  18 58150.0 2344.33  17
  -2   0  18 51012.7 2408.11   9
   2   0  18 55726.4 1898.15  15
   2   0 -19 44892.7 1847.29  33
   2   0 -19 46855.5 1731.25  13
  -2   0 -19 46268.8 1961.36  33
   2   0  19 42951.8 2036.44  12
   2   0 -19 44713.2 2022.43  18
  -2   0 -19 45674.0 2359.03  30
  -2   0  19 42093.7 2184.22   9
   2   0  19 44616.8 2035.97  17
   2   0  19 49230.8 1736.58  15
   2   0  20 2637.51 446.731  15
  -2   0  20 2270.33 596.740   9
  -2   0 -20 2510.46 523.562  33
   2   0 -20 2056.33 433.178  13
   2   0  20 2864.12 588.062  12
   2   0 -20 2096.97 440.632  33
   2   0 -20 2335.15 515.440  18
   2   0  20 2429.97 548.151  17
  -2   0 -20 3011.83 671.452  30
   2   0 -21 6607.59 654.162  13
   2   0  21 8259.39 918.481  12
  -2   0 -21 8769.28 1047.99  30
   2   0 -21 7374.15 725.569  33
  -2   0 -21 7547.19 797.855  33
   2   0  21 7366.36 827.688  17
  -2   0  21 7213.34 939.052   9
  -2   0  22-435.939 368.363   9
   2   0 -22 417.514 232.172  13
  -2   0 -22 164.044 342.820  30
   2   0  22 643.033 373.255  12
   2   0  22 185.384 315.031  17
  -2   0 -22 1148.44 356.252  33
  -2   0  23 852.513 389.796   9
   2   0  23 792.715 368.531  12
  -2   0 -23 579.123 273.310  33
   2   0  23 998.811 345.173  17
  -2   0 -23 982.089 460.310  30
  -2   0  24 2554.36 518.643   9
   2   0  24 3425.38 522.120  12
  -2   0 -24 3729.65 488.588  33
   2   0  24 2478.34 417.967  17
   2   0  25 18288.1 995.310  12
  -2   0 -25 21170.0 995.885  33
   2   0  25 17700.8 965.191  17
  -2   0  25 19012.2 1109.62   9
  -2   0  26 551.004 250.774   9
   2   0  26 313.775 163.875  17
  -2   0 -26 558.992 188.423  33
  -2   0  26 578.683 277.360  31
  -2  -1 -26 4648.60 416.553  33
  -2   1  26 3820.15 470.250   9
  -2  -1 -25 7197.06 588.232  33
   2  -1  25 6280.38 582.029  17
  -2  -1 -25 6523.23 716.213  30
  -2   1  25 6853.24 677.677   9
  -2   1  24 3818.41 559.899   9
   2   1 -24 3014.28 431.352  33
  -2  -1 -24 3832.21 612.976  30
  -2  -1 -24 3205.78 450.031  33
   2  -1  24 3369.06 478.609  17
  -2   1  23 3967.62 603.381   9
   2  -1  23 2904.34 530.566  12
  -2  -1 -23 3881.66 521.801  33
   2   1 -23 4168.00 541.428  33
  -2  -1 -23 3330.73 628.154  30
   2  -1  23 4446.14 590.273  17
  -2   1  22 3216.18 589.266   9
   2  -1  22 1938.43 522.891  12
  -2  -1 -22 1546.25 399.204  33
   2   1 -22 3771.54 548.794  33
   2  -1  22 4180.51 586.094  17
  -2  -1 -22 3437.22 724.559  30
  -2   1  21 3482.10 630.958   9
   2  -1  21 3388.99 647.456  12
   2   1 -21 2374.52 466.677  18
   2  -1  21 2374.38 494.826  17
   2   1 -21 2594.13 509.483  33
  -2  -1 -21 3933.95 760.346  30
  -2  -1 -21 3636.88 580.876  33
  -2   1  20 2627.08 604.207   9
  -2  -1 -20 2528.37 654.337  30
   2  -1  20 2102.74 558.217  12
   2   1 -20 2083.64 490.954  18
   2  -1  20 1442.90 434.408  17
   2   1 -20 2364.91 488.406  33
  -2  -1 -20 1626.98 447.937  33
  -2   1  19 3144.32 654.332   9
   2   1 -19 3930.16 651.902  18
   2  -1  19 3870.09 710.262  12
   2   1 -19 3200.63 570.738  33
  -2  -1 -19 2905.38 519.524  33
   2  -1  19 2609.62 560.059  17
  -2  -1 -19 4419.77 847.880  30
   2   1 -18 2527.36 510.906  33
   2  -1  18 3572.71 514.743  15
  -2   1  18 2358.57 602.893   9
  -2  -1 -18 3050.47 776.633  30
   2   1 -18 2646.24 466.199  13
   2   1 -18 2168.18 539.901  18
   2  -1  18 2795.04 628.757  12
  -2  -1 -18 3827.94 642.943  33
   2  -1  18 2400.01 531.348  17
   2  -1  17 12167.9 1067.00  17
  -2   1  17 13781.5 1489.25  26
   2   1 -17 11536.5 876.900  13
   2   1 -17 12833.1 1166.09  24
  -2   1  17 13184.4 1450.86   8
   2  -1  17 11694.8 1087.30  12
   2   1 -17 14850.3 1210.84  18
   2   1 -17 11350.1 997.734  33
  -2  -1 -17 11977.4 1020.11  33
   2  -1  17 15402.0 1418.85   6
  -2  -1 -17 12517.6 1359.96  30
  -2  -1 -17 13381.6 1429.57  29
  -2   1  17 12553.8 1192.90   9
   2  -1  17 12395.8 1110.22  28
   2  -1  17 12471.7 922.018  15
  -2   1  16 24433.5 1922.01  26
   2   1 -16 22154.3 1187.81  13
   2   1 -16 22155.8 1372.25  25
   2   1 -16 22645.9 1528.41  24
  -2   1  16 21975.5 1827.46   8
   2  -1  16 21767.3 1444.21  12
   2   1 -16 21671.3 1334.10  33
  -2  -1 -16 22553.4 1747.94  30
   2  -1  16 24548.9 1758.50   6
  -2  -1 -16 21349.6 1347.93  33
  -2  -1 -16 25234.8 1910.19  29
   2   1 -16 22861.3 1474.03  18
  -2   1  16 21985.8 1536.59   9
   2  -1  16 23152.8 1487.97  28
   2  -1  16 22219.3 1208.98  15
   2   1 -15 5613.02 772.139  24
  -2   1  15 6238.60 1029.44   8
   2  -1  15 6109.31 798.302  12
  -2   1  15 5994.77 1024.47  26
  -2  -1 -15 6137.16 725.011  33
   2   1 -15 5966.53 720.837  25
   2   1 -15 5334.37 690.538  33
  -2  -1 -15 5504.27 631.220  25
  -2  -1 -15 5982.53 948.455  30
  -2  -1 -15 7559.55 1070.43  29
   2  -1  15 7800.17 1030.55   6
   2  -1  15 7273.90 847.491  28
   2   1 -15 6675.72 819.183  18
   2  -1  15 6878.10 674.792  15
  -2   1  14 868.064 464.813  26
   2   1 -14 567.682 257.251  25
  -2  -1 -14 468.253 235.943  25
   2   1 -14 641.179 329.600  24
  -2   1  14 735.986 493.360   8
  -2  -1 -14 472.822 402.870  29
   2  -1  14 466.608 318.380   6
  -2   1  13 5714.39 919.495  26
  -2  -1 -13 5540.72 622.595  25
  -2   1  13 4669.43 819.357   8
   2   1 -13 5382.32 659.111  25
   2  -1  13 6038.23 850.934   6
   2   1 -13 4730.95 689.465  24
  -2  -1 -13 5619.41 914.792  29
   2   1 -12 14362.9 1028.24  25
  -2   1  12 11890.5 1244.69   8
  -2  -1 -12 16508.1 1439.31  29
   2  -1  12 15084.9 1275.46   6
  -2  -1 -12 13710.7 943.315  25
   2   1 -12 14663.4 1156.65  24
  -2   1  12 13610.2 1340.49  26
  -2   1  11 5387.43 838.260  26
   2   1 -11 5293.21 645.845  25
  -2  -1 -11 4625.45 563.432  25
   2   1 -11 6476.59 769.035  24
  -2   1  11 5533.22 858.208   8
  -2  -1 -11 5395.26 506.105  21
   2  -1  11 6939.48 848.339   6
  -2  -1 -11 5877.62 882.976  29
  -2  -1 -10 1239.56 339.865  26
  -2   1  10 1276.59 487.576  26
   2   1 -10 1850.20 378.726  25
  -2  -1 -10 1647.68 335.776  25
   2   1 -10 1650.87 456.593  24
  -2   1  10 1962.08 555.537   8
  -2  -1 -10 1259.93 287.806  21
  -2  -1 -10 1392.84 512.470  29
   2  -1  10 1809.77 458.858   6
  -2  -1  -9 1508.56 378.446  26
  -2   1   9 2774.41 608.385  26
  -2  -1  -9 2719.81 431.507  25
   2   1  -9 2909.62 477.139  25
   2   1  -9 3453.52 566.417  24
  -2  -1  -9 2056.15 353.533  21
  -2   1   9 2785.33 591.939   8
   2  -1   9 3702.42 621.589   6
   2   1  -9 2587.10 467.653   5
  -2  -1  -9 2372.55 599.810  29
  -2  -1  -8 39139.6 1646.31  26
  -2  -1  -8 37083.5 1947.89  29
   2   1  -8 38226.0 1517.90  25
   2   1  -8 38648.0 1649.81   5
   2   1  -8 41375.7 1703.26  24
  -2   1   8 35583.1 1880.30   8
  -2  -1  -8 37781.4 1246.91  21
   2  -1   8 39619.4 1828.23   6
  -2  -1  -7 59233.7 2007.66  26
  -2   1   7 57114.2 2223.32  26
   2   1  -7 57588.1 1830.70  25
   2  -1   7 63218.9 2036.44   5
   2   1  -7 57974.0 2019.13   5
   2   1  -7 61465.2 1991.55  24
  -2   1   7 54061.8 2237.77   8
  -2  -1  -7 50435.4 2176.26  29
  -2  -1  -7 57941.6 1529.50  21
   2  -1   7 62052.8 2189.72   6
  -2  -1  -6 13270.5 959.403  26
  -2   1   6 13247.5 1050.09  26
   2  -1   6 14157.1 976.250   5
   2   1  -6 13424.3 978.653   5
   2   1  -6 14265.0 957.769  24
  -2   1   6 13148.5 1117.91   8
   2   1  -6 13142.5 867.529  25
  -2  -1  -6 13915.7 753.158  21
   2  -1   6 15302.4 1091.30   6
  -2  -1  -6 12033.4 1095.38  29
  -2   1   5 18357.2 1193.06  26
   2   1  -5 17360.7 983.791  25
   2  -1   5 19411.9 1137.62   5
   2   1  -5 18286.1 1130.67   5
   2   1  -5 18837.7 1065.70  24
  -2   1   5 16921.5 1229.30   8
  -2  -1  -5 18691.0 857.343  21
  -2  -1  -5 18554.1 1110.78  26
   2  -1   5 19298.9 1183.75   6
  -2  -1  -5 17059.1 1255.67  29
  -2  -1  -4 9777.51 832.476  26
  -2   1   4 9296.65 834.606  26
   2   1  -4 8576.22 704.813  25
   2   1  -4 9154.57 831.351   5
   2  -1   4 9344.79 803.970   5
  -2  -1  -4 9733.57 788.483   8
   2   1  -4 10702.1 783.865  24
  -2   1   4 7764.72 821.654   8
   2   1  -4 9882.73 612.074  22
  -2   1   4 9733.53 539.766  21
  -2  -1  -4 9344.24 612.900  21
   2  -1   4 9614.57 828.955   6
  -2  -1  -4 9113.69 918.158  29
  -2  -1  -3 112330. 2708.93  26
   2   1  -3 113615. 2743.84   5
   2  -1   3 118651. 2785.72   5
  -2  -1  -3 111475. 2687.15   8
   2   1  -3 115342. 2415.62  24
  -2   1   3 108086. 2816.35   8
   2   1  -3 115745. 2074.51  22
  -2   1   3 118391. 1882.15  21
  -2  -1  -3 112004. 2020.05  21
  -2   1   3 107711. 3085.06  29
  -2   1   3 114362. 2684.33  26
   2  -1   3 121317. 2807.81   6
  -2  -1  -3 109061. 3001.51  29
  -2  -1  -2 55832.9 1924.57  26
   2   1  -2 54632.2 1907.97   5
   2  -1   2 53937.1 1884.01   5
   2  -1   2 53110.0 1632.56  24
   2   1  -2 55574.3 1617.74  24
  -2   1   2 52166.1 1907.12   8
   2   1  -2 58471.1 1490.33  22
  -2   1   2 53200.0 1287.21  21
  -2  -1  -2 56097.1 1422.30  21
   2  -1   2 56236.9 1913.76   6
  -2   1   2 50752.4 2121.01  29
  -2   1   2 53922.0 1784.00  26
  -2  -1  -2 53855.7 1897.36   8
  -2  -1  -2 54679.3 2105.17  29
  -2  -1  -1 18541.9 1147.78  26
   2   1  -1 17405.7 1096.38   5
   2  -1   1 19407.6 1153.52   5
  -2  -1  -1 17601.2 1134.72   8
   2  -1   1 18488.8 977.140  24
   2   1  -1 18230.7 909.419  24
  -2   1   1 18730.4 1112.60   8
   2   1  -1 17992.9 850.431  22
  -2   1   1 18591.9 783.104  21
  -2  -1  -1 18073.2 807.221  21
  -2  -1  -1 19366.8 1259.47  29
   2  -1   1 18720.6 1110.19   6
  -2   1   1 18623.7 1309.12  29
  -2   1   0 4529.59 684.784  29
  -2  -1   0 4162.29 606.223  26
   2   1   0 4199.24 585.087   5
   2  -1   0 5101.41 622.466   5
  -2  -1   0 3835.70 587.588   8
   2  -1   0 4357.40 516.429  24
   2   1   0 4772.03 468.907  24
  -2   1   0 4172.26 529.186   8
   2   1   0 3874.38 436.562  22
  -2   1   0 4591.05 414.835  21
  -2  -1   0 4625.17 429.756  21
  -2  -1   0 4034.69 651.137  29
   2  -1   0 4490.11 576.210   6
  -2   1  -1 20162.4 1305.23  29
   2   1   1 18228.4 1145.92   5
  -2  -1   1 17953.9 1154.47  26
   2  -1  -1 19081.0 1167.99   5
  -2  -1   1 18022.1 1170.41   8
   2  -1  -1 19481.6 1042.35  24
  -2   1  -1 18590.0 804.120  21
   2   1   1 17315.7 870.785  22
  -2  -1   1 19029.0 810.006  21
   2  -1  -1 19293.7 1104.40   6
  -2  -1   1 19008.1 1233.16  29
   2   1   2 53569.4 1946.01   5
  -2  -1   2 55132.4 2035.24  26
   2  -1  -2 51797.1 1918.28   5
   2  -1  -2 55159.5 1745.67  24
  -2  -1   2 57098.8 2101.46   8
   2   1   2 55328.0 1564.20  22
   2  -1  -2 54931.9 1864.79   6
  -2   1  -2 54197.7 1384.18  21
  -2  -1   2 56716.2 1378.37  21
  -2  -1   2 57490.7 2147.10  29
  -2   1  -2 54817.1 2125.04  29
   2   1   3 109339. 2806.42   5
  -2  -1   3 112499. 2960.16  26
   2  -1  -3 117264. 2590.79  24
   2  -1  -3 111851. 2830.42   5
  -2  -1   3 110439. 3007.69   8
   2   1   3 112133. 2274.06  22
  -2   1  -3 111239. 2008.98  21
  -2  -1   3 113691. 1938.10  21
   2  -1  -3 113363. 2670.47   6
  -2   1  -3 114944. 3051.80  29
  -2  -1   3 113182. 3027.02  29
   2   1   4 9644.76 871.685   5
   2  -1  -4 9014.84 788.317  24
  -2  -1   4 9395.13 946.917   8
   2  -1  -4 9003.21 859.994   5
   2   1   4 9355.13 707.533  22
  -2  -1   4 10357.7 598.361  21
  -2  -1   4 9153.55 917.958  26
  -2   1  -4 8894.82 610.363  21
  -2   1  -4 9446.03 917.469  29
   2  -1  -4 8608.46 772.536   6
  -2  -1   4 9866.96 944.547  29
   2   1   5 18178.4 1203.17   5
  -2  -1   5 17437.2 1249.64  26
   2  -1  -5 19377.0 1165.12   6
   2  -1  -5 18639.6 1107.57  24
  -2  -1   5 17659.0 1300.74   8
   2  -1  -5 18657.0 1217.09   5
   2   1   5 18404.6 983.322  22
  -2   1  -5 18222.9 855.539  21
  -2  -1   5 19317.6 796.056  21
  -2   1  -5 18480.1 1262.58  29
  -2  -1   5 17504.9 1231.19  29
  -2  -1   6 12164.5 1131.13  26
  -2   1  -6 13702.7 847.586  25
   2  -1  -6 14640.5 1025.35  24
  -2  -1   6 12598.9 1140.72   8
   2   1   6 11776.3 829.207  22
  -2   1  -6 11701.8 697.237  21
  -2  -1   6 14799.6 697.278  21
  -2  -1   6 11994.2 1065.54  29
   2   1   6 14234.4 1077.73   5
  -2   1  -6 13288.6 1113.06  29
   2  -1  -6 12612.7 969.657   6
   2   1   7 51989.0 2011.98   5
  -2  -1   7 55811.0 2292.46  26
  -2   1  -7 53671.1 1685.22  25
   2  -1  -7 57819.1 2003.51  24
  -2  -1   7 51083.0 2216.33   8
   2   1   7 51682.3 1707.99  22
  -2   1  -7 57074.6 1557.11  21
  -2  -1   7 58444.0 2295.32  29
  -2   1  -7 58449.6 2284.53  29
   2   1   8 37176.1 1751.11   5
  -2  -1   8 35307.0 1911.27  26
  -2   1  -8 37052.7 1431.37  25
   2  -1  -8 36848.1 1665.99  24
  -2  -1   8 36165.2 1948.43   8
   2   1   8 37483.1 1505.53  22
  -2   1  -8 38523.4 1881.30  29
  -2   1  -8 36136.4 1260.81  21
  -2  -1   8 36636.7 1889.44  29
  -2   1  -9 3163.52 471.451  25
   2  -1  -9 2297.99 478.179  24
   2   1   9 1735.44 478.175   5
   2   1   9 2483.16 450.606  22
  -2   1  -9 2651.46 390.872  21
  -2  -1   9 3140.52 675.624   8
   2  -1  -9 2677.50 366.479   7
  -2  -1   9 2494.86 609.030  26
  -2   1  -9 2648.44 589.224  29
  -2  -1  10 1711.53 531.586  26
  -2   1 -10 1635.89 359.591  25
   2  -1 -10 1491.96 408.881  24
   2   1  10 484.395 342.035   5
   2   1  10 1085.27 310.888  22
  -2  -1  10 1856.94 593.033   8
  -2   1 -10 1009.13 274.692  21
   2  -1 -10 1047.16 280.511   7
   2   1  10 1595.94 395.838   6
  -2   1 -10 1065.99 412.469  29
   2   1  11 5486.64 746.339   5
  -2  -1  11 4761.63 791.901  26
  -2   1 -11 5367.29 615.810  25
   2  -1 -11 5973.50 742.993  24
  -2   1 -11 5850.07 547.617  21
  -2  -1  11 5196.34 859.247   8
   2  -1 -11 5540.46 565.355   7
  -2   1 -11 6372.48 872.461  29
   2   1  11 5605.97 711.705   6
  -2   1 -12 13595.4 983.339  25
  -2  -1  12 12076.0 1271.05  26
   2  -1 -12 12995.1 1104.10  24
  -2  -1  12 12887.9 1276.53   8
  -2   1 -12 13778.2 835.599  21
   2  -1 -12 13630.5 894.544   7
   2   1  12 16802.2 1220.25   6
  -2   1 -12 14611.3 1251.43  29
  -2  -1  13 5307.04 875.281  26
  -2   1 -13 5261.36 645.557  25
   2  -1 -13 5540.01 759.770  24
  -2  -1  13 6102.50 947.647   8
  -2   1 -13 4925.86 521.166  21
   2  -1 -13 4947.82 585.265   7
  -2   1 -13 6107.03 856.549  29
   2   1  13 5967.73 697.254  28
   2   1  13 5508.29 749.136   6
  -2  -1  14 470.358 337.958  26
  -2   1 -14 402.229 229.961  25
   2  -1 -14 694.202 291.830  24
  -2  -1  14 861.002 465.128   8
   2  -1 -14 637.710 305.300   7
   2   1  14 195.788 250.822   6
  -2   1 -14 490.265 356.815  29
   2   1  14 115.876 260.677  28
  -2  -1  15 5849.02 971.897  26
   2  -1 -15 6513.28 670.817  13
  -2   1 -15 6236.81 720.696  25
   2  -1 -15 5101.96 747.273  24
   2   1  15 6031.63 771.760  12
  -2  -1  15 4447.45 803.664   8
   2  -1 -15 5408.39 649.124   7
   2   1  15 6054.82 844.237   6
   2  -1 -15 6615.78 813.883  18
  -2   1 -15 6575.71 735.177  33
  -2   1 -15 8164.84 1022.42  29
  -2  -1  15 6205.23 887.666   9
   2   1  15 5634.09 729.538  28
  -2   1 -16 22622.7 1342.23  33
  -2  -1  16 23095.0 1868.18  26
   2  -1 -16 23988.4 1272.26  13
  -2   1 -16 22828.1 1364.15  25
  -2  -1  16 21017.7 1541.72   9
   2  -1 -16 22240.1 1505.38  24
  -2  -1  16 22513.1 1768.70   8
   2   1  16 23003.4 1474.90  12
  -2  -1  16 22624.8 1250.00   4
   2   1  16 23337.0 1609.83   6
   2  -1 -16 22149.4 1275.56   7
   2  -1 -16 24048.4 1543.28  18
   2   1  16 21536.6 1402.11  17
   2   1  16 20322.5 1377.88  28
  -2  -1  17 14881.4 1539.88  26
  -2   1 -17 11961.8 1011.25  25
   2  -1 -17 14046.4 980.032  13
   2  -1 -17 11059.1 1074.59  24
   2   1  17 12709.5 1110.16  12
   2   1  17 14941.4 1326.25   6
  -2   1 -17 13657.7 1079.05  33
   2  -1 -17 12629.6 986.978   7
   2  -1 -17 14108.4 1185.93  18
   2   1  17 13460.1 1132.29  17
  -2  -1  17 12242.1 1201.42   9
   2   1  17 12133.5 1109.37  28
  -2  -1  18 1994.25 561.427   9
   2  -1 -18 2097.03 470.276  13
   2   1  18 3498.02 651.762  12
  -2   1 -18 2704.74 503.691  33
   2  -1 -18 2353.32 525.431  18
   2   1  18 2874.65 619.052  17
  -2  -1  19 3227.31 664.475   9
   2  -1 -19 3376.34 509.826  13
   2   1  19 4463.64 717.998  12
  -2   1 -19 3277.28 574.576  33
   2   1  19 2436.81 541.058  17
   2  -1 -19 3763.01 637.175  18
  -2  -1  20 2499.35 597.270   9
   2  -1 -20 1670.12 376.439  13
   2   1  20 2739.47 610.006  12
  -2   1 -20 2424.40 483.503  33
   2   1  20 1295.17 451.825  17
   2  -1 -20 2408.35 501.501  18
  -2  -1  21 4496.25 750.449   9
   2  -1 -21 2528.63 453.899  13
   2   1  21 3328.29 608.079  12
   2   1  21 2358.13 492.767  17
  -2   1 -21 3014.47 503.125  33
   2   1  21 3327.22 473.721  15
  -2  -1  22 2616.82 619.564   9
   2  -1 -22 3605.80 486.681  13
   2   1  22 2656.22 496.526  12
  -2   1 -22 3855.54 538.294  33
   2   1  22 2959.71 534.101  17
  -2  -1  23 3393.97 613.494   9
   2  -1 -23 3934.81 476.580  13
   2   1  23 3493.91 544.749  12
   2   1  23 3655.74 538.980  17
  -2   1 -23 4551.82 548.338  33
  -2  -1  24 2897.50 518.669   9
   2  -1 -24 3701.92 446.127  13
   2   1  24 3318.52 489.219  12
  -2   1 -24 3626.03 472.154  33
  -2  -1  24 4416.82 633.217  31
   2   1  24 2922.92 474.321  17
   2   1  25 6576.95 586.670  12
  -2   1 -25 8086.65 601.888  33
   2   1  25 6399.19 586.797  17
  -2  -1  25 5397.88 642.251  31
  -2  -1  25 6565.44 653.671   9
  -2   1 -26 5664.93 446.962  33
  -2  -1  26 4975.42 524.011   9
  -2   2  25 161.958 257.254   9
  -2  -2 -25 290.562 155.019  33
   2  -2  25 302.872 184.795  17
  -2  -2 -25 473.500 294.693  30
  -2   2  24 3366.02 481.443   9
   2   2 -24 3503.51 456.105  33
  -2  -2 -24 4262.02 469.897  33
  -2  -2 -24 3694.44 629.458  30
   2  -2  24 3001.98 429.550  17
  -2   2  23 1917.40 463.974   9
   2   2 -23 1579.36 368.383  33
  -2  -2 -23 1544.15 344.619  33
   2  -2  23 1190.00 327.786  17
  -2  -2 -23 1432.55 530.509  30
  -2   2  22 4176.12 615.342   9
   2  -2  22 5078.17 644.895  17
  -2  -2 -22 4955.01 591.536  33
   2   2 -22 4473.92 585.336  33
  -2  -2 -22 4897.45 798.333  30
  -2   2  21 140.035 266.260   9
   2   2 -21 84.9228 274.612  33
   2  -2  21-359.389 323.971  12
   2  -2  21 497.491 344.923  17
  -2  -2 -21 187.407 265.804  33
   2   2 -21-117.981 176.000  18
  -2  -2 -21 990.514 499.481  30
  -2   2  20 2686.54 594.987   9
   2  -2  20 2969.12 607.601  12
   2   2 -20 3049.09 491.177  32
   2  -2  20 2108.21 486.122  17
  -2  -2 -20 2079.38 477.771  33
   2   2 -20 2778.60 519.206  33
   2   2 -20 3570.75 590.768  18
  -2  -2 -20 2779.21 667.249  30
  -2   2  19 2999.81 565.143   9
   2  -2  19 2339.12 527.637  12
   2   2 -19 4072.55 592.269  32
   2   2 -19 3250.94 589.582  18
   2   2 -19 3608.10 584.277  33
  -2  -2 -19 3231.33 549.228  33
  -2  -2 -19 4031.27 848.391  30
   2  -2  19 3689.93 631.022  17
  -2   2  18 2761.17 592.144   9
   2  -2  18 2496.23 502.920  17
   2  -2  18 1573.85 498.119  12
  -2  -2 -18 2864.01 752.701  30
   2   2 -18 2212.87 475.399  32
   2   2 -18 2216.89 498.745  33
   2   2 -18 2936.40 580.256  18
  -2  -2 -18 2243.78 502.074  33
   2  -2  17 12697.4 1153.10  12
  -2  -2 -17 16547.4 1552.68  30
  -2  -2 -17 15390.1 1146.71  33
   2   2 -17 14220.2 1143.76  32
   2  -2  17 14174.4 1158.84  17
   2   2 -17 13421.6 1100.26  33
  -2  -2 -17 16514.7 1292.10  31
   2   2 -17 16321.2 1268.32  18
   2  -2  16 1052.02 322.343  15
  -2   2  16 627.675 419.523  26
   2   2 -16 915.402 311.911  25
   2   2 -16 1765.80 531.521  24
  -2   2  16 1950.00 608.874   8
   2  -2  16 1511.16 510.414  12
   2   2 -16 1427.65 460.949  33
   2   2 -16 2002.23 473.144  32
  -2  -2 -16 1766.73 424.764  33
   2   2 -16 1304.32 455.762  18
  -2  -2 -16 749.684 385.649  31
   2  -2  16 1682.77 419.944  17
  -2  -2 -16 1488.13 552.380  30
  -2  -2 -16 1581.04 579.372  29
   2  -2  16 2281.19 572.559   6
  -2   2  15 8757.40 1140.89  26
   2   2 -15 10766.3 996.928  25
   2   2 -15 10645.2 1066.95  24
  -2   2  15 9730.73 1232.29   8
   2  -2  15 9230.39 981.611  12
   2  -2  15 11093.1 1213.41   6
  -2  -2 -15 9718.07 912.817  33
   2   2 -15 11500.8 990.077  33
  -2  -2 -15 11028.2 1050.07  31
   2   2 -15 10785.4 1054.33  18
   2   2 -15 11078.3 991.790  32
  -2  -2 -15 10034.7 1200.08  30
  -2  -2 -15 10518.1 1265.97  29
   2  -2  15 12222.5 902.561  15
   2  -2  14 1670.33 331.974  15
  -2   2  14 1347.71 571.962  26
   2   2 -14 2223.20 480.627  25
   2   2 -14 2708.95 551.082  24
  -2   2  14 1936.93 650.720   8
   2  -2  14 2169.85 498.070  12
   2   2 -14 2469.29 511.651  18
   2   2 -14 2224.66 488.591  33
   2   2 -14 2043.21 499.712  32
  -2  -2 -14 1666.15 545.818  31
  -2  -2 -14 2363.85 474.516  33
  -2  -2 -14 2017.52 651.771  30
  -2  -2 -14 2603.68 680.549  29
   2  -2  14 2577.70 613.959   6
  -2  -2 -13 3404.42 661.953  26
  -2   2  13 3527.65 703.374  26
  -2   2  13 2617.86 659.546   8
   2   2 -13 3389.12 562.904  25
  -2  -2 -13 2709.02 717.904  29
   2  -2  13 5010.77 810.746   6
  -2  -2 -12 8441.85 941.134  26
  -2   2  12 7081.27 976.161  26
   2   2 -12 7545.65 795.310  25
  -2   2  12 7602.19 1038.98   8
   2  -2  12 7797.88 987.024   6
  -2  -2 -12 7736.28 1094.94  29
  -2  -2 -11 10472.3 1032.30  26
   2   2 -11 9372.93 870.878  25
  -2   2  11 7995.29 994.582  26
  -2   2  11 9266.46 1085.78   8
   2  -2  11 12158.7 1187.98   6
  -2  -2 -11 11234.1 1220.74  29
  -2  -2 -10 8141.34 893.246  26
  -2   2  10 8202.62 961.128  26
   2   2 -10 8682.16 811.813  25
  -2  -2 -10 7759.84 684.941  25
  -2   2  10 8343.07 1049.12   8
  -2  -2 -10 8794.08 647.125  21
   2  -2  10 9235.19 1019.04   6
  -2  -2 -10 9330.91 1081.71  29
  -2  -2  -9 8916.37 913.400  26
  -2   2   9 8886.31 983.042  26
   2   2  -9 10211.8 863.642  25
  -2  -2  -9 9771.77 754.166  25
  -2   2   9 7998.73 977.790   8
  -2  -2  -9 9008.90 651.341  21
   2  -2   9 9823.45 1016.49   6
  -2  -2  -9 9057.41 1034.85  29
   2  -2   8 13973.6 1177.32   6
  -2  -2  -8 13274.9 1084.44  26
  -2   2   8 10663.2 1025.86  26
   2   2  -8 11176.2 891.928  25
  -2   2   8 9323.82 1040.71   8
  -2  -2  -8 11267.0 719.576  21
  -2  -2  -8 11800.2 1181.94  29
  -2  -2  -7 24762.2 1458.90  26
  -2   2   7 23791.2 1423.27  26
   2   2  -7 24873.9 1265.31  25
  -2   2   7 22387.2 1488.57   8
  -2  -2  -7 25382.9 1052.06  21
  -2  -2  -7 24291.0 1584.27  29
   2  -2   7 24848.3 1536.10   6
  -2  -2  -6 28666.0 1529.39  26
   2   2  -6 32227.1 1418.06  25
  -2  -2  -6 32015.8 1547.56   8
   2   2  -6 31223.7 1472.86   5
   2   2  -6 31826.8 1189.34  22
  -2   2   6 28931.3 1650.82   8
  -2  -2  -6 30783.7 1153.25  21
   2  -2   6 34321.3 1754.38   6
  -2  -2  -6 30433.3 1726.37  29
  -2  -2  -5 140269. 3332.17  26
   2   2  -5 147936. 3191.86   5
  -2  -2  -5 151033. 3391.56   8
   2   2  -5 142739. 2935.12  25
  -2   2   5 139715. 3429.53   8
   2   2  -5 145089. 2526.20  22
  -2  -2  -5 144184. 2441.71  21
   2  -2   5 146509. 3502.63   6
  -2  -2  -5 144851. 3658.96  29
  -2  -2  -4 154006. 3470.92  26
   2   2  -4 155962. 3295.93   5
   2   2  -4 154034. 2984.87  25
  -2  -2  -4 156178. 3464.45   8
   2  -2   4 163515. 3311.58   5
  -2   2   4 152292. 3471.00   8
   2   2  -4 156996. 2621.59  22
  -2  -2  -4 153755. 2532.65  21
   2  -2   4 160279. 3619.29   6
  -2  -2  -4 154692. 3715.25  29
  -2  -2  -3 19770.1 1283.87  26
   2   2  -3 19455.8 1189.60   5
  -2  -2  -3 19422.0 1315.02  29
   2   2  -3 18923.3 1066.51  25
  -2  -2  -3 19350.3 1259.10   8
   2  -2   3 20882.2 1210.18   5
  -2   2   3 18621.0 1196.22   8
   2   2  -3 19472.3 940.038  22
  -2   2   3 20646.6 817.498  21
  -2  -2  -3 16850.5 837.318  21
   2  -2   3 18871.6 1259.78   6
  -2  -2  -2 83501.0 2579.95  26
   2   2  -2 82018.3 2429.98   5
  -2  -2  -2 83098.3 2587.17   8
   2  -2   2 87415.8 2476.05   5
  -2   2   2 81391.8 2395.69   8
   2   2  -2 84383.9 1943.45  22
  -2   2   2 84107.0 1675.68  21
  -2  -2  -2 81867.1 1826.89  21
   2  -2   2 85170.9 2592.85   6
  -2  -2  -2 83601.3 2633.01  29
  -2   2   2 80954.7 2701.58  29
  -2  -2  -1 82563.8 2566.78  26
   2   2  -1 77819.5 2399.74   5
  -2  -2  -1 83240.9 2632.98   8
   2  -2   1 78635.8 2372.30   5
  -2   2   1 81131.8 2307.30   8
   2   2  -1 80482.9 1930.25  22
  -2   2   1 80752.1 1673.95  21
  -2  -2  -1 82944.2 1822.99  21
  -2   2   1 81513.2 2676.63  29
   2  -2   1 81065.1 2509.88   6
  -2  -2  -1 87044.2 2653.96  29
   2   2   0 54360.1 2038.47   5
  -2  -2   0 54374.6 2119.15  26
  -2   2   0 56551.8 2195.40  29
  -2  -2   0 50975.3 2074.94   8
   2  -2   0 56262.7 2048.29   5
   2   2   0 51790.1 1555.74  22
  -2   2   0 57489.6 1433.82  21
  -2  -2   0 52421.7 1452.22  21
   2  -2   0 58844.3 2163.93   6
  -2  -2   0 54138.4 2071.88  29
   2   2   1 81763.4 2514.41   5
  -2  -2   1 80438.7 2595.60  26
  -2  -2   1 79614.9 2615.31   8
   2  -2  -1 80417.4 2294.73  24
   2  -2  -1 79940.1 2460.73   5
  -2  -2   1 87960.0 2612.36  29
   2   2   1 80581.6 1982.34  22
  -2   2  -1 79203.8 1715.34  21
  -2  -2   1 79544.0 1779.47  21
   2  -2  -1 83177.8 2540.74   6
  -2   2  -1 79033.9 2566.32  29
   2   2   2 81297.7 2535.91   5
  -2  -2   2 83019.7 2665.24  26
  -2   2  -2 86621.8 1959.97  25
  -2  -2   2 84453.5 2755.65   8
   2  -2  -2 82939.5 2366.57  24
   2   2   2 80906.0 2018.94  22
  -2   2  -2 80089.2 1754.29  21
  -2  -2   2 84125.5 1823.52  21
   2  -2  -2 83563.6 2571.84   6
  -2  -2   2 92191.1 2667.75  29
  -2   2  -2 85201.5 2660.78  29
   2   2   3 15620.3 1137.87   5
  -2  -2   3 18692.7 1329.83  26
  -2   2  -3 19165.8 952.378  25
  -2  -2   3 20072.0 1393.46   8
   2  -2  -3 19257.5 1182.27  24
   2   2   3 17906.1 981.473  22
  -2   2  -3 19464.9 890.378  21
  -2  -2   3 19561.1 889.990  21
  -2   2  -3 19051.9 1281.95  29
   2  -2  -3 19824.1 1273.58   6
  -2  -2   3 20236.3 1273.47  29
   2   2   4 153015. 3581.41   5
  -2  -2   4 147040. 3669.46  26
  -2   2  -4 153227. 2716.09  25
  -2  -2   4 152478. 3799.99   8
   2  -2  -4 157275. 3316.29  24
   2   2   4 150907. 2849.76  22
  -2   2  -4 149126. 2479.40  21
  -2  -2   4 156549. 2472.14  21
   2  -2  -4 154617. 3539.02   6
  -2   2  -4 153207. 3550.22  29
   2   2   5 143622. 3486.53   5
  -2   2  -5 140999. 2673.83  25
  -2   2  -5 146503. 3480.48  29
  -2  -2   5 143518. 3749.09   8
   2  -2  -5 146964. 3274.60  24
   2   2   5 139464. 2813.33  22
  -2   2  -5 140587. 2457.17  21
  -2  -2   5 145534. 2391.19  21
  -2  -2   5 140338. 3623.16  26
   2  -2  -5 139765. 3418.67   6
   2   2   6 29182.3 1623.16   5
  -2  -2   6 29338.4 1732.27  26
  -2   2  -6 32399.3 1322.54  25
  -2  -2   6 30093.0 1768.15   8
   2  -2  -6 31417.0 1566.53  24
   2   2   6 30577.3 1351.16  22
  -2   2  -6 29678.6 1166.97  21
  -2  -2   6 29257.2 1062.91  21
  -2   2  -6 32534.3 1665.84  29
   2  -2  -6 30753.9 1650.40   6
   2   2   7 24241.5 1505.31   5
  -2  -2   7 23352.2 1576.44  26
  -2   2  -7 24549.3 1188.25  25
  -2  -2   7 22971.9 1587.07   8
   2  -2  -7 24118.8 1400.28  24
   2   2   7 23671.6 1223.45  22
  -2   2  -7 23717.8 1058.55  21
  -2  -2   7 22695.8 937.254  21
  -2   2  -7 22919.2 1396.28  29
   2   2   8 9687.11 993.174   5
  -2  -2   8 10609.1 1099.17  26
  -2   2  -8 11913.3 856.792  25
  -2  -2   8 10727.0 1119.85   8
   2   2   8 11620.4 902.099  22
  -2   2  -8 10304.8 727.116  21
   2  -2  -8 11524.6 996.224  24
   2  -2  -8 11295.7 740.914   7
  -2   2  -8 11558.9 1055.87  29
   2   2   9 9146.11 987.133   5
  -2  -2   9 9028.42 1066.89  26
  -2   2  -9 9789.77 793.992  25
  -2  -2   9 9388.92 1077.84   8
   2  -2  -9 9748.26 952.345  24
   2   2   9 8643.08 793.255  22
  -2   2  -9 9037.49 683.455  21
   2  -2  -9 9011.61 701.779   7
  -2   2  -9 9216.69 945.371  29
   2   2  10 6972.31 853.821   5
  -2  -2  10 8172.79 1019.44  26
  -2   2 -10 9423.63 806.660  25
   2  -2 -10 8715.91 911.732  24
  -2  -2  10 8155.17 1052.54   8
   2   2  10 7592.41 768.780  22
  -2   2 -10 8323.07 676.071  21
   2  -2 -10 8539.56 701.698   7
   2   2  11 9269.73 985.081   5
  -2  -2  11 8258.78 1060.27  26
  -2   2 -11 9817.95 841.391  25
   2  -2 -11 10109.5 992.004  24
  -2  -2  11 10004.2 1160.45   8
   2   2  11 9323.24 866.411  22
  -2   2 -11 9226.51 720.268  21
   2  -2 -11 10115.6 793.979   7
   2   2  12 8143.99 942.800   5
  -2  -2  12 7297.52 1021.89  26
  -2   2 -12 8139.73 794.271  25
  -2  -2  12 7860.49 1057.68   8
   2  -2 -12 6861.51 842.912  24
   2   2  12 7186.64 767.511  22
  -2   2 -12 7480.26 668.404  21
   2  -2 -12 7416.33 718.422   7
  -2  -2  13 2873.41 655.658  26
  -2   2 -13 3768.00 560.040  25
   2  -2 -13 3987.87 650.626  24
   2   2  13 3404.98 687.806   5
  -2   2 -13 3999.23 504.010  21
  -2  -2  13 3409.66 710.048   8
   2  -2 -13 4061.51 583.274   7
   2   2  13 3342.87 562.328  28
  -2  -2  14 2173.28 625.941   9
  -2  -2  14 1852.83 574.809  26
  -2   2 -14 2670.81 506.533  25
   2  -2 -14 2176.73 519.048  24
   2  -2 -14 2478.70 458.541  13
  -2  -2  14 1676.05 603.248   8
  -2   2 -14 1652.03 338.858  21
   2   2  14 1229.20 442.036  12
  -2  -2  14 2360.57 458.457   4
   2  -2 -14 1999.66 417.349   7
   2  -2 -14 1969.02 497.070  18
   2   2  14 1998.69 479.001  28
  -2  -2  15 10676.8 1249.42  26
   2  -2 -15 9408.06 829.119  13
  -2   2 -15 10609.3 954.782  25
  -2  -2  15 9728.80 1195.19   8
   2  -2 -15 9530.89 1005.46  24
   2   2  15 9857.08 979.316  12
  -2  -2  15 10038.4 891.062   4
   2  -2 -15 10514.4 1047.69  18
   2  -2 -15 11864.2 958.530   7
  -2   2 -15 10988.2 909.358  33
  -2  -2  15 9362.29 1054.96   9
   2   2  15 8466.30 913.584  28
  -2  -2  16 872.381 414.674   9
  -2  -2  16 2436.23 632.747  26
  -2   2 -16 1851.19 428.518  25
   2  -2 -16 784.424 297.971  13
   2  -2 -16 1274.49 377.834   7
   2   2  16 1437.89 461.745  12
   2  -2 -16 1471.64 490.081  18
  -2  -2  16 1501.60 391.326   4
   2   2  16 1730.06 452.162  17
  -2   2 -16 781.036 285.049  33
   2   2  16 944.950 362.709  28
   2   2  17 13869.0 1150.25  17
   2  -2 -17 16409.0 1070.61  13
   2   2  17 13262.3 1155.02  12
   2  -2 -17 16211.3 1273.34  18
  -2   2 -17 15370.7 1101.34  33
  -2  -2  17 14499.0 1377.25   9
  -2  -2  18 1452.54 513.652   9
   2  -2 -18 2247.43 449.769  13
   2   2  18 1683.56 473.883  12
   2  -2 -18 2050.13 518.879  18
  -2   2 -18 3044.03 504.972  33
   2   2  18 2463.49 553.476  17
  -2  -2  19 3409.89 734.773   9
   2  -2 -19 3617.19 535.830  13
   2   2  19 2674.45 565.213  12
  -2   2 -19 4528.73 596.861  33
  -2  -2  19 3309.96 770.975  31
   2  -2 -19 4372.54 687.184  18
   2   2  19 2157.88 516.038  17
  -2  -2  20 2798.07 630.633   9
   2  -2 -20 3055.21 464.803  13
   2   2  20 3259.22 602.467  12
  -2   2 -20 3061.18 509.792  33
   2   2  20 2368.28 534.816  17
  -2  -2  20 2423.65 573.553  31
  -2  -2  21 280.788 331.393   9
   2  -2 -21-12.6820 193.557  13
   2   2  21-63.7336 282.883  12
  -2   2 -21 46.1316 229.554  33
   2   2  21-181.518 279.779  17
  -2  -2  21 522.449 471.228  31
  -2  -2  22 4452.34 699.576   9
   2  -2 -22 5060.87 566.161  13
   2   2  22 4175.89 598.497  12
  -2   2 -22 5302.88 571.872  33
   2   2  22 4107.65 594.878  17
  -2  -2  22 4065.81 680.936  31
  -2  -2  23 1589.03 462.430   9
   2   2  23 1264.55 280.777  15
   2  -2 -23 1692.38 334.930  13
   2   2  23 1289.16 355.562  12
  -2   2 -23 1207.16 296.733  33
  -2  -2  23 1706.23 463.035  31
   2   2  23 1011.65 288.862  17
   2  -2 -24 3232.79 390.447  13
   2   2  24 3284.84 435.058  12
  -2  -2  24 2855.19 492.796  31
  -2   2 -24 3573.72 414.097  33
   2   2  24 2981.35 445.164  17
  -2  -2  24 3716.04 548.415   9
  -2  -2  25 79.5267 223.133   9
   2  -2 -25 274.183 169.959  13
   2   2  25 170.166 179.893  12
  -2  -2  25-184.423 223.248  31
  -2   2 -25 6.16307 140.730  33
   2   2  25 12.6179 173.766  17
   2  -3  24 3437.83 401.019  17
  -2  -3 -24 3831.51 565.421  30
  -2   3  23 890.952 287.449   9
   2  -3  23 1096.86 288.433  17
  -2   3  22 3021.21 505.219   9
   2   3 -22 2911.51 462.899  33
   2   3 -22 2809.05 426.084  18
   2  -3  22 3635.50 515.685  17
   2   3 -22 2216.68 384.964  32
  -2  -3 -22 3281.26 630.200  30
  -2  -3 -22 2962.72 420.133  33
   2   3 -21 4094.57 535.958  18
   2   3 -21 5071.11 605.845  32
   2   3 -21 4575.39 596.284  33
  -2  -3 -21 4241.79 521.292  33
   2  -3  21 4620.76 595.214  17
  -2  -3 -21 4085.71 756.375  30
   2   3 -20 10252.3 883.302  18
  -2  -3 -20 8732.44 769.542  33
   2   3 -20 10203.4 896.269  33
   2   3 -20 8350.56 798.638  32
   2  -3  20 8825.32 831.146  17
  -2  -3 -20 8667.21 1060.37  30
   2   3 -19 8041.08 838.702  33
  -2  -3 -19 6182.21 681.505  33
   2   3 -19 7783.23 830.644  18
   2  -3  19 7745.45 830.166  17
  -2  -3 -19 8267.52 958.817  31
   2   3 -19 6646.96 764.810  32
  -2  -3 -19 6697.47 1014.80  30
   2   3 -18 1761.13 456.654  32
  -2  -3 -18 1135.98 390.658  33
   2   3 -18 2271.18 514.952  18
   2  -3  18 1291.13 414.298  17
  -2  -3 -18 1744.91 527.418  31
   2   3 -18 1557.44 453.815  33
  -2  -3 -18 1054.91 560.383  30
   2   3 -17 2530.96 559.641  18
   2   3 -17 3543.73 626.364  33
  -2  -3 -17 1587.13 511.759  30
   2   3 -17 2138.46 530.274  32
   2  -3  17 4068.21 686.441  17
  -2  -3 -17 2954.46 647.627  31
  -2  -3 -17 1776.99 375.883  33
   2  -3  16 37236.1 1890.82  12
  -2  -3 -16 37781.9 2287.66  30
   2   3 -16 43719.0 2068.08  18
   2  -3  16 44575.6 2016.92  17
  -2  -3 -16 45218.6 2177.76  31
   2   3 -16 38618.4 1837.58  33
  -2  -3 -16 38232.2 1755.34  33
   2   3 -16 43586.0 2008.02  32
   2   3 -15 29601.1 1671.78  25
  -2   3  15 27684.9 2047.98   8
   2  -3  15 26890.0 1616.66  12
   2  -3  15 29542.9 1552.35  19
   2   3 -15 29348.3 1599.42  33
   2   3 -15 30894.6 1696.16  32
  -2  -3 -15 29484.1 1788.75  31
  -2  -3 -15 27725.3 1502.17  33
  -2  -3 -15 26440.2 1927.98  30
  -2  -3 -15 31674.1 2206.95  29
   2  -3  15 31849.5 1420.15  15
  -2   3  14 23630.9 1803.45  26
   2   3 -14 26577.9 1568.84  25
  -2   3  14 25940.6 1953.82   8
   2  -3  14 24692.9 1529.78  12
   2  -3  14 26618.9 1499.17  19
   2   3 -14 26639.0 1515.99  33
   2  -3  14 32057.2 2113.86   6
  -2  -3 -14 29117.4 1786.78  31
  -2  -3 -14 26649.3 1942.15  30
  -2  -3 -14 27302.0 1481.90  33
   2   3 -14 29830.5 1650.48  32
  -2  -3 -14 26830.7 1999.55  29
   2  -3  14 28989.2 1385.56  15
   2  -3  13 317.312 229.501  15
  -2  -3 -13 1351.65 466.860  26
   2   3 -13-36.9832 256.352  25
  -2   3  13-177.704 336.735   8
   2  -3  13 325.971 293.880  12
   2   3 -13 647.543 323.918  33
   2  -3  13 419.950 363.889  19
  -2  -3 -13 66.5985 243.022  33
   2   3 -13 326.718 275.664  32
  -2  -3 -13 60.8280 397.742  31
  -2  -3 -13-187.790 362.573  30
  -2  -3 -13 248.241 386.147  29
   2  -3  13 421.167 388.967   6
  -2  -3 -12 20809.8 1568.00  26
   2   3 -12 18924.9 1290.55  25
  -2   3  12 16689.4 1543.35   8
   2  -3  12 20141.0 1313.83  19
   2   3 -12 18602.2 1250.62  33
  -2  -3 -12 21003.7 1510.71  31
   2  -3  12 23194.1 1755.46   6
   2   3 -12 20540.4 1347.80  32
  -2  -3 -12 20319.0 1632.86  30
  -2  -3 -12 18999.0 1242.65  33
  -2  -3 -12 21295.6 1719.91  29
   2  -3  12 19004.8 1130.42  15
  -2  -3 -11 7897.56 984.654  26
   2   3 -11 7724.20 826.319  25
  -2   3  11 7045.70 978.409   8
   2  -3  11 8317.94 1063.27   6
  -2  -3 -11 5947.77 955.977  29
  -2  -3 -10 894.700 429.009  26
   2   3 -10 531.607 281.869  25
  -2   3  10 940.835 489.480   8
  -2  -3 -10 1215.27 511.992  29
   2  -3  10 417.322 309.010   6
  -2  -3  -9 30860.4 1832.17  26
   2   3  -9 27346.2 1491.34  25
  -2   3   9 28441.2 1832.88   8
  -2  -3  -9 29733.6 1225.11  21
   2  -3   9 30777.1 1908.09   6
  -2  -3  -9 29549.6 1881.41  29
  -2  -3  -8 9988.26 1069.08  26
  -2  -3  -8 12302.2 1091.38   8
   2   3  -8 10397.5 910.962  25
   2   3  -8 10934.5 790.133  22
  -2   3   8 9899.88 1078.81   8
   2  -3   8 9149.89 1038.26   6
  -2  -3  -8 10397.6 736.542  21
  -2  -3  -8 11313.1 1160.54  29
  -2  -3  -7 390.403 346.880  26
   2   3  -7 473.842 283.067  25
   2   3  -7 325.185 197.811  22
  -2  -3  -7 348.144 306.311   8
  -2   3   7 967.120 457.649   8
  -2  -3  -7 390.222 217.781  21
  -2  -3  -7 1147.07 457.609  29
   2  -3   7 757.196 379.845   6
   2   3  -6 8.33972 219.133  25
   2   3  -6 209.842 182.571  22
  -2  -3  -6 301.417 318.905   8
  -2   3   6 271.909 272.541   8
  -2  -3  -6 148.838 195.666  21
  -2  -3  -6 248.727 330.719  26
  -2  -3  -6 333.780 277.046  29
   2  -3   6 565.595 336.766   6
  -2  -3  -5 17516.6 1313.20  26
   2   3  -5 16870.8 1097.17  25
  -2  -3  -5 17367.3 1335.92   8
   2   3  -5 16645.0 968.275  22
  -2   3   5 16920.6 1265.51   8
  -2  -3  -5 16027.4 890.038  21
   2  -3   5 16372.7 1335.44   6
  -2  -3  -5 16396.6 1303.28  29
  -2  -3  -4 2261.42 554.749  26
   2   3  -4 2923.49 485.818  25
   2   3  -4 1833.87 439.797   5
   2   3  -4 1761.29 364.203  22
  -2  -3  -4 1108.25 437.850   8
  -2   3   4 2796.66 576.516   8
  -2  -3  -4 2066.02 371.366  21
  -2  -3  -4 2083.30 498.867  29
   2  -3   4 3154.21 640.853   6
  -2  -3  -3 19074.3 1376.25  26
   2   3  -3 18523.0 1228.15   5
   2   3  -3 18864.7 1125.20  25
  -2  -3  -3 18032.5 1334.34   8
   2   3  -3 18481.3 1025.09  22
  -2  -3  -3 19395.5 972.332  21
   2  -3   3 21167.2 1462.87   6
  -2   3   3 19070.1 1383.64  29
  -2  -3  -2 37778.9 1896.71  26
   2   3  -2 36093.9 1712.98   5
  -2  -3  -2 33726.1 1831.97   8
   2   3  -2 34322.8 1382.22  22
  -2   3   2 33904.6 1128.38  21
  -2  -3  -2 36716.9 1333.43  21
   2  -3   2 37215.7 1937.68   6
  -2   3   2 32755.5 1769.97  29
   2   3  -1 14831.7 1134.93   5
  -2  -3  -1 14945.5 1231.60  26
  -2  -3  -1 14685.1 1253.87   8
   2   3  -1 14124.0 899.327  22
  -2   3   1 15535.6 793.480  21
  -2  -3  -1 14843.3 858.693  21
  -2   3   1 15445.5 1195.94  29
   2  -3   1 14033.2 1224.92   6
   2   3   0 6655.79 804.129   5
  -2  -3   0 6150.21 823.126  26
  -2  -3   0 5633.64 816.973   8
   2   3   0 6074.44 608.035  22
  -2   3   0 4969.24 467.860  21
  -2  -3   0 6470.48 591.414  21
   2  -3   0 6226.53 869.141   6
  -2   3   0 4152.70 620.629  29
   2   3   1 14646.0 1167.72   5
  -2  -3   1 14625.2 1223.60  26
  -2  -3   1 14639.8 1274.61   8
   2   3   1 14420.1 922.919  22
  -2   3  -1 15333.1 811.541  21
  -2  -3   1 14977.7 867.611  21
   2  -3  -1 17164.8 1321.24   6
  -2   3  -1 12366.6 1040.43  29
   2   3   2 34990.0 1794.76   5
  -2  -3   2 37146.2 1929.88  26
  -2  -3   2 38194.2 2009.45   8
   2   3   2 37035.0 1484.02  22
  -2   3  -2 34626.2 1234.43  21
  -2  -3   2 35268.6 1292.11  21
   2  -3  -2 37711.9 1950.82   6
  -2   3  -2 31768.5 1629.10  29
   2   3   3 17018.7 1283.15   5
  -2  -3   3 17581.9 1349.30  26
  -2  -3   3 18689.4 1441.74   8
   2   3   3 18415.0 1073.80  22
  -2   3  -3 19627.4 952.901  21
  -2  -3   3 19988.7 988.588  21
   2  -3  -3 18656.3 1393.51   6
  -2  -3   4 2921.87 660.808  26
  -2   3  -4 2844.09 417.461  25
   2   3   4 2171.02 541.022   5
   2   3   4 2427.82 451.542  22
  -2  -3   4 2711.26 659.234   8
  -2  -3   4 2178.18 371.744  21
  -2   3  -4 2178.54 364.070  21
   2  -3  -4 1871.77 530.513   6
   2   3   5 16353.6 1315.09   5
  -2  -3   5 16503.3 1343.26  26
  -2   3  -5 19703.0 1046.55  25
  -2  -3   5 15539.7 1369.91   8
   2   3   5 17077.7 1063.67  22
  -2   3  -5 16403.5 902.108  21
  -2  -3   5 17589.0 921.850  21
   2  -3  -5 17544.4 1380.06   6
  -2  -3   6 367.225 337.868  26
  -2   3  -6 412.367 232.377  25
   2  -3  -6 714.409 342.642  24
   2   3   6 273.406 365.349   5
   2   3   6 300.470 227.306  22
  -2  -3   6 280.893 353.464   8
  -2   3  -6 147.504 196.591  21
  -2  -3   6 357.307 217.209  21
   2  -3  -6 395.188 356.342   6
  -2  -3   7 608.182 438.236  26
  -2   3  -7 449.357 230.595  25
   2  -3  -7 255.818 278.910  24
   2   3   7 287.320 292.301   5
   2   3   7 233.179 278.156  22
  -2  -3   7 54.9497 373.851   8
  -2   3  -7 244.983 220.869  21
  -2  -3   7 56.7705 197.024  21
   2   3   8 9195.78 1015.24   5
  -2  -3   8 9902.57 1112.39  26
  -2   3  -8 11113.3 853.331  25
  -2  -3   8 9726.91 1121.14   8
   2  -3  -8 10189.8 1027.44  24
   2   3   8 9507.18 863.112  22
  -2   3  -8 9891.18 753.498  21
  -2  -3   8 11355.6 749.219  21
   2   3   9 26279.0 1719.25   5
  -2  -3   9 27685.8 1844.78  26
  -2   3  -9 31576.6 1466.87  25
  -2  -3   9 28301.2 1889.49   8
   2  -3  -9 28830.8 1681.80  24
   2   3   9 28287.0 1463.73  22
  -2   3  -9 27093.3 1252.70  21
  -2  -3  10 1390.17 571.738  26
  -2   3 -10 1023.32 321.012  25
   2  -3 -10 321.313 306.650  24
   2   3  10 776.085 389.725   5
   2   3  10 594.593 297.834  22
  -2  -3  10 415.123 288.304   8
  -2   3 -10 469.490 258.270  21
  -2  -3  10 524.471 269.323   4
   2   3  11 7606.26 994.890   5
  -2  -3  11 7521.42 1021.67  26
  -2   3 -11 8347.73 798.235  25
  -2  -3  11 6688.44 949.448   8
   2  -3 -11 7423.94 907.429  24
   2   3  11 7452.87 831.962  22
  -2   3 -11 8147.23 708.313  21
  -2  -3  11 7873.04 784.934   4
   2   3  12 21156.0 1598.88   5
  -2  -3  12 18548.9 1564.51  26
   2  -3 -12 18761.6 1130.40  13
  -2   3 -12 19911.8 1248.70  25
  -2  -3  12 17306.5 1533.65   8
   2  -3 -12 19746.3 1442.11  24
   2   3  12 20064.0 1298.95  22
  -2   3 -12 20414.8 1118.62  21
   2   3  12 19404.4 1329.63  12
  -2  -3  12 19854.2 1226.99   4
   2  -3 -12 22695.8 1529.29  18
   2  -3 -12 16805.7 1025.28  10
  -2  -3  12 18056.2 1549.55  31
  -2  -3  12 18551.1 1466.71   9
  -2  -3  13 858.362 380.806   9
  -2  -3  13-156.167 300.005  26
  -2   3 -13 461.717 251.901  25
   2  -3 -13-428.590 306.602  24
   2  -3 -13 419.297 233.572  13
   2   3  13 22.7450 275.676   5
   2   3  13 520.066 269.828  22
  -2  -3  13-415.755 381.694   8
  -2   3 -13 218.619 223.045  21
   2   3  13 634.947 359.559  12
   2  -3 -13 891.585 494.811  18
  -2  -3  13 181.860 270.208   4
  -2  -3  13 209.755 390.325  31
   2   3  14 25171.2 1807.16   5
  -2  -3  14 24329.9 1833.00  26
   2  -3 -14 29520.2 1425.07  13
  -2   3 -14 29793.4 1573.95  25
  -2   3 -14 27432.7 1302.05  21
   2   3  14 27502.4 1619.26  12
  -2  -3  14 26563.2 1443.77   4
   2  -3 -14 28190.6 1732.74  18
  -2  -3  14 23651.6 1773.29  31
  -2  -3  14 26769.0 1795.04   9
   2   3  14 23018.4 1468.28  28
  -2  -3  15 27347.4 1969.78  26
   2  -3 -15 31558.6 1481.60  13
  -2   3 -15 31741.3 1631.59  25
   2   3  15 27808.6 1630.41  12
   2  -3 -15 28751.4 1727.91  18
   2   3  15 29133.9 1637.81  17
  -2  -3  15 26151.3 1811.35  31
  -2  -3  15 32007.9 1962.73   9
   2  -3 -16 43477.9 1727.27  13
   2   3  16 38908.8 1911.89  12
   2  -3 -16 40701.0 2019.88  18
   2   3  16 40504.9 1939.94  17
  -2  -3  16 36833.5 2122.24  31
  -2  -3  16 42508.9 2259.96   9
  -2  -3  17 3053.04 684.667   9
  -2  -3  17 1549.15 522.210  31
   2  -3 -17 3218.76 516.044  13
   2   3  17 3037.21 581.920  12
   2   3  17 2191.83 582.428  17
   2  -3 -17 2980.89 601.696  18
  -2  -3  18 1613.94 537.378   9
   2  -3 -18 1481.21 373.483  13
   2   3  18 1399.26 405.341  12
   2  -3 -18 1176.36 424.738  18
   2   3  18 1088.35 423.608  17
  -2  -3  18 1125.44 543.942  31
   2  -3 -19 6477.44 662.161  13
   2   3  19 8013.28 842.129  12
  -2  -3  19 8407.66 1016.24   9
   2   3  19 6476.78 783.885  17
  -2  -3  19 5837.12 842.591  31
   2  -3 -20 9309.36 746.497  13
   2   3  20 7450.09 785.968  12
  -2  -3  20 9946.97 997.710  31
  -2  -3  20 9484.21 1002.78   9
   2   3  20 9549.42 884.526  17
  -2  -3  21 4013.95 639.360   9
   2  -3 -21 5266.13 560.780  13
   2   3  21 3958.60 590.087  12
  -2   3 -21 4387.24 521.259  32
   2   3  21 4038.51 600.473  17
  -2  -3  21 4362.17 639.636  31
  -2  -3  22 3126.30 571.154   9
   2  -3 -22 3189.04 421.392  13
   2   3  22 2534.95 427.939  12
   2   3  22 3029.04 477.391  17
  -2   3 -22 3466.45 428.143  32
  -2  -3  22 3299.03 530.009  31
  -2  -3  23 654.750 343.765   9
   2  -3 -23 1320.28 273.951  13
   2   3  23 983.338 281.915  12
  -2   3 -23 1160.32 242.898  32
   2   3  23 985.771 305.969  17
   2  -3 -24 3861.62 377.661  13
   2   3  24 3552.74 420.480  17
  -2  -3  24 3864.57 504.921   9
  -2  -4 -23 6877.12 695.899  30
   2   4 -22 10225.1 652.255  18
   2  -4  22 10882.0 708.447  17
   2   4 -22 11412.0 745.746  32
  -2  -4 -22 11872.9 980.468  30
   2  -4  21 5458.33 506.674  14
   2  -4  21 5418.36 564.893  17
  -2  -4 -21 5423.15 742.588  30
   2   4 -21 5472.13 553.026  18
   2   4 -21 6629.00 645.646  32
   2  -4  20 11084.4 764.515  14
   2   4 -20 13115.7 912.339  18
   2   4 -20 14486.1 992.114  32
   2  -4  20 12817.7 906.156  17
  -2  -4 -20 15057.6 1269.42  30
   2  -4  19 8228.63 709.717  14
   2   4 -19 9112.26 819.464  18
   2   4 -19 9694.26 880.301  32
   2  -4  19 9832.08 850.075  17
  -2  -4 -19 10572.8 1009.37  31
  -2  -4 -19 8612.46 1039.01  30
   2  -4  18 6292.83 650.477  14
   2   4 -18 10160.6 938.728  18
   2  -4  18 7275.52 774.618  17
  -2  -4 -18 11466.4 1078.80  31
  -2  -4 -18 9085.70 1096.00  30
   2   4 -18 11141.4 970.187  32
   2  -4  17 4034.89 584.835  14
   2   4 -17 5088.11 708.691  18
   2  -4  17 4770.84 661.288  17
   2   4 -17 3786.57 636.372  32
  -2  -4 -17 4811.31 773.962  31
  -2  -4 -17 2312.32 627.036  30
   2   4 -17 3266.88 534.027  33
   2  -4  16 13358.4 1000.39  14
   2  -4  16 12123.5 990.118  19
   2   4 -16 12209.6 1066.18  32
   2  -4  16 12018.9 1030.55  17
  -2  -4 -16 11043.1 1203.36  30
  -2  -4 -16 13665.5 1259.45  31
   2   4 -16 11307.7 963.441  33
   2  -4  15 2017.40 452.367  14
   2  -4  15 1631.09 451.965  17
   2  -4  15 1909.54 438.160  19
   2   4 -15 1744.91 484.386  33
   2   4 -15 1848.80 569.530  32
  -2  -4 -15 1889.44 580.347  31
  -2  -4 -15 1866.73 624.660  30
   2  -4  14 2269.82 461.215  14
   2  -4  14 2415.69 516.129  19
   2   4 -14 897.241 349.733  33
   2   4 -14 2605.53 599.533  32
  -2  -4 -14 2210.89 644.346  31
  -2  -4 -14 1199.28 575.470  30
   2  -4  13 2550.58 451.336  15
   2  -4  13 2526.92 519.716  14
   2  -4  13 2694.58 556.112  19
   2   4 -13 1898.19 463.620  33
   2   4 -13 3170.14 610.859  32
  -2  -4 -13 3881.72 746.672  31
  -2  -4 -13 2108.00 589.847  30
  -2  -4 -12 21357.5 1658.00  26
   2  -4  12 19514.9 1249.61  14
   2   4 -12 19252.5 1340.35  25
  -2   4  12 19928.3 1722.39   8
   2  -4  12 20915.0 1396.90  19
   2   4 -12 19187.6 1337.04  32
  -2  -4 -12 21653.6 1588.83  31
   2  -4  12 24265.6 1856.10   6
  -2  -4 -12 18717.6 1588.10  30
   2  -4  12 20574.0 1182.00  15
   2  -4  11 3641.53 532.956  15
   2  -4  11 3683.83 565.924  14
  -2  -4 -11 4277.58 814.420  26
   2   4 -11 3480.75 585.524  25
  -2   4  11 4323.28 836.304   8
   2  -4  11 3376.56 593.820  19
   2   4 -11 3984.62 653.156  32
  -2  -4 -11 4563.44 802.951  31
  -2  -4 -11 3395.33 768.375  11
   2  -4  11 3938.56 790.048   6
   2  -4  10 11508.1 953.513  14
  -2  -4 -10 13115.3 1291.70  26
   2   4 -10 10605.8 978.207  25
   2   4 -10 11902.3 907.154  22
  -2   4  10 10016.2 1191.82   8
  -2  -4 -10 12212.2 1206.31  31
   2  -4  10 11062.0 1001.27  19
  -2  -4 -10 9334.35 1154.59  11
   2   4 -10 12819.2 1085.02  32
   2  -4  10 13201.6 1360.57   6
   2  -4  10 12092.1 936.654  15
   2  -4   9 13513.4 1059.53  14
  -2  -4  -9 13678.8 1327.73  26
  -2  -4  -9 13446.6 1274.63   8
   2   4  -9 15042.6 1148.06  25
   2   4  -9 13666.4 970.272  22
  -2   4   9 13176.3 1322.30   8
   2  -4   9 16051.9 1195.24  19
   2   4  -9 13673.1 1090.81  32
  -2  -4  -9 14447.3 1299.92  31
   2  -4   9 16892.4 1533.90   6
   2  -4   9 14121.0 994.269  15
  -2  -4  -8 12939.8 1254.32  26
  -2  -4  -8 12765.5 1260.69   8
   2   4  -8 11555.1 1012.51  25
   2   4  -8 10629.2 859.261  22
  -2   4   8 10433.3 1158.49   8
   2  -4   8 11132.8 995.277  19
   2   4  -8 12851.8 1063.09  32
  -2  -4  -8 11859.2 1173.71  31
   2  -4   8 11072.4 1247.65   6
   2  -4   8 11890.0 916.408  15
  -2  -4  -7 27009.1 1807.57  26
  -2  -4  -7 26766.6 1809.78   8
   2   4  -7 27783.5 1495.32  25
   2   4  -7 25929.9 1326.24  22
  -2   4   7 27625.3 1786.14   8
  -2  -4  -7 27836.8 1257.18  21
   2  -4   7 28418.8 1925.52   6
  -2  -4  -6 627.233 402.602  26
   2   4  -6 397.971 285.668  25
   2   4  -6 525.888 255.739  22
  -2  -4  -6 812.284 455.219   8
  -2   4   6 741.527 392.810   8
  -2  -4  -6 453.645 286.220  21
   2  -4   6 686.882 382.933   6
  -2  -4  -5 149.483 266.077  26
   2   4  -5 104.248 205.814  25
   2   4  -5 43.3284 156.352  22
  -2  -4  -5 1128.65 473.617   8
  -2   4   5 10.4925 231.577   8
  -2  -4  -5 286.353 208.968  21
   2  -4   5 348.193 389.578   6
  -2  -4  -4 1884.84 558.835  26
   2   4  -4 1848.97 449.304  25
   2   4  -4 1925.10 384.577  22
  -2  -4  -4 2058.25 578.065   8
  -2  -4  -4 1736.34 356.617  21
   2  -4   4 797.426 456.488   6
  -2  -4  -3 4174.69 729.886  26
   2   4  -3 3564.32 516.336  22
  -2  -4  -3 4483.93 775.245   8
  -2  -4  -3 3385.47 476.175  21
   2  -4   3 4309.98 776.636   6
  -2  -4  -2 93.6029 321.385  26
   2   4  -2 412.841 279.091   5
   2   4  -2 11.4645 202.037  22
  -2  -4  -2 351.282 368.866   8
  -2  -4  -2 218.008 228.680  21
   2  -4   2 208.975 331.055   6
   2   4  -1 15969.6 1237.05   5
  -2  -4  -1 14757.1 1308.33  26
  -2  -4  -1 15552.4 1402.65   8
   2   4  -1 14146.6 1001.69  22
  -2   4   1 15978.0 863.177  21
  -2  -4  -1 15892.5 962.916  21
   2  -4   1 15090.1 1366.68   6
  -2  -4   0-51.6358 310.712  26
   2   4   0 64.8984 273.484   5
   2   4   0 159.113 201.613  22
  -2  -4   0 247.621 402.434   8
  -2   4   0 89.2386 139.238  21
  -2  -4   0 358.441 244.018  21
   2  -4   0 14.4376 317.263   6
   2   4   1 15343.2 1252.25   5
  -2  -4   1 15263.0 1324.79  26
  -2  -4   1 15584.3 1397.92   8
   2   4   1 16196.0 1081.12  22
  -2   4  -1 15749.1 880.767  21
  -2  -4   1 14338.2 925.792  21
   2  -4  -1 14839.5 1392.56   6
  -2  -4   2 317.402 372.673  26
   2   4   2 870.724 365.646   5
   2   4   2 413.142 283.577  22
  -2  -4   2 14.8301 313.468   8
  -2   4  -2-59.3704 167.484  21
  -2  -4   2 71.5699 216.819  21
   2  -4  -2-142.246 337.784   6
  -2  -4   3 3414.22 661.107  26
   2   4   3 3698.31 566.391  22
   2   4   3 3978.79 672.135   5
  -2   4  -3 3130.35 436.116  21
  -2  -4   3 4119.97 776.406   8
  -2  -4   3 3006.74 463.485   4
  -2  -4   3 3793.08 495.229  21
   2  -4  -3 3448.37 700.427   6
  -2  -4   4 2542.05 635.016  26
   2   4   4 2752.41 633.935   5
   2   4   4 2200.01 465.739  22
  -2  -4   4 2437.30 649.836   8
  -2   4  -4 1580.84 333.857  21
  -2  -4   4 2131.89 382.507  21
  -2  -4   4 1682.85 355.764   4
   2  -4  -4 1440.48 538.745   6
  -2  -4   5-257.281 348.342  26
   2   4   5 179.076 295.123   5
   2   4   5 307.399 236.657  22
  -2  -4   5-2.20607 325.631   8
  -2   4  -5 100.750 187.119  21
  -2  -4   5 198.898 227.757  21
  -2  -4   5 174.096 201.118   4
   2  -4  -5 876.826 396.891   6
  -2  -4   6 889.502 491.586  26
   2   4   6 350.268 315.804   5
   2   4   6 1022.72 330.297  22
  -2  -4   6 756.729 477.161   8
  -2   4  -6 943.139 295.287  21
  -2  -4   6 630.325 251.790  21
  -2  -4   6 133.147 214.406   4
   2   4   7 27170.4 1819.52   5
  -2  -4   7 26651.8 1807.10  26
  -2  -4   7 23670.9 1789.46   8
   2   4   7 26898.8 1460.42  22
  -2   4  -7 26157.5 1249.59  21
  -2  -4   7 26129.4 1360.24   4
  -2  -4   7 27343.2 1257.52  21
   2   4   8 12850.2 1282.45   5
  -2  -4   8 12659.6 1287.29  26
  -2  -4   8 12498.5 1317.67   8
   2   4   8 11322.9 981.176  22
  -2   4  -8 12425.8 894.311  22
  -2   4  -8 11545.0 848.201  21
   2   4   8 12233.9 1042.89  12
  -2  -4   8 11363.2 925.455   4
  -2  -4   8 13142.9 884.681  21
   2  -4  -8 12825.6 1377.38  11
   2  -4  -8 10640.4 1092.05  18
   2  -4  -8 9568.81 829.614  10
  -2  -4   8 10625.1 1096.79   9
   2   4   9 13137.6 1296.91   5
  -2  -4   9 14914.6 1394.09  26
  -2  -4   9 13782.2 1388.07   8
   2  -4  -9 14384.6 988.562  13
   2   4   9 13987.8 1084.52  22
  -2   4  -9 16198.3 1040.07  22
  -2   4  -9 14105.1 949.416  21
   2   4   9 14422.5 1143.96  12
  -2  -4   9 12478.0 972.204   4
  -2  -4   9 14605.3 916.298  21
  -2  -4   9 13272.2 1289.65  31
   2  -4  -9 14690.9 1266.63  18
   2  -4  -9 13158.3 982.744  10
  -2  -4   9 13611.8 1251.95   9
   2   4  10 12108.1 1256.04   5
  -2  -4  10 11202.1 1216.21  26
  -2  -4  10 9612.91 1163.30   8
   2  -4 -10 11468.1 895.580  13
   2   4  10 10240.4 945.458  22
  -2   4 -10 12709.8 938.713  22
  -2   4 -10 11552.2 864.453  21
   2   4  10 11670.8 1052.50  12
  -2  -4  10 11575.2 973.207   4
   2  -4 -10 9994.20 858.026  10
   2  -4 -10 10403.6 1070.73  18
  -2  -4  10 10986.1 1178.07  31
  -2  -4  10 11826.2 1174.31   9
   2  -4 -11 3978.50 582.250  13
  -2   4 -11 4278.41 597.025  25
  -2   4 -11 3829.39 553.194  23
   2   4  11 3826.23 758.866   5
  -2   4 -11 4112.96 564.623  22
   2   4  11 3233.21 547.852  22
  -2   4 -11 3982.00 554.572  21
  -2  -4  11 3710.20 765.310   8
  -2  -4  11 4457.12 615.820   4
   2   4  11 2803.49 570.467  12
   2  -4 -11 3976.33 548.600  10
   2  -4 -11 3013.57 619.673  18
  -2  -4  11 3466.02 698.923  31
  -2  -4  11 4509.03 782.956   9
   2   4  12 19332.7 1618.75   5
   2  -4 -12 21201.0 1238.42  13
  -2   4 -12 21889.4 1317.50  25
  -2   4 -12 19460.7 1180.00  23
   2   4  12 17144.3 1214.63  22
  -2   4 -12 20886.1 1235.96  22
  -2   4 -12 20297.6 1148.20  21
   2   4  12 22480.9 1459.93  12
  -2  -4  12 17655.1 1205.38   4
   2  -4 -12 17242.7 1100.59  10
  -2  -4  12 17966.4 1511.42  31
   2  -4 -12 20420.2 1500.23  18
  -2  -4  12 18463.3 1475.39   9
   2  -4 -13 2614.93 467.727  13
   2   4  13 2937.17 597.183  12
  -2  -4  13 1805.54 538.341  31
   2  -4 -13 2573.96 582.253  18
   2  -4 -13 2332.63 456.645  10
  -2  -4  13 2759.06 646.888   9
   2  -4 -14 2222.08 464.468  13
   2   4  14 1487.17 495.664  12
   2  -4 -14 2325.90 607.172  18
   2   4  14 2765.45 552.140  17
  -2  -4  14 2059.54 608.508  31
  -2  -4  14 1641.04 583.665   9
  -2  -4  15 1305.00 471.368   9
   2  -4 -15 2326.16 453.477  13
   2   4  15 1493.01 471.273  12
   2   4  15 1141.94 422.486  17
   2  -4 -15 945.041 385.003  18
  -2  -4  15 1810.28 585.293  31
   2   4  16 12131.3 1050.11  17
   2  -4 -16 13120.3 954.234  13
   2   4  16 11417.0 1064.27  12
   2  -4 -16 10521.0 1035.77  18
  -2  -4  16 11144.1 1141.54  31
  -2  -4  16 14392.2 1319.95   9
   2  -4 -17 3982.46 570.185  13
   2   4  17 4430.76 679.913  12
   2  -4 -17 3540.84 605.242  18
  -2  -4  17 2364.45 541.878  31
   2   4  17 3720.76 616.024  17
  -2  -4  17 4437.08 767.141   9
   2  -4 -18 10871.9 833.646  13
   2   4  18 10414.4 926.638  12
   2  -4 -18 10220.1 909.910  18
  -2  -4  18 11755.1 1138.79   9
   2  -4 -19 10193.7 787.382  13
   2   4  19 9127.63 814.120  12
   2   4  19 8805.49 831.935  17
  -2   4 -19 10130.7 834.296  32
  -2  -4  19 8930.88 976.275   9
   2  -4 -20 14150.3 861.230  13
   2   4  20 13288.1 916.525  12
  -2   4 -20 13947.4 896.944  32
   2   4  20 13028.2 975.083  17
  -2  -4  20 13700.8 1101.20   9
   2  -4 -21 7186.96 584.551  13
   2   4  21 6245.63 593.310  12
  -2   4 -21 6092.77 564.846  32
   2   4  21 5584.53 606.170  17
  -2  -4  21 6439.82 742.678   9
   2  -4 -22 12534.6 702.212  13
   2   4  22 10127.5 674.236  12
  -2   4 -22 11802.8 698.184  32
   2   4  22 9391.20 687.585  17
  -2  -4  22 11908.6 889.697   9
   2  -4 -23 6272.51 453.234  13
  -2  -4  23 7544.55 640.971   9
  -2   4 -23 7834.06 500.942  32
   2   5 -21 2233.50 325.022  32
   2  -5  20 43.9750 141.154  14
   2   5 -20 366.273 211.536  18
   2  -5  20 73.1072 189.650  17
   2   5 -20 688.597 263.804  32
  -2  -5 -20 892.470 334.438  30
   2  -5  19 546.785 201.770  14
   2  -5  19 1134.47 304.047  17
   2   5 -19 1307.75 338.375  18
   2   5 -19 1395.29 344.046  32
  -2  -5 -19 1015.09 403.516  30
   2  -5  18 456.497 206.548  14
   2   5 -18 826.290 348.613  18
   2   5 -18 971.997 344.844  32
   2  -5  18 688.710 260.887  17
  -2  -5 -18 747.846 405.072  31
  -2  -5 -18 561.526 344.763  30
   2  -5  17 308.443 231.332  14
   2  -5  17 447.543 267.659  19
   2   5 -17 375.955 303.971  18
   2   5 -17-162.465 258.265  32
   2  -5  17 150.734 201.914  17
  -2  -5 -17 74.7020 335.532  31
   2  -5  16 1967.48 412.581  14
   2  -5  16 3192.74 515.142  19
   2   5 -16 2513.60 503.370  32
   2  -5  16 3292.92 526.822  17
  -2  -5 -16 2244.68 617.200  31
   2   5 -16 1800.52 354.275  16
   2  -5  15 2604.68 471.559  14
   2  -5  15 3731.65 595.756  19
   2   5 -15 3107.35 573.473  32
  -2  -5 -15 2441.29 613.403  31
   2  -5  15 1575.83 382.705  17
   2  -5  14 23474.9 1325.11  14
   2  -5  14 24897.6 1446.57  19
   2   5 -14 27302.9 1515.75  32
  -2  -5 -14 26011.5 1674.34  31
   2  -5  13 11573.6 975.615  14
   2  -5  13 11081.1 1030.36  19
  -2  -5 -13 8140.90 1061.49  11
  -2  -5 -13 7978.95 972.898  31
   2   5 -13 9638.29 933.059  32
   2  -5  12 5040.35 671.090  14
   2  -5  12 6437.20 796.827  19
  -2  -5 -12 6794.95 1015.44  11
   2   5 -12 7001.51 843.248  32
  -2  -5 -12 6103.63 937.987  31
   2  -5  12 6356.19 656.752  15
   2  -5  11 12944.4 1054.02  14
   2  -5  11 13144.1 1131.51  19
  -2  -5 -11 12119.4 1333.71  11
   2   5 -11 12242.5 1066.36  32
  -2  -5 -11 12372.2 1228.24  31
   2  -5  11 13312.4 939.577  15
   2  -5  10 12325.3 1031.97  14
   2  -5  10 12317.2 1113.74  19
  -2  -5 -10 11388.3 1316.03  11
   2   5 -10 12059.5 1047.35  32
  -2  -5 -10 11864.5 1220.88  31
   2  -5  10 12154.6 916.984  15
   2  -5   9 7983.40 847.076  14
  -2  -5  -9 7830.33 1011.58  31
   2  -5   9 8000.63 889.910  19
   2   5  -9 8464.97 893.896  32
  -2  -5  -9 5985.43 988.672  11
   2  -5   9 7822.59 754.288  15
   2  -5   8 5312.43 709.859  14
  -2  -5  -8 6850.74 981.158  26
  -2  -5  -8 6661.16 1005.35   8
   2   5  -8 4311.98 633.612  25
   2   5  -8 5941.99 674.590  22
  -2   5   8 6048.90 873.994   8
   2  -5   8 4896.43 710.821  19
  -2  -5  -8 6746.03 1076.96  11
   2   5  -8 4774.08 686.198  32
  -2  -5  -8 4477.64 766.853  31
   2  -5   8 5447.10 649.052  15
   2  -5   8 4306.88 817.932   6
   2  -5   7 3814.48 615.823  14
  -2  -5  -7 5002.91 839.711  26
   2   5  -7 4172.47 574.585  22
  -2  -5  -7 4614.87 854.308   8
   2   5  -7 4076.68 594.860  12
   2  -5   7 4585.78 691.241  19
  -2  -5  -7 4305.88 879.692  11
   2   5  -7 4444.30 662.808  32
  -2  -5  -7 3537.14 717.360  31
   2  -5   7 3880.97 581.419  15
   2  -5   7 5510.19 925.332   6
   2  -5   6 21781.2 1366.35  14
  -2  -5  -6 21632.6 1708.62  26
  -2  -5  -6 23196.9 1819.93   8
   2   5  -6 21052.8 1290.61  22
  -2  -5  -6 20638.8 1142.75  21
   2   5  -6 20543.4 1243.91  12
   2  -5   6 19996.0 1385.53  19
  -2  -5  -6 19258.7 1738.01  11
  -2  -5  -6 19992.6 1545.82  31
   2  -5   6 23236.5 1830.64   6
   2  -5   6 21671.4 1265.53  15
   2  -5   5 5790.71 722.107  14
  -2  -5  -5 5323.67 859.007  26
   2   5  -5 4722.80 616.426  22
  -2  -5  -5 5768.39 927.662   8
  -2  -5  -5 5414.14 605.028  21
   2   5  -5 5391.32 681.162  12
   2  -5   5 5650.06 766.625  19
  -2  -5  -5 5396.43 880.611  31
  -2  -5  -5 3806.36 805.087  11
   2  -5   5 5044.67 627.895  15
   2  -5   5 4667.22 841.884   6
   2  -5   4 21825.0 1366.55  14
  -2  -5  -4 22986.9 1729.78  26
  -2  -5  -4 24285.9 1864.86   8
   2   5  -4 21978.3 1314.11  22
  -2  -5  -4 23750.3 1239.76  21
   2   5  -4 21427.7 1297.85  12
   2  -5   4 23275.7 1448.12  19
  -2  -5  -4 23013.8 1640.75  31
   2  -5   4 23258.9 1824.81   6
  -2  -5  -4 27660.2 1693.64   9
   2  -5   4 22429.2 1272.83  15
   2  -5   3 25617.3 1455.89  14
  -2  -5  -3 27679.5 1870.87  26
  -2  -5  -3 29530.9 2073.02   8
   2   5  -3 25232.3 1412.71  22
  -2  -5  -3 27192.4 1335.33  21
   2   5  -3 24947.6 1424.80  12
   2  -5   3 25778.8 1512.19  19
  -2  -5  -3 26548.6 1748.30  31
   2  -5   3 26282.7 1937.56   6
  -2  -5  -3 30032.7 1769.67   9
   2  -5   3 26467.6 1371.67  15
   2  -5   2 50799.6 2026.22  14
  -2  -5  -2 44984.3 2358.47  26
  -2  -5  -2 49148.6 2631.42   8
   2   5  -2 44184.5 1858.54  22
  -2  -5  -2 46207.1 1755.94  21
   2   5  -2 45511.3 1904.15  12
  -2  -5  -2 46139.2 2078.55  19
   2  -5   2 47869.7 2034.09  19
   2  -5   2 42081.4 2036.66  18
  -2  -5  -2 44637.1 2254.40  31
  -2  -5  -2 51675.5 2361.82   9
   2  -5   2 51119.5 2687.80   6
   2  -5   2 44968.3 1790.24  15
   2  -5   1 24860.7 1421.89  14
  -2  -5  -1 24671.9 1772.74  26
  -2  -5  -1 24467.3 1869.66   8
  -2   5   1 25939.0 1316.49  23
   2   5  -1 23766.4 1381.44  22
  -2  -5  -1 24409.2 1278.28  21
   2   5  -1 26001.5 1463.56  12
  -2  -5  -1 21885.7 1434.63  19
   2  -5   1 22055.8 1359.02  19
   2  -5   1 21749.2 1514.58  18
   2  -5   1 24415.0 1253.32  10
  -2  -5  -1 23488.5 1653.26  31
  -2  -5  -1 26215.1 1680.92   9
   2  -5   1 24619.5 1870.76   6
   2  -5   1 24357.6 1303.73  15
   2  -5   0 12556.6 1027.10  14
  -2  -5   0 15189.1 1386.08  26
  -2  -5   0 17408.3 1601.29   8
  -2   5   0 14425.3 1002.40  23
   2   5   0 14225.5 1089.73  22
  -2  -5   0 16060.6 1048.71  21
   2   5   0 15915.7 1171.48  12
  -2  -5   0 14816.2 1184.10  19
   2  -5   0 14332.1 1232.46  18
   2  -5   0 12792.4 928.307  10
  -2  -5   0 16538.4 1381.98  31
  -2  -5   0 16717.4 1367.24   9
   2  -5   0 15034.3 1498.72   6
   2  -5   0 13942.3 1010.00  15
   2  -5  -1 24345.2 1418.28  14
   2   5   1 24271.4 1644.34   5
  -2  -5   1 21582.4 1638.44  26
  -2  -5   1 26060.6 1939.28   8
  -2   5  -1 25435.2 1335.13  23
   2   5   1 23670.3 1397.40  22
  -2   5  -1 23226.2 1140.09  21
  -2  -5   1 24631.3 1288.73  21
   2   5   1 25840.1 1477.00  12
  -2  -5   1 22842.3 1471.21  19
   2  -5  -1 21476.2 1493.28  18
   2  -5  -1 23689.2 1280.01  10
  -2  -5   1 23002.6 1629.35  31
  -2  -5   1 25664.1 1669.74   9
   2  -5  -1 24840.1 1901.58   6
   2  -5  -1 25108.7 1341.61  15
   2  -5  -2 45162.4 1927.97  14
   2   5   2 46563.4 2302.14   5
  -2  -5   2 44126.2 2339.90  26
  -2  -5   2 49100.9 2628.77   8
  -2   5  -2 47545.5 1858.97  23
   2   5   2 45499.6 1925.79  22
  -2   5  -2 43301.9 1579.41  21
  -2  -5   2 45638.2 1744.82  21
   2   5   2 47826.7 2036.64  12
  -2  -5   2 42346.9 1988.16  19
   2  -5  -2 41324.0 2072.00  18
   2  -5  -2 44480.9 1752.82  10
  -2  -5   2 43348.0 2226.81  31
  -2  -5   2 49883.4 2320.23   9
   2  -5  -2 46033.1 2565.83   6
   2  -5  -2 46917.3 1798.80  15
   2   5   3 27581.6 1800.89   5
  -2  -5   3 23808.4 1724.87  26
  -2  -5   3 27302.2 1979.41   8
   2  -5  -3 25295.0 1313.81  13
  -2   5  -3 26429.7 1400.32  23
   2   5   3 28161.8 1537.85  22
   2   5   3 28505.3 1569.66  12
  -2  -5   3 27210.4 1350.36  21
  -2  -5   3 24435.3 1520.23  19
   2  -5  -3 25432.3 2005.23  11
   2  -5  -3 25065.7 1646.55  18
   2  -5  -3 23623.7 1303.18  10
  -2  -5   3 24436.1 1686.36  31
  -2  -5   3 26936.0 1761.47   9
   2  -5  -3 24675.0 1908.95   6
   2  -5  -3 25254.8 1319.86  15
   2   5   4 22467.2 1665.03   5
  -2  -5   4 20761.8 1603.20  26
  -2  -5   4 21423.4 1762.83   8
   2  -5  -4 21862.2 1228.36  13
  -2   5  -4 23894.4 1338.83  23
   2   5   4 22968.2 1389.03  22
   2   5   4 25113.0 1490.53  12
  -2  -5   4 24070.8 1277.97  21
  -2  -5   4 20429.7 1379.73  19
   2  -5  -4 24883.1 1974.11  11
  -2  -5   4 21246.3 1593.74  31
   2  -5  -4 22774.5 1574.85  18
   2  -5  -4 20930.0 1233.10  10
  -2  -5   4 24138.5 1664.96   9
   2  -5  -4 21822.4 1794.31   6
   2  -5  -4 23205.6 1263.14  15
  -2  -5   5 5863.21 882.192  26
   2  -5  -5 5048.53 614.682  13
  -2   5  -5 5726.22 676.797  23
   2   5   5 4910.59 689.101  22
   2   5   5 4816.50 800.773   5
  -2  -5   5 4856.92 908.232   8
   2   5   5 5646.12 736.961  12
  -2  -5   5 5343.00 608.681  21
  -2  -5   5 5179.64 718.259  19
   2  -5  -5 5684.39 1026.93  11
   2  -5  -5 6152.01 862.286  18
   2  -5  -5 4058.95 582.938  10
  -2  -5   5 3660.53 629.199  31
   2  -5  -5 5355.14 654.674  15
  -2  -5   5 4412.65 765.042   9
   2   5   6 20514.4 1630.01   5
  -2  -5   6 21859.7 1769.55   8
   2  -5  -6 22797.7 1257.10  13
  -2   5  -6 21705.5 1301.00  23
   2   5   6 20178.0 1328.32  22
  -2   5  -6 19904.1 1124.56  21
   2   5   6 22240.1 1443.45  12
  -2  -5   6 20875.4 1190.60  21
  -2  -5   6 21006.5 1242.58   4
  -2  -5   6 20385.1 1378.14  19
   2  -5  -6 23895.0 2006.85  11
   2  -5  -6 18195.8 1455.93  18
  -2  -5   6 18957.0 1464.30  31
  -2  -5   6 21945.9 1624.93   9
   2  -5  -6 19911.9 1183.31  15
   2  -5  -6 19958.3 1225.39  10
   2  -5  -7 2721.92 498.393  15
   2  -5  -7 4542.60 595.263  13
  -2   5  -7 3885.67 574.489  23
   2   5   7 2934.35 671.389   5
   2   5   7 4322.19 629.359  22
  -2  -5   7 3499.42 747.710   8
  -2  -5   7 4373.02 557.321  21
  -2   5  -7 3549.78 503.219  21
   2   5   7 3642.63 629.078  12
  -2  -5   7 3717.75 642.731  19
   2  -5  -7 3669.47 904.372  11
   2  -5  -7 4378.29 608.598  10
   2  -5  -7 3309.61 698.220  18
  -2  -5   7 3447.56 559.573   4
  -2  -5   7 5015.23 799.969  31
  -2  -5   7 4895.46 784.781   9
   2  -5  -8 6169.30 682.753  13
  -2   5  -8 5515.40 671.228  23
   2   5   8 5299.11 879.315   5
   2   5   8 5570.98 709.827  22
  -2   5  -8 5754.53 622.719  21
  -2  -5   8 5268.80 842.311   8
   2   5   8 5534.39 768.928  12
  -2  -5   8 5211.20 607.797  21
  -2  -5   8 5022.91 658.752   4
  -2  -5   8 5582.93 753.421  19
   2  -5  -8 4100.09 589.243  10
   2  -5  -8 6595.36 1108.78  11
   2  -5  -8 4924.21 799.429  18
  -2  -5   8 5900.96 881.756   9
  -2  -5   8 5397.20 869.032  31
   2  -5  -8 4364.22 591.976  15
   2  -5  -9 8477.08 815.355  13
   2   5   9 8242.25 909.226  12
  -2  -5   9 6312.26 790.367  19
   2  -5  -9 7407.52 954.013  18
   2  -5  -9 6937.44 705.751  15
   2  -5  -9 6078.33 726.097  10
  -2  -5   9 8034.46 1030.43  31
  -2  -5   9 7204.48 963.168   9
   2  -5 -10 11199.3 922.187  13
   2   5  10 13684.1 1181.95  12
  -2  -5  10 13184.9 1080.74  19
   2  -5 -10 9322.98 1055.66  18
   2  -5 -10 8697.58 835.415  10
  -2  -5  10 12029.2 1221.11   9
   2  -5 -11 12207.6 958.359  13
   2   5  11 12225.7 1099.97  12
   2  -5 -11 11050.2 1147.89  18
  -2  -5  11 12599.9 1245.58   9
   2  -5 -12 5686.71 710.252  13
   2   5  12 5383.29 748.671  12
   2  -5 -12 4977.60 797.986  18
  -2  -5  12 7449.19 994.884   9
   2  -5 -13 10874.2 885.807  13
   2   5  13 8687.42 916.869  12
   2  -5 -13 8792.04 1003.67  18
   2   5  13 7381.92 842.628  17
  -2  -5  13 7851.60 998.135   9
   2  -5 -14 26306.2 1320.32  13
   2   5  14 24283.7 1438.31  12
   2  -5 -14 21245.6 1459.41  18
   2   5  14 23598.7 1418.11  17
  -2  -5  14 23495.7 1640.97   9
   2  -5 -15 3684.33 550.401  13
   2   5  15 2019.94 453.891  17
   2   5  15 2750.96 520.177  12
   2  -5 -15 2104.30 535.277  18
  -2  -5  15 3027.72 630.714   9
   2  -5 -16 2866.58 462.035  13
   2   5  16 2248.96 479.570  12
   2  -5 -16 2802.70 511.386  18
   2   5  16 1788.16 410.027  17
  -2  -5  16 2624.90 599.214   9
   2  -5 -17-2.73462 236.362  13
   2   5  17-268.253 301.053  12
   2  -5 -17 65.2955 197.621  18
  -2   5 -17 487.251 310.178  32
   2   5  17 594.735 286.234  17
  -2  -5  17 136.930 371.428   9
   2  -5 -18 415.948 212.082  13
   2   5  18 518.575 265.012  12
  -2   5 -18 904.267 299.044  32
   2   5  18 810.832 275.236  17
  -2  -5  18 621.350 381.115   9
   2  -5 -19 733.977 243.813  13
   2   5  19 1252.82 303.685  12
  -2   5 -19 1142.62 297.373  32
   2   5  19 593.906 249.609  17
  -2  -5  19 542.674 316.838   9
   2  -5 -20 288.956 181.211  13
  -2   5 -20 11.5775 172.751  32
   2   5  20 698.393 247.039  17
  -2  -5  20 190.446 267.267   9
   2  -5 -21 2169.64 283.196  13
  -2   5 -21 2632.32 325.867  32
  -2  -5  21 2852.34 433.281   9
   2  -6  18 2158.99 291.064  14
   2   6 -18 2455.15 346.643  18
   2   6 -18 2364.27 349.002  32
   2  -6  17 1736.76 303.506  14
   2  -6  17 2937.76 403.378  19
   2   6 -17 2231.36 371.305  18
   2   6 -17 2403.53 389.465  32
  -2  -6 -17 2432.49 478.063  31
   2  -6  16 155.354 185.915  14
   2  -6  16 566.205 261.245  19
   2   6 -16-124.542 258.387  18
   2   6 -16 280.529 212.243  32
  -2  -6 -16 47.2099 290.764  31
   2   6 -16-352.159 191.370  16
   2  -6  15 1939.13 376.882  14
   2  -6  15 2123.15 414.897  19
   2   6 -15 2517.29 449.088  32
  -2  -6 -15 2933.75 576.840  31
   2  -6  14 8703.89 741.528  14
   2  -6  14 10355.7 858.619  19
  -2  -6 -14 8511.25 953.824  11
   2   6 -14 8014.02 743.330  32
  -2  -6 -14 8563.71 891.069  31
   2  -6  13 451.454 279.906  14
   2  -6  13 883.265 368.875  19
  -2  -6 -13 1034.58 525.906  11
   2   6 -13 1318.77 410.443  32
  -2  -6 -13 783.557 403.414  31
   2  -6  12 5952.52 675.281  14
   2   6 -12 8525.44 730.059  12
   2  -6  12 7242.51 781.694  19
  -2  -6 -12 9832.70 1140.94  11
  -2  -6 -12 5969.84 808.256  31
   2   6 -12 10585.6 882.675  32
   2  -6  11 2873.47 413.318  15
   2  -6  11 2531.91 489.623  14
   2   6 -11 1806.42 398.621  12
   2  -6  11 3034.45 574.014  19
  -2  -6 -11 1854.02 582.977  11
   2   6 -11 2102.38 477.590  32
  -2  -6 -11 2789.98 625.159  31
   2  -6  10 17023.2 1181.55  14
   2   6 -10 17596.6 1092.80  12
   2  -6  10 17998.4 1308.14  19
  -2  -6 -10 16728.4 1564.48  11
   2   6 -10 18064.5 1150.56  32
  -2  -6 -10 17500.5 1364.63  31
   2  -6  10 17696.1 1031.91  15
   2  -6   9 6651.75 760.099  14
   2   6  -9 5689.75 671.658  12
   2  -6   9 7032.23 848.722  19
  -2  -6  -9 6469.32 1039.75  11
  -2  -6  -9 5242.41 800.582  31
   2  -6   9 7277.42 713.631  15
   2  -6   8 612.327 289.846  15
   2  -6   8 247.985 270.196  14
   2   6  -8 1029.29 352.486  12
   2  -6   8 527.924 392.557  19
  -2  -6  -8 1145.63 614.422  11
  -2  -6  -8 969.207 461.292  31
   2  -6   7 6606.38 776.388  14
   2   6  -7 7712.26 798.406  12
   2  -6   7 5878.01 794.067  19
  -2  -6  -7 6844.03 1067.77  11
  -2  -6  -7 5211.21 809.122  31
   2  -6   7 6471.53 692.102  15
   2  -6   6 2620.10 493.661  15
   2  -6   6 2094.59 514.115  14
   2   6  -6 1691.15 459.616  12
   2  -6   6 2066.57 511.512  19
  -2  -6  -6 1872.64 659.341  11
  -2  -6  -6 1952.28 564.726  31
   2  -6   5 25862.7 1492.73  14
   2   6  -5 24827.0 1417.16  12
   2  -6   5 22866.9 1460.43  19
  -2  -6  -5 20396.9 1798.51  11
  -2  -6  -5 22997.9 1607.75  31
   2  -6   5 25445.5 1352.96  15
   2  -6   4 7714.65 842.935  14
   2   6  -4 6275.76 742.991  12
   2  -6   4 5584.37 737.710  19
  -2  -6  -4 5252.10 986.173  11
  -2  -6  -4 5564.95 832.237  31
   2  -6   4 6489.66 700.420  15
   2  -6   3 6021.88 748.918  14
  -2  -6  -3 6491.02 930.549   9
   2   6  -3 6153.90 742.269  12
   2  -6   3 6709.46 832.097  19
  -2  -6  -3 6094.89 1027.47  11
  -2  -6  -3 5618.72 781.317  31
   2  -6   3 6663.59 721.722  15
   2  -6   2 3971.50 629.563  14
   2   6  -2 4875.89 673.025  12
   2  -6   2 5356.01 717.253  19
  -2  -6  -2 4887.54 959.863  11
  -2  -6  -2 5372.52 858.917  31
  -2  -6  -2 5366.83 836.378   9
   2  -6   2 5015.15 651.680  15
   2  -6   1 13816.0 1114.74  14
   2  -6   1 15283.0 1035.82  13
   2   6  -1 14307.0 1116.91  12
  -2  -6  -1 13325.8 1168.91  19
  -2  -6  -1 13912.9 1493.81  11
  -2  -6  -1 14667.0 1326.99  31
  -2  -6  -1 17055.5 1397.30   9
   2  -6   1 15226.9 1061.14  15
   2  -6   0 6748.96 794.399  14
   2  -6   0 7705.37 744.710  13
   2   6   0 7041.23 816.803  12
  -2  -6   0 6174.41 802.874  19
  -2  -6   0 5770.90 1020.91  11
   2  -6   0 8109.30 744.482  10
  -2  -6   0 7633.21 957.861  31
  -2  -6   0 8205.08 994.068   9
   2  -6   0 7810.08 775.403  15
   2  -6  -1 13348.4 1095.12  14
   2  -6  -1 14675.9 1016.89  13
   2   6   1 14379.7 1139.81  12
  -2  -6   1 13295.8 1167.27  19
   2  -6  -1 12845.2 959.087  10
  -2  -6   1 13410.7 1412.30  11
  -2  -6   1 16287.0 1396.30   9
  -2  -6   1 16169.3 1369.39  31
   2  -6  -1 13920.4 1015.55  15
   2  -6  -2 5910.63 656.837  13
   2   6   2 4413.42 703.249  12
  -2  -6   2 4481.53 722.399  19
  -2  -6   2 4140.09 803.210  11
   2  -6  -2 3074.10 663.634  18
   2  -6  -2 3929.09 537.650  10
  -2  -6   2 5079.88 804.547  31
  -2  -6   2 5529.85 856.812   9
   2  -6  -2 4271.44 600.226  15
   2  -6  -3 6531.32 722.643  13
   2   6   3 6469.20 797.697  12
  -2  -6   3 5403.94 784.517  19
   2  -6  -3 5491.56 820.522  18
   2  -6  -3 5305.62 656.894  10
  -2  -6   3 6500.02 881.809   9
   2  -6  -3 6115.54 699.862  15
   2  -6  -4 8025.84 769.098  13
   2   6   4 7166.62 855.294  12
  -2  -6   4 6461.91 865.492  19
   2  -6  -4 6216.91 709.046  10
   2  -6  -4 7356.65 966.839  18
  -2  -6   4 7706.01 947.862   9
   2  -6  -4 5670.14 669.620  15
   2  -6  -5 25456.0 1367.68  13
   2   6   5 24897.5 1498.72  12
  -2  -6   5 23679.6 1520.88  19
   2  -6  -5 22763.4 1633.92  18
  -2  -6   5 26216.0 1766.28   9
   2  -6  -5 22771.5 1266.41  15
   2  -6  -6 1488.95 412.020  15
   2  -6  -6 2777.27 483.073  13
   2   6   6 1580.02 521.816  12
  -2  -6   6 2628.72 580.683  19
   2  -6  -6 1464.71 513.742  18
  -2  -6   6 2723.71 619.442   9
   2  -6  -7 7711.61 755.577  13
   2   6   7 7083.56 811.751  12
  -2  -6   7 6598.12 846.816  19
   2  -6  -7 6278.97 901.756  18
  -2  -6   7 7717.99 960.309   9
   2  -6  -7 5200.46 644.050  15
   2  -6  -8 525.964 313.932  15
   2  -6  -8 708.572 341.794  13
   2   6   8 880.510 419.256  12
  -2  -6   8 530.998 391.091  19
   2  -6  -8-27.6913 317.283  18
  -2  -6   8 821.470 477.645   9
   2  -6  -9 7140.32 711.560  13
   2   6   9 6198.66 766.792  12
  -2  -6   9 5209.58 711.661  19
   2  -6  -9 4164.81 757.139  18
  -2  -6   9 6644.07 898.254   9
   2  -6  -9 5509.21 628.541  15
   2  -6 -10 17765.7 1092.03  13
   2   6  10 17327.1 1231.15  12
  -2  -6  10 17376.6 1203.95  19
   2  -6 -10 14952.8 1251.67  18
  -2  -6  10 19691.7 1458.41   9
   2  -6 -11 3293.99 513.993  13
   2   6  11 2397.64 535.993  12
  -2  -6  11 1172.15 364.351  19
   2  -6 -11 2088.31 548.831  18
  -2  -6  11 2737.34 631.634   9
   2  -6 -12 7078.68 666.449  13
   2   6  12 10657.9 927.110  12
  -2  -6  12 9203.88 841.924  19
   2  -6 -12 6912.50 818.194  18
  -2   6 -12 11912.0 889.523  32
  -2  -6  12 7210.39 870.564   9
   2  -6 -13 1296.99 369.853  13
   2   6  13 880.219 356.814  12
   2  -6 -13 863.582 364.040  18
  -2   6 -13 1518.31 371.560  32
   2   6  13 1693.09 404.349  17
  -2  -6  13 1182.50 516.792   9
   2  -6 -14 10073.1 743.583  13
   2   6  14 8215.02 760.357  12
   2  -6 -14 6441.07 738.115  18
  -2   6 -14 10208.9 785.497  32
   2   6  14 9169.97 810.816  17
  -2  -6  14 8064.96 888.585   9
   2  -6 -15 2381.93 386.346  13
   2   6  15 2262.29 431.051  12
   2  -6 -15 1386.99 341.810  18
  -2   6 -15 2365.96 390.603  32
   2   6  15 2475.64 429.889  17
  -2  -6  15 1630.44 454.437   9
   2  -6 -16 176.353 184.503  13
   2   6  16-16.7744 184.350  12
  -2   6 -16 467.547 216.242  32
   2   6  16-84.3842 176.348  17
  -2  -6  16-51.3505 285.916   9
   2  -6 -17 2880.37 364.162  13
   2   6  17 1846.09 321.702  12
  -2   6 -17 3125.80 389.356  32
   2   6  17 1890.37 340.913  17
  -2  -6  17 1566.89 407.857   9
   2  -6 -18 2622.42 319.891  13
  -2   6 -18 2616.53 341.011  32
  -2  -6  18 2386.94 424.711   9
   2  -7  15 731.833 192.911  14
   2   7 -15 591.551 216.530  18
   2  -7  14 6639.22 525.660  14
   2  -7  14 6634.10 555.900  19
  -2  -7 -14 6188.13 651.035  11
  -2  -7 -14 6686.89 602.121  31
   2   7 -14 5816.20 494.730  16
   2  -7  13 6685.19 558.936  14
   2   7 -13 5287.88 443.849  12
   2  -7  13 7239.69 632.905  19
  -2  -7 -13 6915.60 767.859  11
  -2  -7 -13 7308.85 677.383  31
   2  -7  12 11188.5 749.791  14
   2   7 -12 9511.19 629.050  12
   2  -7  12 12643.2 865.077  19
  -2  -7 -12 11910.5 1062.59  11
  -2  -7 -12 11383.4 864.494  31
   2  -7  11 1378.04 309.673  14
   2   7 -11 1102.17 267.852  12
   2  -7  11 1413.25 368.326  19
  -2  -7 -11 442.839 419.762  11
  -2  -7 -11 1336.02 401.137  31
   2  -7  10 6114.05 643.519  14
   2   7 -10 7055.19 609.942  12
   2  -7  10 6148.83 682.902  19
  -2  -7 -10 7154.61 927.513  11
  -2  -7 -10 7148.03 756.020  31
   2  -7   9 25623.4 1260.25  14
   2   7  -9 25205.8 1168.50  12
   2  -7   9 28275.4 1412.39  19
  -2  -7  -9 25687.7 1706.43  11
  -2  -7  -9 29063.2 1491.30  31
   2  -7   9 26445.3 1080.83  15
   2  -7   8 8248.07 763.700  14
   2   7  -8 6848.91 642.750  12
   2  -7   8 8170.74 797.440  19
  -2  -7  -8 7079.81 978.421  11
  -2  -7  -8 6297.77 737.788  31
   2  -7   8 8024.10 643.512  15
   2  -7   7 8282.19 761.908  14
   2   7  -7 7127.34 695.110  12
   2  -7   7 7840.30 782.385  19
  -2  -7  -7 7561.25 1049.32  11
  -2  -7  -7 6677.24 764.371  31
   2  -7   7 8112.04 668.857  15
   2  -7   6 2352.73 403.164  15
   2  -7   6 3111.63 522.388  14
   2   7  -6 2979.73 489.732  12
   2  -7   6 2822.83 520.579  19
  -2  -7  -6 3010.31 753.702  11
  -2  -7  -6 3098.35 530.864  31
   2  -7   5 4174.87 608.394  14
   2   7  -5 3897.14 554.260  12
   2  -7   5 4771.92 639.842  19
  -2  -7  -5 3695.43 762.640  11
  -2  -7  -5 4177.51 637.747  31
   2  -7   5 4868.51 559.650  15
   2  -7   4 2996.40 543.616  14
   2  -7   4 4206.44 528.906  13
   2   7  -4 2867.34 502.043  12
   2  -7   4 4729.14 631.246  19
  -2  -7  -4 1982.98 648.607  11
   2  -7   4 4589.76 568.702  15
   2  -7   3 1589.73 361.452  15
   2  -7   3 1803.47 470.875  14
   2  -7   3 2069.87 379.375  13
   2   7  -3 2207.81 491.761  12
   2  -7   3 2545.52 460.818  19
  -2  -7  -3 2494.10 669.870  11
   2  -7   2 7344.58 805.159  14
   2  -7   2 5998.88 617.186  13
   2   7  -2 7368.25 790.132  12
   2  -7   2 8542.68 803.447  19
   2  -7   2 7226.53 704.640  15
   2  -7   1 1316.74 335.455  13
   2   7  -1 2975.65 522.301  12
  -2  -7  -1 2415.57 611.425  11
   2  -7   1 3494.54 516.210  15
   2  -7   0 823.109 319.236  15
   2  -7   0 445.571 297.462  13
   2   7   0 624.378 317.506  12
  -2  -7   0 1109.28 484.675  11
  -2  -7   0 337.179 357.508   9
   2  -7  -1 3025.41 498.572  13
   2   7   1 4276.08 608.923  12
  -2  -7   1 1589.44 532.006  11
   2  -7  -1 3897.02 554.623  15
  -2  -7   1 2601.28 601.797   9
   2  -7  -2 4872.99 572.010  13
  -2  -7   2 8627.46 973.546   9
   2   7   2 8347.44 842.626  12
  -2  -7   2 6242.28 776.741  19
   2  -7  -2 7263.41 709.022  15
   2  -7  -3 1273.30 387.586  15
   2  -7  -3 591.699 339.312  13
   2   7   3 1907.22 482.117  12
  -2  -7   3 930.872 387.330  19
  -2  -7   3 1548.70 493.701   9
   2  -7  -4 3337.65 505.112  15
   2  -7  -4 4266.70 537.509  13
   2   7   4 3749.90 568.852  12
  -2  -7   4 2951.27 594.350  19
  -2  -7   4 3512.83 687.138   9
   2  -7  -5 4110.85 549.229  13
   2   7   5 4396.79 601.219  12
  -2  -7   5 3499.27 607.580  19
   2  -7  -5 5129.69 599.452  15
  -2  -7   5 4511.83 737.843   9
   2  -7  -6 1950.65 389.784  13
   2   7   6 3252.18 550.917  12
  -2  -7   6 3324.39 590.388  19
  -2  -7   6 2633.34 620.507   9
   2  -7  -6 2342.55 410.658  15
   2  -7  -7 8006.57 696.117  13
   2   7   7 7465.62 764.566  12
  -2  -7   7 7063.59 779.006  19
  -2  -7   7 9426.08 958.945   9
   2  -7  -8 6456.80 595.132  13
   2   7   8 6587.39 703.025  12
  -2  -7   8 6611.66 739.573  19
  -2  -7   8 7025.86 834.063   9
   2  -7  -9 27170.2 1185.38  13
   2   7   9 26528.2 1319.44  12
  -2  -7   9 29815.4 1587.09   9
   2  -7 -10 5950.08 562.674  13
   2   7  10 7264.54 679.002  12
  -2  -7  10 6972.53 808.368   9
   2  -7 -11 1062.64 299.109  13
   2   7  11 811.620 299.159  12
  -2  -7  11 1148.58 407.639   9
   2  -7 -12 11093.5 695.576  13
   2   7  12 9999.45 725.363  12
  -2  -7  12 12252.7 920.748   9
   2  -7 -13 6283.30 509.409  13
   2   7  13 6059.00 528.248  12
  -2  -7  13 7477.25 710.774   9
   2  -7 -14 6330.05 474.182  13
  -2  -7  14 7042.30 642.797   9
   2  -7 -15 786.022 199.618  13
  -2  -7  15 493.546 211.714   9
  -2  -8  -9 4774.75 608.767  11
   2   8  -8 6266.77 479.425  12
   2  -8   8 5384.79 489.136  19
  -2  -8  -8 5409.68 658.476  11
   2   8  -7 3805.27 405.448  12
   2  -8   7 4302.85 454.514  19
  -2  -8  -7 3443.18 553.311  11
   2   8  -6 8070.37 589.800  12
   2  -8   6 7842.59 607.437  19
  -2  -8  -6 7806.25 827.496  11
   2  -8   6 7905.98 503.706  15
   2   8  -5 741.766 242.839  12
   2  -8   5 274.595 162.558  19
  -2  -8  -5 924.616 425.393  11
   2  -8   5 816.969 233.344  15
   2  -8   4 6323.40 471.704  13
   2   8  -4 7330.34 605.275  12
   2  -8   4 6783.69 564.055  19
  -2  -8  -4 5917.73 739.158  11
   2  -8   4 6603.39 514.726  15
   2  -8   3 6334.14 486.135  13
   2   8  -3 6420.18 582.809  12
  -2  -8  -3 6281.19 759.946  11
   2  -8   3 7420.64 574.201  15
   2  -8   2-315.311 160.529  13
   2   8  -2 106.428 217.391  12
  -2  -8  -2-42.0183 254.877  11
   2  -8   2 263.371 196.055  15
   2  -8   1 2117.30 315.669  13
   2   8  -1 2843.24 422.344  12
  -2  -8  -1 2603.11 500.405  11
   2  -8   1 2763.69 382.335  15
   2  -8   0 875.827 246.260  13
   2   8   0 1414.81 362.589  12
   2  -8   0 1565.10 319.498  15
   2  -8  -1 2660.01 359.399  13
   2   8   1 2278.18 381.809  12
   2  -8  -1 3159.79 407.047  15
   2  -8  -2-76.3813 171.228  13
   2   8   2-214.912 250.926  12
   2  -8  -3 6921.62 538.551  13
   2   8   3 6816.48 596.684  12
   2  -8  -4 5996.62 492.829  13
   2   8   4 6983.61 588.564  12
   2  -8  -5 588.050 221.297  13
   2   8   5 1033.61 278.524  12
   2  -8  -6 7339.77 525.732  13
   2   8   6 7451.18 578.407  12
   2  -8  -7 4909.99 420.446  13
   2   8   7 3721.09 424.396  12
  -2  -8   7 5190.56 575.985   9
   2  -8  -8 6015.46 448.274  13
   2   8   8 5445.83 459.427  12
  -2  -8   8 6048.03 590.357   9
  -2  -8   9 6138.11 567.628   9
   3   0   0-71.7979 300.818   5
  -3   0   0 100.510 170.368  21
   3   0   1 111.640 246.955   5
   3   0  -1 479.239 399.269   5
  -3   0  -1 691.989 245.225  21
  -3   0   1 467.314 201.624  21
  -3   0  -1 591.984 425.322  29
  -3   0   1 546.246 439.206  29
   3   0   2 207.371 325.679   5
   3   0  -2 527.887 336.114   5
  -3   0   2 1061.65 480.581   8
  -3   0  -2 519.978 276.341  21
  -3   0   2 799.943 252.872  21
  -3   0  -2 533.301 339.491  29
  -3   0   2 859.794 477.353  29
   3   0  -3 2112.71 469.521  24
   3   0   3 2200.87 537.363   5
   3   0  -3 3591.53 749.487   5
  -3   0  -3 3353.71 485.046  21
  -3   0   3 3118.81 670.702   8
  -3   0   3 2783.01 398.838  21
  -3   0  -3 2316.73 649.728  29
  -3   0   3 2758.12 749.008  29
  -3   0   4 12561.1 1190.45  26
   3   0   4 11509.8 1178.39   5
   3   0  -4 12856.1 1092.75  24
  -3   0   4 10640.8 1169.14   8
   3   0  -4 11222.4 1190.01   5
  -3   0  -4 12862.5 896.277  21
  -3   0  -4 11935.4 1312.59  29
  -3   0   4 11702.1 1306.23  29
  -3   0   5 31270.3 1898.86  26
   3   0   5 29203.8 1851.95   5
   3   0  -5 30851.1 1722.61  24
  -3   0   5 29396.9 1953.92   8
   3   0  -5 30391.9 1928.84   5
  -3   0  -5 30277.1 1362.77  21
  -3   0  -5 31479.5 2114.51  29
  -3   0   5 30722.6 2108.05  29
  -3   0   6 2960.22 660.710  26
  -3   0  -6 3653.70 575.155  25
   3   0  -6 3247.40 613.871  24
   3   0   6 3470.44 674.487   5
   3   0  -6 2420.37 595.610   5
  -3   0  -6 3520.47 508.283  21
  -3   0   6 2874.19 682.490   8
  -3   0  -6 2994.70 542.355  33
   3   0   6 3694.22 613.129  19
   3   0  -6 4497.31 720.970  32
   3   0   6 3567.07 542.796  10
  -3   0   6 2689.81 690.341  29
   3   0  -6 3502.36 634.467  16
  -3   0  -6 4180.09 839.287  29
  -3   0   7 16615.4 1435.23  26
   3   0   7 15241.8 1335.16   5
  -3   0  -7 16714.2 1156.11  25
   3   0  -7 18395.4 1379.26  24
  -3   0   7 16894.1 1526.79   8
  -3   0  -7 16889.7 1036.28  21
   3   0  -7 17320.6 1315.76  32
   3   0   7 16760.5 1211.52  19
   3   0  -7 19472.2 1353.38  18
   3   0   7 17984.7 1098.32  10
  -3   0  -7 13464.8 1043.70  33
   3   0  -7 18511.1 1359.95  16
  -3   0  -7 18499.7 1653.15  29
  -3   0   7 13778.4 1461.16  29
   3   0   7 15178.6 999.880  15
  -3   0   8 7787.28 1027.77  26
   3   0   8 8052.71 968.745   5
  -3   0  -8 7619.24 805.881  25
   3   0  -8 9074.47 1017.86  24
  -3   0   8 8650.15 1143.08   8
  -3   0  -8 7846.92 723.708  21
   3   0   8 8407.73 873.464  19
   3   0  -8 9760.94 1002.57  32
   3   0   8 9439.43 807.699  10
  -3   0  -8 7196.42 754.937  33
   3   0  -8 11309.5 1043.69  18
  -3   0  -8 8312.06 1080.60  30
   3   0  -8 9521.07 1001.13  16
  -3   0  -8 9339.85 1198.96  29
  -3   0   8 8589.99 1188.14  29
   3   0   8 8563.21 780.592  15
  -3   0   9 4721.29 838.312  26
  -3   0  -9 5349.93 676.537  25
   3   0  -9 6349.27 869.988  24
  -3   0  -9 5725.13 623.468  21
  -3   0   9 5206.99 892.023   8
   3   0   9 6750.77 808.041  19
   3   0  -9 6544.64 874.280  18
  -3   0  -9 5021.74 666.277  33
   3   0   9 6996.42 707.720  10
  -3   0   9 4705.58 803.129  31
  -3   0  -9 5201.00 905.235  30
   3   0  -9 5533.01 777.744  16
  -3   0  -9 5712.57 1010.20  29
  -3   0   9 5656.41 949.489  29
   3   0  -9 5188.29 737.773  32
   3   0   9 4880.63 601.116  15
   3   0  10-260.593 235.785  15
  -3   0  10 639.851 340.921  26
  -3   0 -10-194.682 189.659  25
   3   0 -10 299.437 287.329  24
  -3   0  10-770.648 476.593   8
  -3   0 -10-155.564 221.060  21
  -3   0 -10 223.963 482.297  30
  -3   0 -10 167.820 262.767  33
   3   0  10-334.932 303.220  19
   3   0 -10-224.235 320.299  18
  -3   0  10-706.304 417.345  31
   3   0  10 353.502 165.017  10
   3   0 -10 137.688 305.078  32
   3   0 -10-591.288 319.645  16
  -3   0 -10-184.604 338.673  29
  -3   0  10-188.261 359.594  29
   3   0  11 184.377 201.563  15
  -3   0  11 1159.23 518.195  26
  -3   0 -11 343.072 290.932  25
   3   0 -11-292.003 316.511  24
  -3   0  11-949.452 443.585   8
   3   0  11 223.764 286.582  19
  -3   0 -11 230.604 225.179  33
   3   0 -11 142.354 269.440  32
   3   0 -11 63.5915 362.414  18
  -3   0  11-534.868 469.395  31
   3   0  11 297.823 183.380  10
  -3   0 -11 360.137 441.178  30
   3   0 -11 57.8590 262.997  16
  -3   0 -11-225.559 405.559  29
  -3   0  11 634.062 381.034  29
   3   0  12 3159.64 558.879  12
   3   0  12 4526.47 653.678  19
  -3   0 -12 3136.45 528.675  33
   3   0 -12 4424.28 733.420  18
   3   0 -12 4019.57 662.887  32
  -3   0  12 2423.94 683.291  31
  -3   0 -12 4219.54 822.095  30
   3   0 -12 2907.79 578.321  16
   3   0  12 3686.01 543.090  15
   3   0  13 2739.91 498.590  15
   3   0  13 1778.65 435.113  12
   3   0  13 2644.64 510.849  19
   3   0 -13 2380.89 563.502  18
  -3   0  13 3007.30 624.522  31
  -3   0 -13 3644.03 823.823  30
   3   0 -13 2420.93 515.574  16
  -3   0 -13 2592.42 515.749  33
   3   0  14 204.899 236.476  15
   3   0  14 592.902 363.369  12
   3   0  14 426.102 276.713  19
   3   0 -14 732.699 436.808  18
  -3   0 -14 175.527 284.000  33
  -3   0  14 392.209 393.543  31
  -3   0 -14 569.196 456.271  30
   3   0  15 37344.1 1778.11  12
   3   0 -15 44056.6 2066.81  18
  -3   0 -15 39239.5 1738.15  33
  -3   0  15 34541.4 1927.25  31
  -3   0 -15 40940.3 2248.73  30
   3   0  15 40692.4 1653.15  15
   3   0  16 16748.6 1189.35  12
  -3   0 -16 18672.0 1159.97  33
  -3   0  16 16684.1 1331.24  31
  -3   0 -16 19918.8 1536.94  30
   3   0 -16 20141.6 1392.02  18
   3   0  16 18029.4 1078.73  15
   3   0  17 2530.28 446.347  15
   3   0  17 1834.42 421.543  12
  -3   0 -17 2777.60 491.959  33
   3   0 -17 1752.23 466.275  18
  -3   0  17 1027.01 473.312  31
  -3   0 -17 2456.78 617.222  30
   3   0  18 238.673 203.408  15
   3   0  18-13.6669 257.773  12
  -3   0 -18 164.667 245.655  33
   3   0 -18-36.6911 291.587  18
  -3   0  18-483.353 434.933  31
  -3   0 -18 41.8533 316.378  30
   3   0  19-38.8749 182.603  15
   3   0  19 141.852 229.597  12
   3   0 -19 462.604 293.763  18
  -3   0 -19 348.286 240.404  33
  -3   0  19-244.154 325.073  31
  -3   0 -19-74.8375 375.034  30
   3   0  20 2557.48 358.080  15
   3   0  20 2148.53 419.776  12
  -3   0 -20 2787.68 435.443  33
   3   0 -20 2532.23 430.028  18
  -3   0  20 2223.76 486.266  31
  -3   0 -20 3062.51 541.557  30
   3   0  21 1977.73 304.668  15
   3   0  21 2725.38 432.707  12
  -3   0 -21 2190.60 340.314  33
  -3   0  21 1860.18 417.388  31
  -3   0 -21 1932.94 431.713  30
   3   0 -21 1831.32 354.123  18
   3   0  22 299.334 142.525  15
   3   0  22 189.110 194.828  12
  -3   0 -22 473.106 188.931  33
  -3   0  22 493.406 265.868  31
   3   0 -22 37.5184 161.963  18
  -3  -1 -22 1931.74 299.250  33
   3   1 -22 1283.58 264.811  18
  -3  -1 -22 1628.96 383.113  30
  -3   1  22 1307.94 333.352  31
   3  -1  21 5180.33 542.337  12
  -3  -1 -21 5115.09 499.774  33
   3   1 -21 4916.57 527.100  18
  -3  -1 -21 4657.05 633.645  30
  -3   1  21 5131.11 579.803  31
   3  -1  21 5597.97 439.843  15
   3  -1  20 3185.66 472.532  12
   3   1 -20 4051.60 527.913  18
  -3  -1 -20 3849.29 483.317  33
  -3   1  20 2942.56 523.076  31
  -3  -1 -20 3764.24 612.215  30
   3  -1  20 4034.02 423.150  15
   3  -1  19 4902.92 613.992  12
  -3  -1 -19 5619.84 605.713  33
   3   1 -19 5641.18 643.557  18
  -3   1  19 4588.62 660.161  31
  -3  -1 -19 6194.75 815.072  30
   3  -1  19 6084.89 556.255  15
   3  -1  18 6531.15 696.793  12
  -3  -1 -18 6030.96 651.083  33
  -3   1  18 5483.18 711.610  31
  -3  -1 -18 6365.64 914.753  30
   3   1 -18 6194.64 717.024  18
   3  -1  18 6366.21 600.181  15
   3  -1  17 16622.5 1123.32  12
   3   1 -17 19494.2 1299.47  18
  -3  -1 -17 16782.0 1088.57  33
  -3   1  17 14209.3 1129.83  31
  -3  -1 -17 16690.1 1390.78  30
   3  -1  17 16323.8 976.992  15
   3  -1  16 13591.6 1047.48  12
   3   1 -16 12825.0 1059.27  32
  -3  -1 -16 14714.2 1074.78  33
  -3   1  16 14850.5 1184.43  31
  -3  -1 -16 14905.4 1383.74  30
   3   1 -16 15573.9 1197.19  18
   3  -1  16 15424.6 1002.78  15
   3  -1  15 2952.68 478.495  15
   3  -1  15 2751.07 537.771  12
   3  -1  15 2966.17 502.555  19
  -3  -1 -15 2411.60 497.921  33
   3   1 -15 4367.16 698.117  18
   3   1 -15 3360.95 560.962  32
  -3   1  15 2384.72 576.618  31
  -3  -1 -15 3910.17 835.679  30
   3  -1  14 1844.91 407.348  15
   3  -1  14 2266.84 506.618  12
   3  -1  14 2648.37 542.771  19
  -3  -1 -14 3009.20 557.586  33
   3   1 -14 1587.25 424.026  18
   3   1 -14 1517.10 432.840  32
  -3   1  14 1616.89 535.554  31
  -3  -1 -14 1860.80 616.985  30
   3   1 -14 1865.38 436.580  16
   3  -1  13 20442.6 1313.64  19
   3   1 -13 18317.3 1332.55  32
  -3  -1 -13 19768.7 1308.14  33
  -3  -1 -13 21629.9 1765.60  30
   3   1 -13 20956.1 1369.87  16
   3   1 -13 22987.1 1534.45  18
   3  -1  13 19485.5 1204.95  15
   3  -1  12 10580.1 979.814  19
  -3  -1 -12 10460.6 960.347  33
   3   1 -12 10532.7 1082.69  18
  -3  -1 -12 9754.11 1219.18  30
   3   1 -12 9690.48 972.571  16
   3   1 -12 10446.2 1047.75  32
   3  -1  12 10606.6 894.319  15
   3  -1  11 5856.16 746.371  19
  -3  -1 -11 4554.35 673.000  33
  -3  -1 -11 4846.93 857.703  30
   3   1 -11 5242.31 752.640  18
   3   1 -11 6116.54 840.492  32
   3   1 -11 4642.84 716.403  16
   3  -1  11 4893.61 642.813  15
   3  -1  10 1081.52 312.933  15
  -3  -1 -10 1684.71 391.077  25
   3   1 -10 1154.34 397.701  24
  -3   1  10 2448.43 660.405   8
  -3  -1 -10 1381.29 323.697  21
   3  -1  10 1646.89 432.230  19
  -3  -1 -10 649.325 290.390  33
   3   1 -10 1543.86 453.614  18
   3   1 -10 1090.41 455.501  32
  -3  -1 -10 1061.16 511.240  30
   3   1 -10 612.227 379.622  16
  -3  -1 -10 1002.79 541.864  29
  -3   1  10 92.2847 313.349  29
   3  -1   9 1522.38 389.679  15
  -3  -1  -9 1392.20 360.222  25
   3   1  -9 1101.66 417.543  24
  -3   1   9 2433.71 659.110   8
  -3  -1  -9 1613.74 360.157  21
   3  -1   9 2007.84 472.748  19
  -3  -1  -9 1812.54 448.370  33
   3   1  -9 1464.52 433.587  18
   3   1  -9 906.646 361.369  32
   3  -1   9 1319.49 326.618  10
  -3  -1  -9 1519.06 637.094  30
   3   1  -9 2297.74 548.364  16
  -3  -1  -9 1972.64 630.147  29
  -3   1   9 825.100 455.010  29
   3  -1   8 2472.78 453.174  15
  -3  -1  -8 1678.76 401.312  25
   3   1  -8 1527.84 395.871  24
   3   1  -8 3109.64 621.332   5
  -3   1   8 1992.96 551.361   8
  -3  -1  -8 1908.27 390.045  21
   3  -1   8 1858.07 505.968  19
   3   1  -8 1951.58 498.992  18
   3   1  -8 2662.49 582.697  32
   3  -1   8 2662.35 421.029  10
  -3  -1  -8 1431.58 405.993  33
  -3  -1  -8 1175.98 439.424  30
   3   1  -8 2656.78 566.651  16
  -3  -1  -8 946.561 545.799  29
  -3   1   8 1370.57 644.226  29
  -3  -1  -7 10436.9 947.860  25
   3   1  -7 10674.8 1047.42  24
   3   1  -7 12228.5 1206.18   5
  -3   1   7 12601.9 1337.16   8
  -3  -1  -7 11293.4 851.728  21
   3  -1   7 12082.3 1033.79  19
  -3  -1  -7 10694.6 951.033  33
   3   1  -7 12150.1 1076.81  18
   3  -1   7 12281.5 890.181  10
   3   1  -7 10349.9 1050.91  32
  -3  -1  -7 11068.9 1263.94  30
   3   1  -7 13352.0 1151.95  16
  -3  -1  -7 11481.5 1328.18  29
  -3   1   7 11533.3 1355.76  29
   3  -1   7 11662.1 894.566  15
   3  -1   6 17809.9 1428.47   5
   3   1  -6 19569.4 1364.71  24
   3   1  -6 18562.9 1491.46   5
  -3   1   6 18931.9 1566.02   8
  -3  -1  -6 18230.9 1074.37  21
   3  -1   6 18621.2 1271.94  19
  -3  -1  -6 16730.9 1175.35  33
   3   1  -6 18386.0 1365.40  32
   3  -1   6 17411.9 1066.95  10
   3   1  -6 20400.2 1398.26  16
  -3  -1  -6 18529.7 1649.43  29
  -3   1   6 19660.7 1739.57  29
   3  -1   6 17014.2 1058.00  15
   3  -1   5 7785.05 946.143   5
   3   1  -5 7198.53 943.090   5
   3   1  -5 7806.98 836.896  24
  -3   1   5 8672.81 1087.26   8
  -3  -1  -5 8694.45 754.339  21
   3  -1   5 8919.27 884.106  19
  -3  -1  -5 6444.48 757.492  33
   3  -1   5 7623.32 719.880  10
   3   1  -5 7347.64 870.674  16
  -3  -1  -5 7947.07 1102.55  29
   3   1  -5 7708.40 895.120  32
  -3   1   5 7992.32 1169.56  29
   3   1  -4 12789.4 1232.74   5
   3  -1   4 11585.3 1184.18   5
  -3   1   4 13151.7 1266.94   8
  -3  -1  -4 13139.6 920.397  21
  -3  -1  -4 12585.5 1351.02  29
  -3   1   4 12044.1 1369.07  29
   3   1  -3 14024.3 1289.62   5
   3  -1   3 15035.8 1337.33   5
  -3  -1  -3 15761.3 988.375  21
  -3  -1  -3 15244.4 1482.24  29
  -3   1   3 15450.2 1526.64  29
  -3  -1  -2 6320.57 858.951  26
   3   1  -2 4654.68 807.941   5
   3  -1   2 4155.81 752.017   5
  -3   1   2 5327.02 538.847  21
  -3  -1  -2 4087.74 527.683  21
  -3  -1  -2 4206.81 786.714  29
  -3   1   2 4841.59 861.262  29
  -3  -1  -1 2500.96 585.184  26
   3   1  -1 1966.13 556.082   5
   3  -1   1 2441.99 599.967   5
  -3   1   1 3066.56 413.442  21
  -3  -1  -1 3559.02 479.859  21
  -3  -1  -1 3073.30 665.601  29
  -3   1   1 2364.23 646.045  29
  -3  -1   0 3453.30 704.875  26
   3   1   0 2915.27 626.390   5
   3  -1   0 2215.80 610.625   5
  -3   1   0 2703.26 411.965  21
  -3  -1   0 1600.72 519.632   8
  -3  -1   0 2620.70 428.255  21
  -3  -1   0 1809.02 552.985  29
  -3   1   0 1933.34 612.529  29
  -3  -1   1 3000.97 683.245  26
   3  -1  -1 3001.84 567.664  24
   3   1   1 2915.91 643.134   5
   3  -1  -1 2309.21 579.021   5
  -3   1  -1 3274.26 447.672  21
  -3  -1   1 3378.23 475.468  21
  -3  -1   1 2753.93 596.911   8
  -3  -1   1 3620.94 788.774  29
  -3   1  -1 2776.97 718.884  29
  -3  -1   2 4651.63 771.148  26
   3  -1  -2 4457.40 671.514  24
   3   1   2 4200.22 587.409  22
   3   1   2 4517.71 803.647   5
   3  -1  -2 4030.42 759.588   5
  -3   1  -2 4628.13 544.154  21
  -3  -1   2 4282.25 518.347  21
  -3  -1   2 4717.70 782.337   8
  -3   1  -2 5659.58 965.045  29
  -3  -1   2 4185.18 778.635  29
  -3  -1   3 15337.6 1369.70  26
   3   1   3 14689.7 1334.17   5
  -3  -1   3 13369.6 1332.85   8
   3  -1  -3 15633.3 1235.53  24
   3  -1  -3 13574.5 1328.36   5
   3   1   3 14219.3 1049.34  22
  -3   1  -3 14199.2 921.458  21
  -3  -1   3 14544.6 908.075  21
  -3   1  -3 16281.5 1518.04  29
  -3  -1   3 15401.5 1467.40  29
  -3  -1   4 12910.3 1303.85  26
   3   1   4 13468.2 1273.89   5
  -3   1  -4 12709.0 981.326  25
  -3  -1   4 12289.1 1293.96   8
   3  -1  -4 14016.9 1193.58  24
   3  -1  -4 12006.1 1251.15   5
   3   1   4 11116.7 954.371  22
  -3   1  -4 13123.1 887.387  21
  -3  -1   4 13199.5 856.771  21
  -3   1  -4 13244.4 1364.41  29
  -3  -1   4 12590.2 1357.17  29
  -3  -1   5 6835.16 980.129  26
   3   1   5 7315.06 944.206   5
  -3   1  -5 8066.45 800.273  25
  -3  -1   5 8348.35 1118.51   8
   3  -1  -5 8368.04 956.535  24
   3   1   5 7020.33 773.081  22
  -3   1  -5 8362.01 731.474  21
  -3  -1   5 5914.82 850.282  31
   3   1   5 8555.78 866.607  19
   3   1   5 7184.91 858.637  32
   3   1   5 8954.58 773.007  10
   3  -1  -5 7267.50 873.343  16
  -3   1  -5 8068.32 1106.55  29
  -3  -1   5 9728.22 1181.99  29
  -3  -1   6 21396.6 1690.00  26
   3   1   6 18203.2 1483.26   5
  -3   1  -6 17587.8 1179.07  25
  -3  -1   6 18150.3 1602.60   8
   3  -1  -6 19606.4 1450.29  24
   3   1   6 16305.9 1183.25  22
  -3   1  -6 18352.6 1071.78  21
   3   1   6 19692.7 1315.24  19
   3  -1  -6 19303.5 1341.53  18
   3  -1  -6 16390.8 1274.36  32
   3   1   6 18768.0 1135.36  10
  -3  -1   6 15492.2 1342.25  31
   3  -1  -6 18029.7 1065.88  10
   3  -1  -6 17921.0 1331.20  16
  -3   1  -6 18237.9 1622.20  29
  -3  -1   6 19226.5 1642.58  29
   3   1   6 17635.2 1049.60  15
  -3  -1   7 11420.4 1278.66  26
   3   1   7 10535.7 1129.52   5
  -3   1  -7 10672.2 935.927  25
  -3  -1   7 11392.5 1307.54   8
   3  -1  -7 11815.3 1145.00  24
   3   1   7 9796.82 955.642  22
  -3   1  -7 11799.8 888.609  21
   3   1   7 12364.7 1046.73  19
   3  -1  -7 11575.8 1077.53  32
   3  -1  -7 12284.9 1071.56  18
   3   1   7 12118.8 915.700  10
  -3  -1   7 8790.60 1039.98  31
   3  -1  -7 13040.5 1147.48  16
   3  -1  -7 10541.5 821.918  10
  -3   1  -7 10530.9 1241.30  29
  -3  -1   7 11363.8 1323.98  29
   3   1   7 10356.8 829.156  15
   3   1   8 2466.86 444.376  15
  -3  -1   8 1960.19 536.005  26
  -3   1  -8 2445.12 478.639  25
   3  -1  -8 1326.81 393.310  24
   3   1   8 1501.54 479.837   5
  -3  -1   8 2008.38 708.519   8
  -3   1  -8 2330.56 442.286  21
   3   1   8 2149.91 506.249  19
   3  -1  -8 2569.06 590.978  18
   3  -1  -8 2226.19 390.439  10
  -3  -1   8 2227.62 557.223  31
   3   1   8 1984.32 399.798  10
   3  -1  -8 1922.78 492.149  16
  -3   1  -8 2806.82 703.472  29
  -3  -1   9 1551.96 513.702  26
  -3   1  -9 1839.79 420.373  25
   3  -1  -9 1962.64 533.056  24
   3   1   9 1340.08 449.409   5
  -3  -1   9 1889.36 634.309   8
  -3   1  -9 1756.29 394.150  21
   3   1   9 1659.79 447.139  19
   3  -1  -9 1559.31 458.002  18
  -3  -1   9 1191.13 476.265  31
   3   1   9 1627.27 328.193  10
  -3   1  -9 1302.52 529.292  30
   3  -1  -9 1413.57 450.957  16
  -3   1  -9 906.153 527.048  29
  -3  -1  10 1623.95 590.999  26
  -3   1 -10 1237.81 365.146  25
   3  -1 -10 640.630 393.329  24
   3   1  10 2404.26 589.611   5
  -3  -1  10 355.546 401.003   8
  -3   1 -10 1813.03 367.299  21
   3   1  10 824.464 330.911  12
   3   1  10 879.804 388.303  19
   3  -1 -10 1540.50 490.510  18
  -3  -1  10 1627.10 561.925  31
   3   1  10 736.440 283.746  10
  -3   1 -10 1194.15 448.520  30
   3  -1 -10 850.940 438.741  16
  -3   1 -10 775.473 510.861  29
  -3   1 -10 1603.03 421.323  33
   3   1  11 5020.59 723.978  12
   3   1  11 4187.31 617.863  19
  -3   1 -11 5029.93 609.902  33
   3   1  11 5060.52 609.122  10
  -3  -1  11 4020.93 801.030  31
   3  -1 -11 5669.85 796.661  18
  -3   1 -11 4826.78 856.876  30
   3  -1 -11 4399.84 701.264  16
   3   1  11 3980.87 560.215  15
   3   1  12 9587.04 942.325  12
   3   1  12 10414.5 942.933  19
   3  -1 -12 9285.67 1005.39  18
  -3   1 -12 9498.73 870.657  33
   3   1  12 11264.7 860.354  10
  -3  -1  12 8457.99 1079.28  31
  -3   1 -12 9062.00 1097.74  30
   3  -1 -12 9324.78 952.344  16
   3   1  12 10186.9 864.955  15
   3   1  13 19018.5 1313.39  12
  -3   1 -13 18852.8 1172.21  33
   3  -1 -13 21185.7 1512.57  18
   3   1  13 21922.0 1156.67  10
  -3  -1  13 18702.8 1530.29  31
  -3   1 -13 18876.0 1523.33  30
   3   1  13 19776.0 1180.55  15
   3   1  14 1473.75 385.483  15
   3   1  14 1498.60 433.726  12
  -3   1 -14 2572.98 450.237  33
   3  -1 -14 1659.70 510.507  18
  -3  -1  14 1888.33 569.622  31
  -3   1 -14 2594.22 623.665  30
   3   1  15 2768.55 481.898  15
   3   1  15 2093.13 535.911  12
  -3   1 -15 2829.60 471.204  33
   3  -1 -15 1984.18 528.303  18
  -3  -1  15 3268.42 717.948  31
  -3   1 -15 3313.99 653.783  30
   3   1  16 12963.2 1029.67  12
  -3   1 -16 16197.2 1043.38  33
   3  -1 -16 16492.2 1272.79  18
  -3  -1  16 14507.5 1271.71  31
  -3   1 -16 16086.1 1315.82  30
   3   1  16 15399.7 1002.91  15
   3   1  17 13331.7 1034.76  12
  -3   1 -17 17579.9 1045.95  33
   3  -1 -17 16957.9 1223.44  18
  -3  -1  17 14905.7 1254.51  31
  -3   1 -17 16966.6 1287.57  30
   3   1  17 17823.9 1035.28  15
   3   1  18 6453.08 744.950  12
   3  -1 -18 5045.71 679.617  18
  -3  -1  18 4753.50 767.708  31
  -3   1 -18 5523.03 588.485  33
   3   1  18 6877.46 641.735  15
   3   1  19 4558.81 583.064  12
  -3   1 -19 5075.27 530.812  33
  -3  -1  19 4599.23 675.387  31
   3  -1 -19 4225.34 611.523  18
   3   1  19 4917.50 521.116  15
   3  -1 -20 3249.17 480.276  18
   3   1  20 3872.43 509.595  12
  -3   1 -20 4545.57 488.449  33
  -3  -1  20 3983.52 609.115  31
   3   1  20 4113.36 442.778  15
   3   1  21 5017.81 544.361  12
  -3   1 -21 5695.28 475.594  33
   3  -1 -21 5424.16 537.996  18
  -3  -1  21 5324.65 626.797  31
   3   1  21 5332.28 457.268  15
   3   1  22 1347.30 215.046  15
   3   1  22 1850.74 317.878  12
  -3  -1  22 1008.58 289.402  31
  -3  -2 -21 1336.04 257.617  33
   3   2 -21 1815.28 323.309  18
  -3  -2 -21 1006.53 356.297  30
   3   2 -20 4170.24 511.718  18
  -3  -2 -20 4952.50 510.260  33
  -3  -2 -20 5176.95 700.736  30
   3  -2  20 5383.35 435.955  15
  -3  -2 -19 3299.41 454.320  33
   3   2 -19 4000.26 496.128  32
  -3  -2 -19 4355.16 715.659  30
   3   2 -19 4728.29 581.111  18
   3  -2  19 3617.56 402.085  15
  -3  -2 -18 12203.2 889.051  33
   3   2 -18 13331.2 998.934  18
   3   2 -18 12202.1 925.576  32
  -3  -2 -18 12900.0 1183.08  30
   3  -2  18 13540.2 819.783  15
   3  -2  17 4753.87 603.669  12
  -3  -2 -17 5391.98 628.941  33
   3   2 -17 5491.23 706.180  18
   3   2 -17 5414.82 675.845  32
  -3  -2 -17 5809.87 853.742  30
   3  -2  17 6503.21 616.044  15
   3  -2  16 13797.5 1002.53  12
   3  -2  16 13608.2 955.261  19
  -3  -2 -16 12582.1 964.626  33
  -3  -2 -16 12944.4 1280.46  30
   3   2 -16 13590.2 1089.81  18
   3  -2  16 14362.4 929.471  15
   3  -2  15 22936.5 1307.54  19
  -3  -2 -15 19697.7 1242.57  33
   3   2 -15 22566.8 1451.13  18
   3   2 -15 20694.4 1363.34  32
  -3  -2 -15 18399.1 1551.14  30
   3   2 -15 19443.7 1205.39  16
   3  -2  15 21734.0 1191.12  15
   3  -2  14 4523.01 647.167  19
   3   2 -14 4016.96 673.447  32
  -3  -2 -14 4085.52 624.141  33
   3   2 -14 4889.87 731.183  18
  -3  -2 -14 3345.32 776.553  30
   3   2 -14 3636.41 610.931  16
   3  -2  14 4300.26 569.866  15
   3  -2  13 862.611 279.886  15
   3  -2  13 1462.15 424.893  19
  -3  -2 -13 1337.28 427.632  33
  -3  -2 -13 931.106 490.305  30
   3   2 -13 1093.09 430.428  18
   3   2 -13 1260.31 434.450  16
   3   2 -13 1388.90 478.991  32
   3  -2  12 1098.91 354.016  15
   3  -2  12 1318.77 421.111  19
  -3  -2 -12 1379.16 459.916  33
   3   2 -12 2145.77 582.280  32
  -3  -2 -12 801.850 478.565  30
   3   2 -12 1683.65 486.964  18
   3   2 -12 861.590 355.140  16
   3  -2  11 19161.1 1316.97  19
   3   2 -11 18035.6 1372.77  32
  -3  -2 -11 16822.7 1247.04  33
   3   2 -11 20631.4 1439.60  18
  -3  -2 -11 18703.2 1642.36  30
   3   2 -11 17024.9 1298.45  16
   3  -2  11 17948.7 1148.41  15
   3  -2  10 904.351 354.041  15
   3  -2  10 619.996 340.927  19
  -3  -2 -10 443.542 328.295  33
   3   2 -10 1366.86 447.103  18
   3   2 -10 1925.50 591.631  32
  -3  -2 -10 559.702 449.794  30
   3   2 -10 670.589 388.377  16
   3  -2   9-12.2962 184.449  15
  -3  -2  -9 615.311 271.669  25
   3   2  -9 284.746 247.404  24
  -3  -2  -9 677.226 318.936  21
   3  -2   9 52.2652 305.357  19
   3   2  -9 537.937 368.273  18
  -3  -2  -9 491.083 325.328  33
   3   2  -9 88.6765 287.301  32
  -3  -2  -9 362.736 406.853  30
   3   2  -9 873.287 393.599  16
  -3  -2  -9 1612.63 581.444  29
  -3   2   9 222.888 323.493  29
   3  -2   9 168.289 319.815   6
  -3  -2  -8 15843.4 1149.97  25
   3   2  -8 18751.6 1368.80  24
  -3   2   8 15320.5 1442.76   8
  -3  -2  -8 17787.6 1073.37  21
   3  -2   8 18019.3 1295.34  19
  -3  -2  -8 15714.8 1199.95  33
   3   2  -8 18430.2 1325.15  18
   3   2  -8 19401.4 1414.44  32
   3  -2   8 21667.7 1740.77   6
  -3  -2  -8 16817.2 1538.09  30
   3   2  -8 17269.3 1329.47  16
  -3  -2  -8 17272.2 1630.16  29
  -3   2   8 19077.8 1726.15  29
   3  -2   8 18434.3 1164.40  15
   3  -2   7 3533.15 530.087  15
   3   2  -7 3800.75 643.751  24
  -3  -2  -7 4638.62 580.813  21
  -3   2   7 3342.67 721.166   8
   3  -2   7 3140.18 599.560  19
   3   2  -7 4677.92 737.816  18
  -3  -2  -7 3535.20 632.329  33
   3   2  -7 3197.14 601.930  32
   3  -2   7 2966.10 459.069  10
  -3  -2  -7 4673.77 857.446  30
   3   2  -7 3922.67 669.613  16
  -3  -2  -7 2909.64 718.390  29
  -3   2   7 4132.72 901.209  29
   3  -2   7 5525.12 850.751   6
  -3  -2  -6 5075.45 784.800  26
   3   2  -6 5931.69 848.646   5
  -3  -2  -6 6263.03 661.780  21
   3  -2   6 7516.44 856.407  19
  -3  -2  -6 6234.42 741.490  33
   3  -2   6 6651.14 654.234  10
   3   2  -6 6748.27 871.409  32
   3  -2   6 8694.93 1115.81   6
  -3  -2  -6 6087.67 925.241  30
   3   2  -6 6753.90 841.541  16
  -3  -2  -6 6771.57 1034.12  29
  -3   2   6 5561.29 980.747  29
   3  -2   6 6542.97 686.309  15
  -3  -2  -5 8079.56 1011.14  26
   3   2  -5 6827.30 895.334   5
  -3  -2  -5 7418.10 733.231  21
   3  -2   5 7811.04 864.353  19
  -3  -2  -5 6308.22 793.427  33
   3  -2   5 6325.56 665.190  10
  -3  -2  -5 7228.58 914.983  31
   3   2  -5 6554.74 878.826  32
   3  -2   5 7352.84 994.570   6
  -3  -2  -5 6926.78 1005.90  30
   3  -2   5 6910.18 834.846  16
   3   2  -5 7025.71 847.551  16
  -3  -2  -5 7701.86 1103.74  29
  -3   2   5 5575.34 959.261  29
   3  -2   5 6566.16 695.936  15
  -3  -2  -4 31245.0 1920.21  26
   3   2  -4 31083.2 1908.49   5
  -3  -2  -4 30756.3 1415.30  21
   3  -2   4 29704.5 1623.74  19
  -3  -2  -4 28892.7 1601.60  33
   3  -2   4 31089.1 1443.83  10
  -3  -2  -4 26882.6 1684.36  31
   3   2  -4 31110.9 1743.11  32
   3  -2   4 32140.3 2015.82   6
   3  -2   4 30257.3 1688.96  16
   3   2  -4 29745.4 1689.43  16
  -3  -2  -4 29855.1 2079.28  29
  -3   2   4 31354.1 2139.69  29
   3  -2   4 27843.2 1369.42  15
  -3  -2  -3 25819.5 1768.61  26
   3   2  -3 23252.0 1663.45   5
  -3  -2  -3 23687.0 1239.87  21
   3  -2   3 24142.3 1446.33  19
  -3  -2  -3 21944.1 1388.28  33
   3  -2   3 22804.0 1241.88  10
  -3  -2  -3 24422.7 1595.30  31
   3  -2   3 25483.9 1776.81   6
   3  -2   3 23651.6 1494.79  16
   3   2  -3 23368.2 1524.39  32
   3   2  -3 24542.2 1525.57  16
  -3  -2  -3 22969.8 1795.09  29
  -3   2   3 23921.1 1875.39  29
   3  -2   3 22361.1 1221.68  15
  -3  -2  -2 12332.4 1255.01  26
   3   2  -2 12375.1 1226.49   5
  -3  -2  -2 12680.1 914.637  21
   3  -2   2 13522.4 1098.48  19
  -3  -2  -2 11120.4 985.915  33
   3   2  -2 11681.4 1106.60  32
   3  -2   2 14511.6 1000.27  10
   3   2  -2 10806.3 821.466  10
  -3  -2  -2 9733.44 1038.30  31
   3  -2   2 15660.9 1390.41   6
   3  -2   2 11260.1 1042.09  16
   3   2  -2 13650.4 1145.96  16
  -3  -2  -2 13542.4 1397.23  29
  -3   2   2 13103.5 1401.72  29
   3  -2   2 11699.6 885.348  15
  -3  -2  -1 12435.9 1275.58  26
   3   2  -1 12052.1 1229.79   5
  -3  -2  -1 13178.6 1307.82   8
  -3   2   1 11961.8 810.131  21
  -3  -2  -1 12200.9 908.780  21
   3  -2   1 10587.0 976.123  19
  -3  -2  -1 11149.4 1006.04  33
   3   2  -1 11115.0 1118.01  32
   3  -2   1 11738.9 899.486  10
   3   2  -1 10565.2 808.446  10
  -3  -2  -1 10563.4 1107.30  31
   3  -2   1 12497.5 1096.42  16
   3  -2   1 13102.7 1274.52   6
   3   2  -1 13517.6 1110.70  16
  -3  -2  -1 11868.3 1280.18  29
  -3   2   1 11903.5 1361.40  29
  -3  -2   0 10610.3 1172.21  26
   3   2   0 10568.7 1170.13   5
  -3  -2   0 11268.3 1211.83   8
   3   2   0 10955.7 942.328  22
  -3   2   0 10358.1 773.451  21
  -3  -2   0 11495.9 863.579  21
   3   2   0 9888.39 988.975  32
   3  -2   0 10390.7 839.097  10
   3   2   0 10505.2 817.818  10
  -3  -2   0 10485.6 1094.25  31
   3  -2   0 10917.2 1040.75  16
   3  -2   0 11557.5 1238.09   6
   3   2   0 11018.3 1009.89  16
  -3  -2   0 11628.5 1247.48  29
  -3   2   0 10910.3 1280.60  29
  -3  -2   1 10360.8 1105.10  31
  -3  -2   1 11848.0 1250.54  26
   3   2   1 12639.6 1272.31   5
  -3  -2   1 12390.1 1289.36   8
   3   2   1 10603.7 918.803  22
  -3   2  -1 11538.0 825.295  21
  -3  -2   1 12188.1 887.469  21
   3   2   1 11325.3 1085.69  32
   3  -2  -1 10572.6 865.271  10
   3   2   1 11322.3 858.366  10
   3  -2  -1 12633.3 1139.24  16
   3   2   1 11745.2 1031.55  16
   3  -2  -1 12785.6 1251.04   6
  -3   2  -1 10331.8 1233.60  29
  -3  -2   2 12927.1 1310.00  26
   3   2   2 13525.9 1305.70   5
  -3  -2   2 13081.0 1330.26   8
  -3   2  -2 12815.1 972.280  25
   3   2   2 10665.2 948.228  22
  -3   2  -2 13523.1 888.467  21
  -3  -2   2 12280.6 876.315  21
   3   2   2 11572.2 1086.68  32
   3   2   2 12840.5 933.717  10
  -3  -2   2 11096.0 1157.59  31
   3  -2  -2 14522.8 1220.39  16
  -3   2  -2 13046.0 1351.84  29
   3  -2  -2 12691.6 946.924  10
  -3  -2   3 25591.4 1847.80  26
   3   2   3 23296.1 1708.80   5
  -3  -2   3 22803.1 1800.75   8
  -3   2  -3 21535.0 1267.34  25
   3   2   3 21142.2 1320.45  22
  -3   2  -3 23401.1 1182.59  21
  -3  -2   3 21874.9 1162.89  21
   3  -2  -3 21621.2 1219.75  10
   3   2   3 21277.7 1426.46  32
   3   2   3 23002.8 1230.34  10
  -3  -2   3 22504.9 1627.87  31
   3  -2  -3 23194.7 1529.64  16
  -3   2  -3 22136.3 1762.58  29
  -3  -2   4 31137.0 2046.67  26
   3   2   4 31256.8 1976.96   5
  -3   2  -4 29477.2 1476.10  25
  -3  -2   4 30405.6 2084.72   8
   3   2   4 27977.9 1549.66  22
  -3   2  -4 29889.5 1352.89  21
  -3  -2   4 31094.2 1364.58  21
   3   2   4 23023.3 1513.09  32
   3   2   4 29446.3 1404.95  10
  -3  -2   4 27895.7 1789.76  31
   3  -2  -4 28998.3 1398.44  10
   3  -2  -4 29903.0 1739.54  16
  -3   2  -4 29542.1 1992.78  29
  -3  -2   5 6103.77 955.420  26
   3   2   5 7167.06 980.736   5
  -3   2  -5 7196.50 752.510  25
  -3  -2   5 6388.03 1007.63   8
   3  -2  -5 6843.48 899.138  24
   3   2   5 6169.54 755.861  22
  -3   2  -5 7536.66 706.128  21
  -3  -2   5 6615.14 645.314  21
   3  -2  -5 7470.10 739.418  10
  -3  -2   5 7556.52 999.814  31
   3  -2  -5 6819.37 840.941  18
   3   2   5 7287.75 721.363  10
   3  -2  -5 7938.48 933.376  16
  -3   2  -5 7855.97 1043.55  29
  -3  -2   6 7771.82 1050.39  26
   3   2   6 6547.87 966.985   5
  -3   2  -6 6302.21 722.055  25
  -3  -2   6 5760.53 985.923   8
   3  -2  -6 6568.53 886.796  24
   3   2   6 6421.99 768.598  22
  -3   2  -6 6888.27 665.841  21
   3  -2  -6 7500.44 889.698  18
   3  -2  -6 6750.44 690.700  10
   3   2   6 6551.60 697.503  10
  -3  -2   6 6351.91 923.669  31
   3  -2  -6 6881.56 864.175  16
  -3   2  -6 5026.74 836.282  29
  -3  -2   7 5010.77 920.376  26
  -3   2  -7 4128.69 573.788  25
   3  -2  -7 3811.46 701.696  24
   3   2   7 4185.69 784.229   5
   3   2   7 3432.20 577.692  22
  -3   2  -7 3819.59 520.061  21
  -3  -2   7 4185.47 857.143   8
   3   2   7 4228.12 575.279  10
   3  -2  -7 3320.99 507.075  10
  -3  -2   7 3787.20 768.212  31
   3  -2  -7 3229.49 635.828  18
   3  -2  -7 3348.55 615.083  16
  -3   2  -7 4096.30 778.993  29
  -3  -2   8 18291.3 1640.19  26
   3   2   8 17611.7 1531.90   5
  -3   2  -8 19107.0 1230.93  25
  -3  -2   8 17728.6 1654.28   8
   3  -2  -8 17096.4 1455.47  24
   3   2   8 17303.3 1276.28  22
  -3   2  -8 19099.4 1113.88  21
   3   2   8 16338.3 1208.16  12
   3   2   8 18197.4 1281.45  19
   3  -2  -8 19322.4 1434.56  18
   3  -2  -8 16278.4 1050.82  10
   3   2   8 18406.1 1142.13  10
  -3  -2   8 15198.7 1392.65  31
   3  -2  -8 18802.4 1380.15  16
  -3   2  -8 17863.2 1543.05  29
  -3  -2   9 1225.28 563.206  26
  -3   2  -9 521.279 266.316  25
   3  -2  -9-298.688 353.972  24
   3   2   9-353.151 339.545   5
   3   2   9 816.463 293.743  22
  -3  -2   9-132.798 357.037   8
  -3   2  -9 488.227 246.513  21
   3   2   9 723.191 379.358  12
   3   2   9 525.845 293.008  19
   3  -2  -9 425.744 338.517  18
   3  -2  -9-114.717 173.462  10
  -3  -2   9-484.044 407.495  31
   3   2   9 336.159 301.353  10
  -3   2  -9 1284.45 535.407  30
   3  -2  -9 275.217 335.020  16
   3   2  10 284.698 312.069  12
   3   2  10 818.721 345.983  19
   3  -2 -10 537.131 349.449  18
   3  -2 -10 476.669 233.545  10
  -3  -2  10 560.622 340.464  31
   3   2  10 740.439 288.083  10
  -3   2 -10 715.152 445.257  30
   3  -2 -10 1000.04 398.414  16
   3   2  11 17044.7 1241.86  12
   3   2  11 20440.0 1289.53  19
   3  -2 -11 19860.9 1476.66  18
   3   2  11 18562.3 1131.09  10
  -3  -2  11 16922.2 1469.05  31
   3  -2 -11 16552.6 1255.87  16
   3   2  12 608.926 344.993  12
  -3  -2  12 1100.94 506.074  31
   3   2  12 1638.84 408.380  10
   3   2  13 355.327 390.675  12
   3  -2 -13 1614.73 495.769  18
  -3  -2  13 1053.88 563.228  31
   3   2  13 956.093 328.456  10
   3   2  14 3283.68 590.237  12
   3  -2 -14 3456.02 648.278  18
   3   2  14 3648.84 480.594  10
  -3  -2  14 3423.55 697.081  31
   3   2  15 18409.6 1241.83  12
   3  -2 -15 22478.7 1491.36  18
   3   2  15 22265.4 1091.79  10
  -3  -2  15 19607.9 1512.08  31
   3   2  16 11281.4 968.094  12
   3  -2 -16 14052.6 1146.19  18
  -3  -2  16 12260.7 1174.72  31
   3   2  16 10833.5 825.023  15
   3   2  17 4767.14 650.275  12
   3  -2 -17 5837.30 734.214  18
  -3  -2  17 5196.69 763.596  31
   3   2  17 4997.88 580.896  15
   3   2  18 12824.3 956.034  12
   3  -2 -18 12167.9 967.648  18
  -3  -2  18 11242.5 1047.35  31
   3   2  18 13578.3 846.833  15
   3   2  19 3280.59 502.546  12
   3  -2 -19 3617.25 516.293  18
  -3  -2  19 4444.36 640.113  31
   3   2  19 4269.69 471.957  15
   3   2  20 4102.73 506.863  12
   3  -2 -20 4834.54 545.149  18
  -3  -2  20 4335.23 595.375  31
   3   2  20 4766.45 448.071  15
   3   2  21 923.366 212.751  15
   3   2  21 1071.02 273.998  12
   3  -2 -21 1291.24 277.041  18
  -3  -2  21 757.194 279.778  31
  -3  -3 -20 3441.87 366.975  33
   3   3 -20 3222.96 408.862  18
   3   3 -20 2373.17 329.474  32
  -3  -3 -20 2172.11 432.016  30
   3  -3  19 310.150 180.160  15
  -3  -3 -19 55.6256 191.499  33
   3   3 -19 329.329 225.592  18
   3   3 -19 556.236 242.642  32
  -3  -3 -19 75.0625 258.603  30
  -3  -3 -18 12999.4 814.994  33
   3   3 -18 14509.1 963.874  18
   3   3 -18 13697.8 918.811  32
  -3  -3 -18 14730.7 1149.85  30
   3  -3  18 15468.6 781.798  15
   3  -3  17 4079.00 497.815  19
  -3  -3 -17 3651.12 487.506  33
   3   3 -17 3864.57 561.026  18
   3   3 -17 4073.74 575.945  32
  -3  -3 -17 4456.52 729.399  30
   3  -3  17 3824.43 433.831  15
   3  -3  16 1410.73 306.781  15
   3  -3  16 807.817 302.307  19
   3   3 -16 1308.44 408.838  18
   3   3 -16 1839.66 461.676  32
  -3  -3 -16 986.238 437.451  30
  -3  -3 -16 1516.19 392.030  33
   3  -3  15 811.781 289.758  15
   3  -3  15 416.809 281.628  19
  -3  -3 -15 284.102 236.589  33
   3   3 -15 1343.04 431.780  18
   3   3 -15 183.839 305.508  32
  -3  -3 -15 1242.49 379.642  31
  -3  -3 -15 1500.38 490.817  30
   3   3 -15 408.581 214.724  16
   3  -3  14 2088.04 406.715  15
   3  -3  14 1462.28 392.639  19
   3   3 -14 1341.49 433.329  18
   3   3 -14 1315.23 432.459  32
  -3  -3 -14 1929.82 430.015  31
  -3  -3 -14 609.869 312.649  33
   3   3 -14 1581.16 443.717  16
   3  -3  13 1843.11 403.209  15
   3  -3  13 2144.10 471.005  19
  -3  -3 -13 2022.84 471.581  33
   3   3 -13 2276.49 534.258  18
   3   3 -13 1753.32 534.635  32
  -3  -3 -13 3000.98 623.652  31
  -3  -3 -13 1706.25 604.998  30
   3   3 -13 1761.63 471.096  16
   3  -3  12 6670.20 784.937  19
  -3  -3 -12 5924.71 749.538  33
   3   3 -12 6845.33 828.350  18
   3   3 -12 6328.33 822.329  32
  -3  -3 -12 5986.92 791.527  31
  -3  -3 -12 5741.14 926.938  30
   3   3 -12 6304.89 788.742  16
   3  -3  12 7309.52 728.711  15
   3  -3  11 1901.55 430.587  15
   3  -3  11 2324.24 487.717  19
  -3  -3 -11 1435.22 415.935  33
   3   3 -11 2226.03 534.431  18
   3   3 -11 1878.24 552.820  32
  -3  -3 -11 2254.16 561.001  31
  -3  -3 -11 866.864 516.512  30
   3   3 -11 1903.24 491.572  16
   3  -3  10 3216.68 514.898  15
   3  -3  10 2994.05 572.796  19
  -3  -3 -10 2431.87 545.244  33
   3   3 -10 3237.30 628.168  18
   3   3 -10 2841.38 614.987  32
  -3  -3 -10 2820.16 608.288  31
  -3  -3 -10 2397.26 702.034  30
   3   3 -10 2554.89 607.865  16
   3  -3   9 7615.36 884.442  19
  -3  -3  -9 6190.87 768.806  33
   3   3  -9 7598.87 861.850  18
   3   3  -9 7656.63 925.554  32
  -3  -3  -9 6004.40 832.404  31
  -3  -3  -9 5232.85 881.982  30
   3   3  -9 6613.10 886.568  16
   3  -3   9 5329.45 656.554  15
   3  -3   8 14127.5 1173.77  19
  -3  -3  -8 14298.3 1143.09  33
   3   3  -8 16171.2 1222.47  18
  -3  -3  -8 16529.4 1349.32  31
  -3  -3  -8 14225.2 1370.60  30
   3   3  -8 14367.3 1251.37  32
   3   3  -8 14854.5 1232.25  16
   3  -3   8 14458.3 1043.66  15
   3  -3   7 3431.78 652.585  19
  -3  -3  -7 3582.70 636.222  33
   3   3  -7 3596.39 633.680  18
   3   3  -7 3629.96 693.803  32
  -3  -3  -7 3775.43 757.560  31
  -3  -3  -7 4046.23 758.091  30
   3   3  -7 4157.77 696.169  16
   3  -3   7 3869.36 577.167  15
  -3  -3  -6 68084.0 2910.69  26
   3  -3   6 60348.1 2353.80  19
  -3  -3  -6 57676.5 2282.92  33
   3   3  -6 58386.3 2428.99  32
  -3  -3  -6 63109.8 2622.45  31
   3  -3   6 69889.2 3141.44   6
   3  -3   6 53535.6 2255.86  16
   3   3  -6 62781.0 2485.15  16
  -3   3   6 58602.0 2938.74  29
   3  -3   6 56985.3 2031.82  15
  -3  -3  -5 52030.9 2586.20  26
  -3  -3  -5 47679.4 1797.64  21
   3  -3   5 49414.8 2139.39  19
  -3  -3  -5 44659.6 2007.91  33
   3  -3   5 48110.4 1775.06  10
   3   3  -5 46708.3 2164.38  32
  -3  -3  -5 48494.0 2329.43  31
   3  -3   5 45330.3 2092.40  16
   3   3  -5 49497.3 2201.97  16
  -3   3   5 48431.3 2649.22  29
   3  -3   5 46887.9 1821.01  15
  -3  -3  -4 18878.4 1608.24  26
   3   3  -4 17482.8 1435.16   5
  -3  -3  -4 17501.8 1097.27  21
   3  -3   4 18017.5 1305.86  19
  -3  -3  -4 15277.0 1198.76  33
   3  -3   4 17225.0 1094.90  10
   3   3  -4 18960.9 1380.89  32
  -3  -3  -4 15626.4 1363.75  31
   3  -3   4 20653.5 1719.76   6
   3  -3   4 15553.3 1250.63  16
   3   3  -4 18966.6 1372.20  16
  -3   3   4 17561.2 1604.79  29
   3  -3   4 17189.5 1120.27  15
  -3  -3  -3 31021.2 2019.47  26
   3   3  -3 27907.6 1810.28   5
  -3  -3  -3 31484.4 1468.59  21
   3  -3   3 29919.3 1647.31  19
  -3  -3  -3 28671.2 1645.76  33
   3  -3   3 28019.6 1413.10  10
   3   3  -3 30002.4 1734.81  32
  -3  -3  -3 29142.2 1832.33  31
   3  -3   3 26938.7 1670.20  16
   3  -3   3 30763.3 2070.03   6
   3   3  -3 30894.6 1730.93  16
  -3   3   3 31456.3 2116.60  29
   3  -3   3 27349.8 1379.88  15
   3  -3   2 2274.91 435.300  15
  -3  -3  -2 3276.73 800.308  26
   3   3  -2 2633.52 590.132   5
   3   3  -2 2026.99 446.933  22
  -3  -3  -2 1146.86 518.196   8
  -3  -3  -2 1806.02 387.795  21
   3  -3   2 1559.87 484.820  19
  -3  -3  -2 1706.42 477.846  33
   3   3  -2 1067.56 414.788  32
   3  -3   2 2444.69 468.863  10
  -3  -3  -2 2959.95 700.113  31
   3  -3   2 2530.84 593.883  16
   3   3  -2 2992.22 587.591  16
  -3   3   2 502.339 388.193  29
   3  -3   2 2297.86 619.162   6
  -3  -3  -1 4199.87 834.768  26
   3   3  -1 4057.31 600.430  22
   3   3  -1 4943.77 792.782   5
  -3  -3  -1 5599.58 906.582   8
  -3  -3  -1 5670.07 638.520  21
   3  -3   1 5484.22 714.791  19
  -3  -3  -1 4167.36 665.301  33
   3  -3   1 5739.29 674.828  10
   3   3  -1 5260.02 748.713  32
   3   3  -1 4269.11 520.994  10
  -3  -3  -1 5351.46 861.491  31
   3  -3   1 6133.18 842.687  16
   3  -3   1 6423.20 966.042   6
   3   3  -1 5658.38 755.843  16
  -3   3   1 5306.31 879.073  29
   3  -3   1 5080.89 616.151  15
  -3  -3   0 25693.3 1866.11  26
   3   3   0 26745.4 1819.95   5
  -3  -3   0 24181.1 1841.97   8
   3   3   0 22935.1 1385.41  22
  -3  -3   0 24471.2 1290.73  21
   3  -3   0 22320.8 1287.86  10
   3   3   0 22192.6 1468.32  32
   3   3   0 22968.1 1217.32  10
  -3  -3   0 24807.3 1724.90  31
   3  -3   0 23150.6 1562.78  16
   3  -3   0 25658.8 1878.65   6
   3   3   0 24564.3 1509.79  16
  -3   3   0 23206.9 1780.50  29
   3  -3   0 24966.3 1268.84  15
  -3  -3   1 5770.60 936.596  26
   3   3   1 4070.63 610.960  22
   3   3   1 5303.44 857.454   5
  -3   3  -1 5387.10 571.903  21
  -3  -3   1 5357.53 907.423   8
  -3  -3   1 5119.47 615.171  21
   3  -3  -1 5062.38 635.521  10
   3   3   1 3633.84 625.017  32
   3   3   1 5085.97 603.925  10
  -3  -3   1 4762.71 826.989  31
   3  -3  -1 5889.45 838.653  16
   3  -3  -1 5907.77 954.572   6
   3   3   1 4433.07 630.474  16
  -3   3  -1 5353.06 894.620  29
   3  -3  -1 4756.49 563.322  15
  -3  -3   2 2383.94 665.443  26
   3   3   2 3240.65 704.702   5
   3   3   2 1774.11 463.275  22
  -3  -3   2 2473.01 654.843   8
  -3   3  -2 2940.87 454.244  21
  -3  -3   2 2640.43 458.314  21
   3  -3  -2 2235.47 449.074  10
  -3  -3   2 2603.36 641.168  31
   3   3   2 2428.75 418.683  10
   3  -3  -2 1552.59 537.147  16
  -3   3  -2 1898.85 600.603  29
   3  -3  -2 3368.89 709.327   6
  -3  -3   3 31545.3 2105.14  26
   3   3   3 30330.0 1980.60   5
  -3  -3   3 26723.3 2000.47   8
   3   3   3 25393.9 1511.49  22
  -3   3  -3 29266.0 1325.19  21
  -3  -3   3 30471.8 1409.05  21
   3  -3  -3 28009.8 1424.14  10
   3   3   3 28691.0 1411.82  10
  -3  -3   3 30309.4 1914.33  31
   3  -3  -3 27780.3 1733.72  16
   3  -3  -3 30806.7 2061.05   6
  -3  -3   4 19795.5 1700.92  26
   3   3   4 18729.9 1578.68   5
  -3  -3   4 17378.4 1621.70   8
   3   3   4 15834.1 1201.68  22
  -3   3  -4 15674.5 992.921  21
  -3  -3   4 17632.9 1074.84  21
   3  -3  -4 16787.9 1299.48  18
   3  -3  -4 16001.3 1087.35  10
   3   3   4 17797.3 1116.20  10
  -3  -3   4 17442.9 1508.54  31
   3  -3  -4 14459.9 1273.74  16
   3  -3  -4 17366.0 1550.92   6
  -3  -3   5 49186.4 2640.75  26
   3   3   5 47210.8 2486.85   5
  -3  -3   5 46222.9 2642.99   8
   3   3   5 45619.5 2029.88  22
  -3   3  -5 46174.7 1702.60  21
   3   3   5 48600.2 1993.48  12
  -3  -3   5 44789.7 1678.80  21
   3  -3  -5 48014.7 2189.72  18
   3  -3  -5 45045.5 1809.16  10
   3   3   5 44584.4 1760.44  10
  -3  -3   5 44912.8 2355.46  31
   3  -3  -5 48762.7 2258.37  16
  -3  -3   6 63221.7 2998.12  26
  -3  -3   6 57813.9 2958.13   8
   3   3   6 57718.6 2299.11  22
   3   3   6 64032.7 2307.28  12
   3  -3  -6 56597.6 2012.33  10
   3  -3  -6 56810.8 2414.45  18
   3   3   6 60545.9 2050.88  10
  -3  -3   6 54487.6 2592.15  31
   3  -3  -6 55718.7 2411.11  16
   3   3   7 4402.56 689.347  12
   3  -3  -7 3542.85 536.546  10
   3  -3  -7 4183.51 751.154  18
  -3  -3   7 4465.33 873.274  31
   3  -3  -7 4054.85 707.283  16
   3   3   8 14356.2 1141.92  12
   3  -3  -8 14387.4 1257.51  18
   3  -3  -8 11983.3 933.490  10
  -3  -3   8 13748.3 1353.30  31
   3  -3  -8 12115.1 1124.41  16
   3   3   9 6319.03 796.417  12
   3  -3  -9 6712.39 899.803  18
   3  -3  -9 5076.26 620.569  10
  -3  -3   9 6493.98 992.637  31
   3  -3  -9 5369.96 790.135  16
   3   3  10 2353.52 532.604  12
   3   3  10 3362.90 566.038  19
   3  -3 -10 3679.44 679.857  18
   3  -3 -10 2180.53 427.025  10
  -3  -3  10 2635.32 691.685  31
   3   3  10 2859.18 465.445  10
   3  -3 -10 3129.17 602.366  16
   3   3  11 707.557 397.263  12
   3  -3 -11 1980.01 518.626  18
   3  -3 -11 1178.32 323.387  10
  -3  -3  11 1659.95 596.316  31
   3   3  11 1835.79 418.605  10
   3   3  12 5184.00 732.693  12
   3  -3 -12 7757.79 932.153  18
   3  -3 -12 5757.24 610.107  10
   3   3  12 6304.43 663.287  10
  -3  -3  12 4720.74 834.048  31
   3   3  13 1679.38 460.594  12
   3  -3 -13 1661.49 485.663  18
  -3  -3  13 1742.53 583.818  31
   3   3  13 2128.90 392.182  10
   3   3  14 676.884 322.144  12
   3  -3 -14 1336.69 482.213  18
  -3  -3  14 588.386 486.493  31
   3   3  14 1673.67 371.252  10
   3   3  15 471.367 331.779  12
   3  -3 -15 317.190 327.665  18
  -3  -3  15 355.898 334.328  31
   3   3  15 463.361 204.789  10
   3   3  16 1060.12 349.945  12
   3  -3 -16 1062.53 369.006  18
  -3  -3  16 1717.19 525.083  31
   3   3  16 1768.24 328.287  10
   3   3  17 4044.57 562.945  12
   3  -3 -17 4126.53 589.021  18
  -3  -3  17 4235.88 654.314  31
   3   3  18 15255.1 974.525  12
   3  -3 -18 14582.3 977.363  18
  -3  -3  18 15119.2 1076.66  31
   3   3  18 13795.6 795.658  15
   3   3  19 332.300 185.888  15
   3   3  19 271.730 235.142  12
   3  -3 -19 154.266 206.431  18
  -3  -3  19 390.261 284.278  31
   3   3  20 3073.51 412.214  12
   3  -3 -20 3056.59 401.917  18
  -3   3 -20 2560.38 307.623  32
  -3  -3  20 3148.49 458.515  31
   3   3  20 2651.79 314.263  15
   3   4 -19 2039.99 310.626  18
   3   4 -18 2483.09 366.920  18
   3   4 -18 2920.47 396.500  32
  -3  -4 -18 2740.10 436.966  30
   3  -4  17 333.806 167.355  15
   3  -4  17 798.992 262.375  19
   3   4 -17 286.521 235.030  18
   3   4 -17 672.814 251.930  32
  -3  -4 -17 538.463 310.388  31
  -3  -4 -17-43.9263 266.246  30
   3  -4  16 8192.49 672.700  19
  -3  -4 -16 5904.52 536.707  33
   3   4 -16 7718.09 707.036  18
   3   4 -16 6997.15 698.413  32
  -3  -4 -16 7475.81 731.595  31
  -3  -4 -16 6506.11 757.609  30
   3   4 -16 6563.37 578.109  16
   3  -4  16 8166.52 578.099  15
   3  -4  15 9740.68 773.863  19
  -3  -4 -15 7786.38 655.847  33
   3   4 -15 9973.72 855.003  18
   3   4 -15 7669.94 767.680  32
  -3  -4 -15 8785.86 831.088  31
  -3  -4 -15 8470.69 879.954  30
   3   4 -15 7080.90 670.590  16
   3  -4  15 9174.15 658.655  15
   3  -4  14 13827.0 966.584  19
  -3  -4 -14 11100.2 816.426  33
   3   4 -14 12723.0 979.895  18
   3   4 -14 13074.3 1008.99  32
  -3  -4 -14 14547.8 1095.98  31
  -3  -4 -14 12579.6 1085.15  30
   3   4 -14 11290.8 875.781  16
   3  -4  14 13514.9 840.109  15
   3  -4  13 5233.58 656.158  19
  -3  -4 -13 4740.18 568.721  33
   3   4 -13 5736.44 717.597  18
   3   4 -13 5852.36 721.838  32
  -3  -4 -13 4401.08 659.900  31
  -3  -4 -13 4462.83 708.417  30
   3   4 -13 4770.13 617.054  16
   3  -4  13 5097.44 575.723  15
   3  -4  12 14984.2 1078.67  19
  -3  -4 -12 11976.5 931.047  33
   3   4 -12 10312.3 920.690  18
  -3  -4 -12 12401.0 1082.91  31
   3   4 -12 13486.5 1069.53  32
   3   4 -12 11168.9 973.769  16
   3  -4  12 12912.9 890.731  15
   3  -4  11 14303.5 1098.38  19
  -3  -4 -11 12993.1 1227.64  11
  -3  -4 -11 13724.1 1012.22  33
   3   4 -11 15105.2 1139.60  18
   3   4 -11 15839.2 1190.19  32
  -3  -4 -11 14915.9 1232.24  31
   3   4 -11 12176.7 1054.27  16
   3  -4  11 13736.5 949.332  15
   3  -4  10 908.655 325.168  15
   3  -4  10 237.513 286.579  19
  -3  -4 -10 133.855 388.328  11
  -3  -4 -10 601.583 306.111  33
   3   4 -10 910.211 351.637  18
   3   4 -10 878.633 416.730  32
  -3  -4 -10 887.385 436.741  31
   3   4 -10 1029.79 427.626  16
   3  -4   9 1432.86 376.369  15
   3  -4   9 2067.73 528.495  19
  -3  -4  -9 1985.82 454.654  33
   3   4  -9 2077.95 455.714  18
   3   4  -9 2159.11 528.040  32
  -3  -4  -9 2593.75 634.462  31
   3   4  -9 1639.57 503.953  16
   3  -4   8 394.547 250.391  15
   3  -4   8 533.659 364.585  19
  -3  -4  -8-320.592 313.154  33
   3   4  -8 562.648 318.331  18
   3   4  -8 361.315 327.933  32
  -3  -4  -8 985.017 495.400  31
   3   4  -8 338.389 286.312  16
   3  -4   7 5749.49 769.992  19
  -3  -4  -7 6190.80 764.348  33
   3   4  -7 7131.77 801.536  18
   3   4  -7 5959.66 819.069  32
  -3  -4  -7 6876.05 956.269  31
   3   4  -7 6187.46 797.251  16
   3  -4   7 6509.21 713.675  15
   3  -4   6 9264.73 951.586  19
  -3  -4  -6 8730.80 887.665  33
   3   4  -6 9573.38 988.338  32
  -3  -4  -6 10308.5 1141.55  31
   3   4  -6 8404.58 953.621  16
   3  -4   6 9065.17 826.028  15
   3  -4   5 14111.6 1146.91  19
  -3  -4  -5 12625.8 1081.81  33
   3   4  -5 13189.0 1157.34  32
  -3  -4  -5 16221.9 1407.49  31
   3   4  -5 14780.4 1212.21  16
   3  -4   5 12840.5 986.121  15
   3  -4   4 12257.8 1072.23  19
  -3  -4  -4 10490.2 974.593  33
   3  -4   4 12439.4 920.959  10
   3   4  -4 11626.8 1056.42  32
  -3  -4  -4 13520.7 1309.39  31
   3   4  -4 13294.4 1146.53  16
   3  -4   4 12242.9 956.778  15
   3  -4   3 7782.69 865.916  19
  -3  -4  -3 7085.40 813.910  33
   3  -4   3 8282.30 769.939  10
   3   4  -3 6451.84 814.292  32
  -3  -4  -3 8504.72 1070.31  31
   3  -4   3 7045.18 914.946  16
   3   4  -3 7711.59 907.318  16
   3  -4   3 8297.02 807.553  15
   3  -4   2 987.099 385.616  15
   3  -4   2 531.569 314.286  19
  -3  -4  -2 241.053 353.136  33
   3  -4   2 921.950 342.903  10
  -3  -4  -2 469.591 489.936  31
   3  -4   2 1049.51 477.561  16
   3   4  -2 981.931 374.486  16
   3  -4   1 60617.9 2244.27  19
  -3  -4  -1 52662.0 2204.25  33
   3  -4   1 54128.7 1953.48  10
  -3  -4  -1 56941.5 2612.66  31
   3  -4   1 50553.6 2303.88  16
   3   4  -1 55666.5 2220.65  16
   3  -4   1 53334.8 1904.85  15
  -3  -4   0 11168.1 1020.94  33
   3  -4   0 11144.1 921.529  10
   3   4   0 11122.4 826.621  10
  -3  -4   0 12261.7 1318.98  31
   3  -4   0 10955.0 1126.80  16
   3   4   0 10416.6 980.632  16
   3  -4   0 10448.2 855.865  15
  -3  -4   1 52354.6 2192.23  33
   3  -4  -1 55344.8 2005.28  10
   3   4   1 54081.4 1825.30  10
  -3  -4   1 56682.4 2631.17  31
   3  -4  -1 52381.0 2373.20  16
   3  -4  -1 54219.2 1907.35  15
   3  -4  -2 676.689 281.340  15
   3   4   2 90.3438 313.156  12
   3  -4  -2 1202.72 422.507  18
   3  -4  -2 577.735 318.505  10
  -3  -4   2 790.153 566.145  31
   3   4   2 465.575 264.142  10
   3  -4  -2 708.478 426.341  16
   3   4   3 7765.77 815.431  12
   3  -4  -3 7668.36 894.624  18
   3  -4  -3 7871.57 781.803  10
   3   4   3 7518.42 720.287  10
  -3  -4   3 6016.63 932.449  31
   3  -4  -3 6039.13 863.608  16
   3  -4  -3 8012.21 714.020  15
   3   4   4 13524.7 1077.35  12
   3  -4  -4 11451.0 1093.84  18
   3  -4  -4 11491.0 947.754  10
  -3  -4   4 11620.9 1236.11  31
   3  -4  -4 11033.5 1109.59  16
   3   4   5 14528.6 1127.34  12
   3  -4  -5 13253.2 1197.78  18
   3  -4  -5 12692.9 981.900  10
  -3  -4   5 11000.0 1206.46  31
   3  -4  -5 12042.9 1165.34  16
   3   4   6 7983.94 864.679  12
   3  -4  -6 9262.97 1016.80  18
   3  -4  -6 7618.10 781.733  10
  -3  -4   6 7358.35 1025.06  31
   3  -4  -6 8254.65 954.751  16
   3   4   7 6038.68 758.666  12
   3  -4  -7 6087.07 848.368  18
   3  -4  -7 5302.56 652.324  10
  -3  -4   7 5308.64 884.223  31
   3  -4  -7 4752.00 713.757  16
   3   4   8 140.570 275.177  12
   3  -4  -8 473.736 395.366  18
   3  -4  -8 242.368 243.424  10
  -3  -4   8 626.700 444.604  31
   3  -4  -8 76.5976 232.155  16
   3   4   9 2002.43 491.503  12
   3  -4  -9 2559.57 577.448  18
   3  -4  -9 2495.16 469.590  10
  -3  -4   9 2213.55 655.410  31
   3  -4  -9 2376.45 536.950  16
   3   4  10 442.844 330.502  12
   3  -4 -10 828.543 436.922  18
   3  -4 -10 631.507 339.367  10
  -3  -4  10 260.771 392.788  31
   3   4  11 13654.9 1072.67  12
   3  -4 -11 14305.0 1196.70  18
   3  -4 -11 11821.2 853.099  10
  -3  -4  11 12721.4 1195.25  31
   3   4  12 13405.6 1036.46  12
   3  -4 -12 14538.1 1210.22  18
   3  -4 -12 10478.1 791.096  10
   3   4  12 14102.0 910.362  10
  -3  -4  12 10738.6 1087.18  31
   3   4  13 5357.75 700.482  12
   3  -4 -13 5176.83 739.200  18
   3   4  13 5240.13 576.810  10
  -3  -4  13 5116.71 747.916  31
   3   4  14 13644.3 1003.23  12
   3  -4 -14 11327.4 983.393  18
   3   4  14 12420.9 787.434  10
  -3  -4  14 12538.1 1079.39  31
   3   4  15 8842.58 784.222  12
   3  -4 -15 8598.82 834.805  18
   3   4  15 8783.07 641.401  10
  -3  -4  15 8354.69 856.566  31
  -3  -4  15 8965.50 790.435   9
   3   4  16 6267.88 654.648  12
   3  -4 -16 5881.89 647.721  18
   3   4  16 7224.46 547.502  10
  -3  -4  16 6641.43 737.459  31
  -3  -4  16 6969.01 648.496   9
   3   4  17 235.978 236.981  12
   3  -4 -17 79.0316 213.470  18
  -3  -4  17 333.248 252.801  31
   3   4  17 322.074 185.012  10
  -3  -4  17-161.975 241.377   9
   3   4  18 2663.19 396.955  12
   3  -4 -18 2620.38 385.443  18
  -3   4 -18 2968.29 346.647  32
  -3  -4  18 2657.76 407.257  31
   3   4  18 1885.29 280.508  15
   3   4  19 1444.57 227.453  15
   3   4  19 1787.73 300.254  12
   3   5 -16 2271.12 334.011  18
   3   5 -16 2060.60 332.975  32
  -3  -5 -16 2721.48 406.360  31
   3  -5  15 9960.99 674.880  19
   3   5 -15 9574.90 693.352  18
   3   5 -15 9618.57 713.088  32
  -3  -5 -15 11701.5 837.338  31
   3  -5  15 10393.2 563.948  15
   3  -5  14 1638.31 276.382  15
   3  -5  14 1448.45 337.222  19
   3   5 -14 1800.41 360.221  18
   3   5 -14 1567.99 343.162  32
  -3  -5 -14 1691.41 400.272  31
   3   5 -14 1271.71 304.213  16
   3  -5  13 1107.08 263.983  15
   3  -5  13 1172.18 336.533  19
   3   5 -13 1686.65 377.269  18
   3   5 -13 1102.00 313.466  32
  -3  -5 -13 874.400 338.733  31
   3   5 -13 966.829 288.387  16
   3  -5  12 563.436 221.641  15
   3  -5  12 445.636 265.439  19
  -3  -5 -12 1114.81 398.070  11
   3   5 -12 535.914 275.898  18
   3   5 -12 635.024 313.485  32
  -3  -5 -12 95.0441 363.976  31
   3   5 -12 216.772 244.979  16
   3  -5  11 836.275 275.142  15
   3  -5  11 1687.42 421.651  19
  -3  -5 -11 1265.11 494.836  11
   3   5 -11 1039.45 346.964  18
   3   5 -11 1308.36 396.095  32
  -3  -5 -11 814.197 395.201  31
   3   5 -11 760.652 283.068  16
   3  -5  10 1347.73 330.322  15
   3  -5  10 1926.27 438.363  19
  -3  -5 -10 1297.04 501.512  11
   3   5 -10 788.499 343.624  18
   3   5 -10 721.063 316.151  32
  -3  -5 -10 1556.39 525.756  31
   3   5 -10 1358.49 379.618  16
   3  -5   9 728.486 304.960  15
   3  -5   9 746.657 335.342  19
  -3  -5  -9 848.917 449.845  11
   3   5  -9 1440.17 385.682  18
   3   5  -9 1311.77 432.067  32
  -3  -5  -9 1180.74 527.427  31
   3   5  -9 756.396 315.956  16
   3  -5   8 6311.33 732.886  19
  -3  -5  -8 8815.45 1069.72  11
   3   5  -8 11431.6 909.694  18
   3   5  -8 9615.22 854.151  32
  -3  -5  -8 6587.77 859.587  31
   3   5  -8 7315.58 796.554  16
   3  -5   8 7245.49 682.539  15
   3  -5   7 7828.07 826.225  19
  -3  -5  -7 7151.33 1022.04  11
   3   5  -7 7624.35 796.216  32
  -3  -5  -7 9192.62 1014.09  31
   3   5  -7 8429.06 864.226  16
   3  -5   7 8591.38 777.764  15
   3  -5   6 22875.0 1364.98  19
  -3  -5  -6 23923.1 1789.64  11
  -3  -5  -6 21791.2 1538.15  31
   3   5  -6 23520.6 1407.45  16
   3  -5   6 23862.9 1252.04  15
   3  -5   5 506.445 307.835  15
   3  -5   5 191.116 301.464  19
  -3  -5  -5 231.093 404.320  11
  -3  -5  -5 443.849 386.780  31
   3   5  -5 568.447 344.987  16
   3  -5   4 6138.06 729.925  19
  -3  -5  -4 6026.12 696.281  33
  -3  -5  -4 7353.28 963.891  31
   3   5  -4 6914.70 798.626  16
   3  -5   4 6234.69 675.329  15
   3  -5   3 1295.80 364.686  15
   3  -5   3 913.543 356.252  19
  -3  -5  -3 1070.65 350.070  33
  -3  -5  -3 1338.08 535.461  31
   3   5  -3 1617.77 435.439  16
   3  -5   2 1222.69 384.385  15
   3  -5   2 838.005 365.263  19
  -3  -5  -2 1379.68 415.555  33
   3  -5   2 1657.87 392.055  10
  -3  -5  -2 1076.03 508.536  31
   3   5  -2 1497.09 475.448  16
   3   5  -1 7480.66 771.789  12
   3  -5   1 7584.57 707.891  10
  -3  -5  -1 4956.59 657.949  33
  -3  -5  -1 6503.02 919.229  31
   3   5  -1 8258.33 830.241  16
   3  -5   1 6150.34 674.931  15
   3  -5   0 1244.85 352.904  15
   3   5   0 1149.61 357.789  12
  -3  -5   0 1277.05 419.404  33
   3  -5   0 825.523 306.145  10
  -3  -5   0 1565.19 561.329  31
   3   5   1 6337.37 724.836  12
   3  -5  -1 6975.96 832.584  18
  -3  -5   1 7456.17 815.109  33
   3  -5  -1 7267.27 727.142  10
  -3  -5   1 5257.25 848.994  31
   3  -5  -1 7247.15 698.414  15
   3  -5  -2 1027.88 318.817  15
   3   5   2 1337.36 402.677  12
   3  -5  -2 1520.93 472.417  18
  -3  -5   2 1732.30 451.681  33
   3  -5  -2 1635.56 379.050  10
  -3  -5   2 921.371 525.506  31
   3   5   2 1116.27 281.757  10
   3  -5  -3 1276.29 363.664  15
   3   5   3 1291.43 400.153  12
   3  -5  -3 2511.96 537.176  18
  -3  -5   3 840.845 344.799  33
   3  -5  -3 1953.35 416.106  10
  -3  -5   3 1530.18 546.171  31
   3   5   3 981.713 274.219  10
   3   5   4 6667.54 751.235  12
   3  -5  -4 7157.42 839.775  18
  -3  -5   4 5624.06 715.170  33
   3  -5  -4 7828.74 750.332  10
  -3  -5   4 6972.44 936.648  31
   3   5   4 5811.34 592.325  10
   3  -5  -4 5731.05 609.161  15
   3  -5  -5 175.231 236.806  15
   3   5   5 574.122 321.437  12
   3  -5  -5 427.727 423.114  18
   3  -5  -5 312.150 283.252  10
  -3  -5   5 878.377 434.021  31
   3   5   5 177.259 217.349  10
   3   5   6 23483.9 1358.33  12
   3  -5  -6 24153.4 1539.07  18
   3  -5  -6 22545.1 1221.69  10
  -3  -5   6 21436.3 1518.50  31
   3   5   7 6743.14 760.705  12
   3  -5  -7 8072.90 910.257  18
   3  -5  -7 6807.70 684.488  10
  -3  -5   7 7429.92 946.520  31
   3   5   8 7358.75 769.154  12
   3  -5  -8 10092.6 1000.40  18
  -3  -5   8 8608.69 974.192  31
   3   5   9 1073.03 408.611  12
   3  -5  -9 270.849 336.250  18
   3  -5  -9 1237.33 335.498  10
  -3  -5   9 610.119 353.353  31
   3   5  10 994.418 351.972  12
   3  -5 -10 1507.88 453.190  18
   3  -5 -10 1398.32 332.120  10
  -3  -5  10 648.889 381.077  31
   3   5  11 620.896 304.380  12
   3  -5 -11 649.330 390.097  18
  -3  -5  11 898.829 358.405  31
   3   5  11 825.955 260.526  10
  -3  -5  11 1358.99 366.342   9
   3   5  12 550.851 311.910  12
   3  -5 -12 265.769 280.071  18
  -3  -5  12 223.918 306.096  31
   3   5  12 228.380 182.546  10
  -3  -5  12-249.013 226.396   9
   3   5  13 1075.18 331.991  12
   3  -5 -13 1502.74 392.594  18
  -3  -5  13 839.112 341.889  31
   3   5  13 1258.48 291.407  10
  -3  -5  13 1670.81 379.643   9
   3   5  14 1429.46 334.773  12
   3  -5 -14 1151.32 332.073  18
  -3  -5  14 1120.78 317.805  31
   3   5  14 1649.29 281.880  10
  -3  -5  14 1361.89 340.146   9
   3   5  15 9114.74 685.947  12
   3  -5 -15 8984.78 723.003  18
   3   5  15 9555.00 570.464  10
  -3  -5  15 8640.87 677.355  31
  -3  -5  15 8259.48 641.358   9
   3   5  16 2602.12 365.515  12
   3  -5 -16 1844.35 321.416  18
  -3   5 -16 3012.08 350.132  32
   3   5  16 2070.66 261.101  10
   3  -6  12 3773.84 425.138  19
   3   6 -12 2764.84 350.463  18
  -3  -6 -12 3027.27 431.278  31
   3   6 -12 2963.18 372.720  16
   3  -6  11 2320.75 358.132  19
  -3  -6 -11 2331.17 425.464  11
   3   6 -11 2417.61 362.608  18
  -3  -6 -11 2607.39 443.717  31
   3   6 -11 2451.14 364.990  16
   3  -6  11 2661.07 326.676  15
   3  -6  10 763.453 217.374  15
   3  -6  10 856.096 279.128  19
  -3  -6 -10 914.386 371.516  11
   3   6 -10 1113.48 290.692  18
  -3  -6 -10 873.668 324.011  31
   3   6 -10 1035.10 292.705  16
   3  -6   9 1263.29 275.343  15
   3  -6   9 1576.05 364.866  19
  -3  -6  -9 699.584 407.778  11
   3   6  -9 1130.39 310.971  18
  -3  -6  -9 1497.35 405.070  31
   3   6  -9 1700.16 371.518  16
   3  -6   8 1166.49 276.577  15
   3  -6   8 777.788 281.877  19
  -3  -6  -8 1616.45 506.112  11
  -3  -6  -8 832.622 360.097  31
   3   6  -8 895.582 311.356  16
   3  -6   7 9665.44 782.295  19
  -3  -6  -7 7487.39 910.295  11
  -3  -6  -7 8335.88 832.208  31
   3   6  -7 8331.76 742.288  16
   3  -6   7 9111.08 675.375  15
   3  -6   6 2238.76 376.186  15
   3  -6   6 2415.76 433.023  19
  -3  -6  -6 1744.84 549.146  11
  -3  -6  -6 2097.40 498.635  31
   3   6  -6 1848.70 419.461  16
   3  -6   5 2943.72 431.577  15
   3  -6   5 3157.22 488.657  19
  -3  -6  -5 3079.71 691.694  11
  -3  -6  -5 3118.43 566.338  31
   3   6  -5 3075.65 472.701  16
   3  -6   4 1775.76 346.872  15
   3  -6   4 1904.39 389.236  19
  -3  -6  -4 2155.60 603.217  11
  -3  -6  -4 2298.45 531.442  31
   3   6  -4 2074.66 407.547  16
   3   6  -3 6765.76 635.571  12
   3  -6   3 7759.18 717.986  19
  -3  -6  -3 6635.73 878.192  11
  -3  -6  -3 6824.16 819.757  31
   3   6  -3 7094.83 693.480  16
   3  -6   3 8468.36 693.745  15
   3  -6   2 221.436 232.470  15
   3   6  -2 371.621 272.810  12
  -3  -6  -2 348.700 433.765  11
  -3  -6  -2-4.36297 380.863  31
   3   6  -2 331.361 276.802  16
   3  -6   1 2319.42 401.268  15
   3   6  -1 2939.78 492.879  12
  -3  -6  -1 2087.86 596.151  11
  -3  -6  -1 2522.93 559.004  31
   3   6   0 23363.6 1208.49  12
  -3  -6   0 20336.5 1496.20  11
   3  -6   0 23464.7 1081.25  10
  -3  -6   0 21655.4 1395.48  31
   3  -6   0 21684.8 1078.52  15
   3  -6  -1 2115.43 376.121  15
   3   6   1 2754.80 475.432  12
  -3  -6   1 1585.81 550.620  11
   3  -6  -1 1304.03 289.872  10
  -3  -6   1 1357.57 488.476  31
   3  -6  -2 82.0653 205.200  15
   3   6   2 602.312 279.070  12
  -3  -6   2 458.877 371.948  11
   3  -6  -2 367.610 243.256  10
  -3  -6   2 430.657 366.041  31
   3   6   3 6851.66 693.913  12
  -3  -6   3 7147.90 869.875  11
   3  -6  -3 7100.12 642.429  10
  -3  -6   3 7241.39 826.321  31
   3  -6  -3 7694.62 629.123  15
   3  -6  -4 1765.93 326.305  15
   3   6   4 1494.89 378.889  12
  -3  -6   4 2257.61 479.588  31
   3   6   4 1742.45 312.256  10
   3   6   5 2616.18 459.592  12
   3   6   5 3049.64 382.173  10
  -3  -6   5 3098.42 563.073  31
   3  -6  -5 2848.79 387.036  15
   3  -6  -6 2123.66 316.705  15
   3   6   6 2288.77 420.193  12
   3  -6  -6 1642.67 445.663  18
  -3  -6   6 1683.83 452.964  31
   3   6   6 2224.61 326.055  10
   3   6   7 8612.44 733.404  12
   3  -6  -7 7258.34 755.344  18
  -3  -6   7 8158.58 774.985  31
   3   6   7 7836.56 579.600  10
   3   6   8 1292.60 344.607  12
   3  -6  -8 809.517 350.031  18
  -3  -6   8 321.583 284.240  31
   3   6   8 950.945 237.997  10
  -3  -6   8 1604.94 400.439   9
   3   6   9 1411.37 341.005  12
   3  -6  -9 1317.49 366.821  18
  -3  -6   9 1387.74 347.267  31
   3   6   9 1310.72 264.610  10
  -3  -6   9 1947.14 377.978   9
   3   6  10 675.270 278.184  12
   3  -6 -10 1255.92 374.820  18
  -3  -6  10 842.198 283.241  31
   3   6  10 1036.27 230.877  10
  -3  -6  10 1164.52 326.917   9
   3   6  11 2451.39 375.732  12
   3  -6 -11 2822.30 433.001  18
   3   6  11 2054.48 294.544  10
  -3  -6  11 1964.51 346.859   9
   3   6  12 2859.16 395.603  12
   3   6  12 2712.97 307.027  10
   3   6  13 7024.62 522.862  12
   3   6  13 7036.84 430.431  10
   3  -7   6 1860.53 260.056  15
  -3  -7  -6 1210.86 340.458  11
  -3  -7  -5 3261.18 518.516  11
   3  -7   5 3550.36 356.055  15
  -3  -7  -4 4861.16 602.712  11
  -3  -7  -4 4850.84 510.141  31
   3  -7   4 4551.40 411.826  15
  -3  -7  -3 1979.95 415.422  11
  -3  -7  -3 2272.31 398.226  31
   3  -7   3 2449.87 322.648  15
   3  -7   2 1194.93 249.620  15
   3   7  -2 1484.62 265.089  12
  -3  -7  -2 1698.83 440.373  11
  -3  -7  -2 852.848 275.756  31
   3  -7   1 1488.78 275.093  15
   3   7  -1 1977.63 321.251  12
  -3  -7  -1 1441.85 392.314  11
  -3  -7  -1 1968.35 362.767  31
   3   7   0 7388.88 558.718  12
  -3  -7   0 8321.14 660.056  31
   3  -7   0 8690.83 566.877  15
   3  -7  -1 1716.89 279.931  15
   3   7   1 1931.51 341.802  12
  -3  -7   1 2512.54 382.937  31
   3   7   2 1572.61 290.950  12
   3  -7  -2 1437.23 255.360  15
   3   7   3 2746.61 366.749  12
   3  -7  -3 2514.97 306.965  15
   3   7   4 3729.41 406.339  12
   3   7   5 2727.47 360.555  12
   3   7   6 1410.23 267.324  12
   4   0   0 3483.36 539.503  19
   4   0   0 4871.47 582.845  10
   4   0   0 5617.85 740.655  16
   4   0  -1 8326.84 803.584  19
   4   0   1 8940.98 833.979  19
   4   0  -1 8659.37 748.893  10
   4   0   1 7841.75 733.283  10
   4   0   1 9229.39 928.842  16
   4   0  -1 10224.6 978.251  16
   4   0  -2 1436.83 362.037  19
   4   0   2 1942.32 474.165  19
   4   0  -2 2069.20 387.104  10
   4   0   2 2977.51 478.242  10
   4   0   2 2326.61 493.871  16
   4   0  -2 2747.11 528.169  16
   4   0   3 897.088 355.093  19
   4   0  -3 373.604 252.766  10
   4   0   3 596.589 257.066  10
   4   0   3 325.473 254.966  16
   4   0  -3 977.961 401.357  16
   4   0   4 4980.68 656.349  19
  -4   0  -4 3910.32 517.487  33
   4   0  -4 3875.07 498.763  10
   4   0   4 4931.83 577.046  10
   4   0  -4 3690.36 658.849  32
   4   0  -4 4971.32 721.632  16
  -4   0  -4 4144.52 806.805  30
   4   0   5 344.930 365.473  19
   4   0  -5-34.1886 278.450  32
   4   0  -5 230.606 170.514  10
   4   0   5-247.170 273.106  10
  -4   0  -5 1083.03 329.390  33
  -4   0  -5-393.378 387.568  30
   4   0  -5 286.983 337.994  16
   4   0   6 8000.12 829.428  19
  -4   0  -6 8790.34 754.193  33
   4   0  -6 8136.36 655.914  10
   4   0   6 8452.03 722.643  10
  -4   0  -6 7652.09 1032.88  30
   4   0  -6 7272.11 867.785  16
   4   0   7 2470.01 505.968  19
  -4   0  -7 2507.32 430.976  33
   4   0  -7 2661.17 566.437  32
   4   0   7 2690.33 425.584  10
  -4   0  -7 2417.24 694.472  30
   4   0  -7 2720.32 541.448  16
   4   0   8 320.243 189.966  15
   4   0   8 169.139 265.904  19
  -4   0  -8 175.692 194.689  33
   4   0  -8-263.622 303.407  32
   4   0   8 286.963 192.103  10
  -4   0  -8 225.467 408.355  30
   4   0  -8 340.604 301.240  16
   4   0   9 7031.28 715.045  19
  -4   0  -9 7145.47 635.126  33
   4   0  -9 5879.01 705.801  32
   4   0   9 6974.46 603.405  10
  -4   0  -9 5846.77 854.355  30
   4   0  -9 5769.72 692.432  16
   4   0   9 6414.50 566.163  15
   4   0  10 2958.45 474.456  19
   4   0 -10 2027.58 384.182  18
  -4   0 -10 2339.98 382.528  33
   4   0  10 2862.61 400.504  10
   4   0 -10 2026.37 447.972  32
  -4   0 -10 2718.88 608.279  30
   4   0 -10 2365.39 466.665  16
   4   0  10 2386.77 357.298  15
   4   0  11 4364.62 544.501  19
   4   0 -11 5118.10 581.853  18
   4   0 -11 3770.41 523.994  32
   4   0  11 4557.27 446.191  10
  -4   0 -11 4339.86 492.432  33
   4   0 -11 4756.89 580.211  16
  -4   0 -11 4561.35 710.952  30
   4   0  11 4419.14 459.498  15
   4   0  12 1176.26 271.148  15
   4   0  12 1262.72 306.642  19
  -4   0 -12 1036.42 265.917  33
   4   0 -12 1316.98 333.784  18
  -4   0 -12 1519.57 456.653  30
   4   0 -12 1127.56 308.637  16
   4   0  13 320.493 182.652  15
   4   0  13-121.126 199.736  19
  -4   0 -13 361.479 162.409  33
   4   0 -13 496.572 276.968  18
  -4   0 -13-103.645 264.209  30
   4   0 -13 384.379 207.009  16
   4   0  14 1071.91 234.126  15
   4   0  14 863.058 236.904  19
  -4   0 -14 611.430 204.549  33
   4   0 -14 998.534 286.553  18
  -4   0 -14 1009.66 352.428  30
   4   0  15-80.6971 133.339  15
   4   0 -15-159.209 189.627  18
  -4   0 -15 103.637 225.897  30
   4  -1  15 1416.94 230.737  15
  -4  -1 -15 983.350 234.514  33
   4   1 -15 1985.41 317.238  18
  -4  -1 -15 1179.84 349.993  30
   4  -1  14 12308.1 711.243  19
  -4  -1 -14 12243.6 702.331  33
   4   1 -14 11392.2 734.716  18
   4   1 -14 9744.54 663.475  32
  -4  -1 -14 12231.5 922.895  30
   4   1 -14 9340.46 618.589  16
   4  -1  14 11843.5 644.965  15
   4  -1  13 5211.70 511.667  19
  -4  -1 -13 4691.22 482.007  33
   4   1 -13 4665.51 513.035  18
   4   1 -13 4360.83 506.049  32
  -4  -1 -13 4308.32 643.477  30
   4   1 -13 3605.91 444.355  16
   4  -1  13 3971.68 404.691  15
   4  -1  12 7676.32 654.055  19
   4   1 -12 7608.99 667.051  18
  -4  -1 -12 7113.82 600.900  33
   4   1 -12 7075.80 680.189  32
  -4  -1 -12 7878.63 848.468  30
   4   1 -12 6241.95 612.088  16
   4  -1  12 6426.02 534.081  15
   4  -1  11 2202.06 335.996  15
   4  -1  11 2035.65 407.513  19
  -4  -1 -11 2844.53 421.882  33
   4   1 -11 2240.97 427.329  18
   4   1 -11 2032.36 446.169  32
  -4  -1 -11 2536.53 547.272  30
   4   1 -11 1858.32 388.444  16
   4  -1  10 543.219 201.380  15
   4  -1  10 1124.53 359.225  19
  -4  -1 -10 876.948 282.091  33
   4   1 -10 763.285 319.593  32
   4  -1  10 698.948 216.081  10
  -4  -1 -10 886.250 419.185  30
   4   1 -10 578.194 276.460  16
   4  -1   9 2026.49 345.146  15
   4  -1   9 2867.89 489.152  19
  -4  -1  -9 2575.79 438.712  33
   4  -1   9 3072.42 395.098  10
   4   1  -9 2281.52 474.773  32
  -4  -1  -9 2381.45 586.546  30
   4   1  -9 2396.72 462.643  16
   4  -1   8 8340.25 783.688  19
  -4  -1  -8 7513.34 715.871  33
   4   1  -8 7519.14 837.697  32
   4  -1   8 8949.98 682.567  10
  -4  -1  -8 7553.02 934.098  30
   4   1  -8 8997.89 858.873  16
   4  -1   8 7525.44 609.559  15
   4  -1   7 2492.97 370.995  15
   4  -1   7 3486.61 539.250  19
  -4  -1  -7 2444.97 423.928  33
   4  -1   7 3201.92 448.204  10
   4   1  -7 3053.52 598.720  32
  -4  -1  -7 3238.33 700.314  30
   4   1  -7 3480.43 584.762  16
   4  -1   6 385.314 197.023  15
   4  -1   6 181.214 279.830  19
  -4  -1  -6 970.450 343.871  33
   4   1  -6 899.595 466.342  32
   4  -1   6 510.840 239.107  10
  -4  -1  -6 1269.52 520.335  30
   4   1  -6 876.860 413.555  16
   4  -1   5 505.998 324.953  19
  -4  -1  -5 1417.07 368.802  33
   4   1  -5 1882.93 541.074  32
   4  -1   5 1606.83 350.914  10
  -4  -1  -5 1224.50 477.719  30
   4   1  -5 2161.48 498.593  16
   4  -1   4 3441.64 595.404  19
  -4  -1  -4 3295.93 534.682  33
   4  -1   4 5180.62 600.015  10
   4   1  -4 3900.05 722.511  32
   4   1  -4 2258.13 372.298  10
  -4  -1  -4 3843.82 747.077  30
   4   1  -4 3967.25 644.770  16
   4  -1   3 9720.24 887.348  19
   4   1  -3 4925.65 609.706  19
  -4  -1  -3 8414.46 792.082  33
   4   1  -3 9051.77 983.282  32
   4  -1   3 9340.06 779.954  10
   4   1  -3 7319.81 644.276  10
  -4  -1  -3 8536.85 1058.23  30
   4  -1   3 4960.99 648.941  16
   4   1  -3 9729.98 933.770  16
   4  -1   2 1653.55 435.541  19
   4   1  -2 2373.07 467.850  19
  -4  -1  -2 1748.43 397.770  33
   4   1  -2 2418.12 601.990  32
   4  -1   2 1992.43 426.778  10
   4   1  -2 1686.95 350.472  10
  -4  -1  -2 1264.79 532.238  30
   4  -1   2 2487.07 496.498  16
   4   1  -2 1969.08 484.339  16
   4  -1   1 1560.36 409.121  19
   4   1  -1 1141.54 344.662  19
  -4  -1  -1 1043.64 325.660  33
   4   1  -1 1086.05 465.422  32
   4  -1   1 1533.17 343.667  10
   4   1  -1 812.194 263.774  10
   4  -1   1 1523.33 457.605  16
   4   1  -1 1147.86 372.764  16
   4  -1   0 396.738 251.995  19
   4   1   0-154.983 264.489  19
  -4  -1   0-217.292 236.494  33
   4  -1   0 39.4424 219.195  10
   4   1   0 179.001 191.242  10
   4  -1   0 466.370 371.973  16
   4   1   0 304.057 266.787  16
   4  -1  -1 1291.90 357.947  19
   4   1   1 1151.33 371.670  19
  -4  -1   1 1541.55 405.669  33
   4  -1  -1 924.462 304.957  10
   4   1   1 1080.16 300.370  10
   4  -1  -1 1471.52 431.153  16
   4   1   1 918.067 338.540  16
   4   1   2 1679.67 469.847  19
  -4  -1   2 1238.72 364.981  33
   4  -1  -2 2286.02 453.844  10
   4   1   2 1829.22 378.174  10
   4  -1  -2 2640.07 557.973  16
   4   1   2 1777.33 413.270  16
   4   1   3 9262.24 898.859  19
  -4  -1   3 8280.82 789.785  33
   4  -1  -3 8888.20 747.250  10
   4   1   3 9274.65 756.380  10
   4  -1  -3 9065.90 944.242  16
   4   1   4 3251.79 587.996  19
  -4  -1   4 3295.61 525.214  33
   4  -1  -4 3626.01 501.681  10
   4   1   4 4686.85 566.629  10
   4  -1  -4 5415.52 774.262  16
   4   1   5 1666.99 433.844  19
  -4  -1   5 1739.26 360.577  33
   4   1   5 2863.95 450.906  10
   4  -1  -5 956.913 297.596  10
  -4   1  -5 1602.80 530.497  30
   4  -1  -5 1877.35 529.076  16
   4   1   6 125.697 325.498  19
  -4  -1   6 336.928 252.840  33
   4  -1  -6 574.373 236.003  10
   4   1   6 498.285 257.437  10
  -4   1  -6 878.397 476.446  30
   4  -1  -6 597.384 367.411  16
   4   1   7 3151.12 533.497  19
  -4  -1   7 2840.64 460.099  33
   4   1   7 2923.13 455.972  10
   4  -1  -7 2635.67 409.522  10
  -4   1  -7 2716.95 637.942  30
   4  -1  -7 2961.35 560.827  16
   4   1   8 8984.86 814.823  19
  -4  -1   8 8226.00 723.533  33
   4  -1  -8 8730.77 649.603  10
   4   1   8 9394.77 709.668  10
  -4   1  -8 7913.17 954.990  30
   4  -1  -8 8497.82 841.847  16
   4   1   9 2597.10 475.708  19
   4  -1  -9 2924.95 470.080  18
  -4  -1   9 2222.74 370.348  33
   4   1   9 2539.13 394.752  10
  -4   1  -9 2424.45 554.741  30
   4  -1  -9 1764.05 397.154  16
   4   1  10 560.798 200.415  15
   4   1  10 485.686 257.150  19
   4  -1 -10 749.760 321.441  18
  -4  -1  10 481.871 245.511  33
   4   1  10 836.876 232.680  10
  -4   1 -10 829.379 394.305  30
   4  -1 -10 854.201 326.855  16
   4   1  11 2562.62 425.260  19
   4  -1 -11 2610.97 453.311  18
   4   1  11 2575.07 366.984  10
  -4  -1  11 2851.41 454.029  31
  -4   1 -11 2093.33 513.718  30
   4  -1 -11 2435.38 422.627  16
   4   1  11 2392.26 337.702  15
   4   1  12 7999.60 639.009  19
   4  -1 -12 6793.64 666.651  18
   4   1  12 7816.23 553.403  10
  -4  -1  12 6510.56 627.305  31
  -4   1 -12 6558.24 733.877  30
   4  -1 -12 5082.44 536.448  16
   4   1  12 6517.40 507.125  15
   4   1  13 4706.91 476.700  19
   4  -1 -13 4418.30 533.861  18
   4   1  13 4460.31 391.129  10
  -4  -1  13 4406.45 514.604  31
  -4   1 -13 4734.96 594.948  30
   4   1  13 4179.45 400.529  15
   4  -1 -14 10830.2 739.101  18
  -4  -1  14 9906.39 682.794  31
  -4   1 -14 11344.8 811.321  30
   4   1  14 10558.4 591.446  15
   4  -1 -15 1326.84 304.783  18
   4   1  15 1788.57 252.024  15
   4  -2  14 5490.57 456.350  19
  -4  -2 -14 5997.08 483.251  33
   4   2 -14 5059.60 494.214  32
  -4  -2 -14 5553.59 602.434  30
   4  -2  14 6231.02 440.134  15
   4  -2  13 13094.9 749.879  19
  -4  -2 -13 12584.9 735.289  33
   4   2 -13 12547.7 733.602  18
   4   2 -13 10630.7 754.060  32
  -4  -2 -13 11999.8 914.183  30
   4   2 -13 10447.7 694.075  16
   4  -2  13 11876.4 646.317  15
   4  -2  12 961.272 229.640  15
   4  -2  12 1804.27 346.576  19
  -4  -2 -12 980.822 275.452  33
   4   2 -12 823.447 268.445  18
   4   2 -12 512.556 291.195  32
  -4  -2 -12 950.116 357.022  30
   4   2 -12 836.769 251.388  16
   4  -2  11 254.358 160.406  15
   4  -2  11 335.926 240.863  19
  -4  -2 -11 148.704 236.921  33
   4   2 -11 189.022 241.369  32
  -4  -2 -11 569.358 355.533  30
   4   2 -11 48.4877 202.937  16
   4  -2  10 5779.63 610.465  19
  -4  -2 -10 5728.37 589.880  33
   4   2 -10 5134.83 627.664  32
  -4  -2 -10 5964.19 750.518  30
   4   2 -10 5864.52 651.780  16
   4  -2  10 5381.01 504.871  15
   4  -2   9 5855.05 619.425  19
  -4  -2  -9 5115.54 567.867  33
   4   2  -9 4511.91 610.364  32
  -4  -2  -9 5309.15 724.807  30
   4   2  -9 4871.19 613.902  16
   4  -2   9 5181.03 503.952  15
   4  -2   8 1501.80 294.369  15
   4  -2   8 1390.82 348.438  19
  -4  -2  -8 863.878 304.309  33
   4   2  -8 1397.54 412.236  32
   4  -2   8 1382.63 285.459  10
  -4  -2  -8 1629.60 495.031  30
   4   2  -8 1368.83 397.123  16
   4  -2   7 8435.46 781.487  19
  -4  -2  -7 8144.20 763.458  33
   4  -2   7 7583.87 609.649  10
   4   2  -7 6862.30 785.088  32
  -4  -2  -7 6831.43 862.818  30
   4   2  -7 7804.99 788.615  16
   4  -2   7 6804.23 593.277  15
   4  -2   6 3895.13 564.673  19
  -4  -2  -6 3197.02 513.630  33
   4  -2   6 3511.09 450.162  10
   4   2  -6 2903.15 596.550  32
  -4  -2  -6 2971.23 643.765  30
   4   2  -6 3520.49 552.790  16
   4  -2   6 2896.41 418.892  15
   4  -2   5 4793.56 617.137  19
  -4  -2  -5 4804.73 602.343  33
   4   2  -5 5244.45 719.601  32
   4  -2   5 6097.37 581.709  10
  -4  -2  -5 4294.11 721.622  30
   4   2  -5 4952.03 654.869  16
   4  -2   5 4537.89 486.938  15
   4  -2   4 3612.24 546.676  19
   4   2  -4 3208.28 489.515  19
  -4  -2  -4 3112.40 534.503  33
   4  -2   4 3718.13 480.591  10
   4   2  -4 2527.91 561.040  32
  -4  -2  -4 2791.72 617.788  30
   4  -2   4 3487.39 550.508  16
   4   2  -4 2975.08 530.526  16
   4  -2   3 1668.24 395.917  19
   4   2  -3 1873.42 398.522  19
  -4  -2  -3 1799.65 421.016  33
   4   2  -3 1345.25 442.916  32
   4  -2   3 2338.63 402.913  10
   4   2  -3 1842.86 325.586  10
  -4  -2  -3 965.828 511.530  30
   4  -2   3 1632.03 424.046  16
   4   2  -3 2561.70 497.752  16
   4  -2   2 4842.43 615.967  19
   4   2  -2 5199.32 629.125  19
  -4  -2  -2 4027.67 581.534  33
   4   2  -2 5051.67 757.288  32
   4  -2   2 3872.77 515.483  10
   4   2  -2 5589.00 560.202  10
   4  -2   2 4967.79 665.793  16
  -4  -2  -2 5059.03 771.207  30
   4   2  -2 5732.34 686.040  16
   4  -2   1 783.284 304.842  19
   4   2  -1 1480.77 369.231  19
  -4  -2  -1 138.682 268.676  33
   4   2  -1 616.638 348.404  32
   4  -2   1 251.758 261.261  10
   4   2  -1 892.207 262.179  10
  -4  -2  -1 690.414 408.860  30
   4  -2   1 629.826 292.527  16
   4   2  -1 659.286 268.327  16
   4  -2   0-595.246 266.386  19
   4   2   0 326.376 279.291  19
  -4  -2   0-157.015 366.244  33
   4  -2   0 11.2696 227.002  10
   4   2   0 74.9940 212.833  10
  -4  -2   0-532.685 362.836  30
   4  -2   0 470.784 308.799  16
   4   2   0 142.630 247.365  16
   4   2   1-71.5120 232.595  19
  -4  -2   1 351.511 312.267  33
   4  -2  -1 514.154 271.952  10
   4   2   1 445.637 253.366  10
   4  -2  -1 716.559 337.970  16
   4   2   1 716.261 341.234  16
   4   2   2 3232.53 542.748  19
  -4  -2   2 5612.72 700.611  33
   4   2   2 4399.24 525.556  10
   4  -2  -2 2107.24 393.610  10
   4  -2  -2 3419.31 582.621  16
   4   2   3 1737.62 430.894  19
  -4  -2   3 2145.53 466.405  33
   4  -2  -3 2041.53 413.296  10
  -4  -2   3 2109.51 488.466  31
   4   2   3 1675.23 384.747  10
   4  -2  -3 2344.79 566.072  16
   4   2   4 2764.88 510.175  19
   4  -2  -4 3347.70 482.221  10
  -4  -2   4 2517.33 481.029  33
   4   2   4 3425.90 490.154  10
  -4  -2   4 4095.19 620.862  31
   4  -2  -4 3494.03 622.082  16
   4   2   5 5329.46 673.227  19
  -4  -2   5 4583.02 608.103  33
   4  -2  -5 5044.00 562.370  10
   4   2   5 5054.50 560.342  10
  -4  -2   5 5041.73 673.118  31
   4  -2  -5 5082.35 688.570  16
  -4   2  -5 4614.93 721.940  30
   4   2   6 3386.93 529.135  19
   4  -2  -6 3112.25 434.581  10
  -4  -2   6 3137.85 498.763  33
   4   2   6 4162.69 506.689  10
  -4  -2   6 3511.88 583.209  31
  -4   2  -6 2291.15 528.618  30
   4  -2  -6 3492.21 587.361  16
   4   2   7 7744.98 738.996  19
  -4  -2   7 6830.15 680.877  33
   4  -2  -7 7110.20 618.731  10
   4   2   7 8302.11 668.497  10
  -4  -2   7 7845.05 798.109  31
  -4   2  -7 6778.96 793.773  30
   4  -2  -7 8135.52 809.320  16
   4   2   8 1596.35 379.865  19
  -4  -2   8 1013.32 333.809  33
   4  -2  -8 1337.39 285.450  10
  -4  -2   8 1790.68 434.750  31
   4   2   8 1810.02 356.435  10
  -4   2  -8 1358.74 420.486  30
   4  -2  -8 1069.62 349.031  16
   4   2   9 4986.86 584.055  19
   4  -2  -9 4159.79 545.620  18
  -4  -2   9 4861.98 560.695  33
   4  -2  -9 5070.42 468.904  10
   4   2   9 5763.00 536.147  10
  -4  -2   9 5152.12 642.777  31
  -4   2  -9 6089.09 712.574  30
   4  -2  -9 4298.09 591.470  16
   4   2  10 5986.32 599.305  19
   4  -2 -10 5689.45 609.877  18
  -4  -2  10 5311.43 568.739  33
   4   2  10 6137.94 527.543  10
  -4  -2  10 5405.48 632.327  31
  -4   2 -10 5250.24 644.783  30
   4  -2 -10 4531.79 561.785  16
   4   2  11 141.078 193.971  19
   4  -2 -11-310.759 289.090  18
  -4  -2  11 121.116 192.774  33
  -4  -2  11 4.15252 304.244  31
   4   2  11 85.3906 149.445  10
  -4   2 -11 653.128 307.242  30
   4  -2 -11-121.921 188.190  16
   4   2  12 805.067 196.272  15
   4   2  12 1357.78 280.724  19
   4  -2 -12 961.484 301.147  18
  -4  -2  12 1175.57 279.134  33
  -4  -2  12 1067.14 317.263  31
   4   2  12 1793.26 283.318  10
   4  -2 -12 855.463 251.951  16
   4  -2 -13 11318.7 763.662  18
  -4  -2  13 11845.2 683.445  33
   4   2  13 12685.6 611.275  10
  -4  -2  13 11813.6 793.684  31
   4   2  13 10171.9 546.640  15
   4  -2 -14 5014.79 500.528  18
  -4  -2  14 5524.66 525.712  31
   4  -3  12 4394.31 436.031  19
  -4  -3 -12 3852.28 402.840  33
   4   3 -12 3769.19 453.579  32
   4   3 -12 3173.98 375.929  16
   4  -3  12 4221.91 369.524  15
   4  -3  11 3256.20 415.083  19
  -4  -3 -11 2455.26 358.622  33
   4   3 -11 1717.00 344.309  32
  -4  -3 -11 3076.96 445.302  30
   4   3 -11 2612.50 393.148  16
   4  -3  11 2253.05 307.155  15
   4  -3  10 9047.37 684.258  19
  -4  -3 -10 9827.52 688.828  33
   4   3 -10 8177.72 704.215  32
  -4  -3 -10 8937.10 764.543  30
   4   3 -10 9121.73 704.830  16
   4  -3  10 8661.92 573.951  15
   4  -3   9 6891.94 618.713  19
  -4  -3  -9 5740.20 561.890  33
   4   3  -9 5059.68 588.497  32
  -4  -3  -9 4880.16 598.304  30
   4   3  -9 5431.34 575.590  16
   4  -3   9 6086.85 499.857  15
   4  -3   8 120.649 156.617  15
   4  -3   8 193.282 200.311  19
  -4  -3  -8 246.201 213.928  33
   4   3  -8 422.313 309.172  32
  -4  -3  -8 784.602 355.974  30
   4   3  -8 269.637 283.485  16
   4  -3   7 3479.61 485.700  19
  -4  -3  -7 3142.76 456.670  33
   4   3  -7 3432.99 528.580  32
   4   3  -7 3044.40 492.619  16
   4  -3   7 3115.50 399.875  15
   4  -3   6 9360.33 763.663  19
  -4  -3  -6 9317.45 758.653  33
   4  -3   6 9887.56 651.093  10
   4   3  -6 10067.3 865.896  32
   4   3  -6 10485.9 842.711  16
   4  -3   6 9019.69 634.706  15
   4  -3   5 14308.0 943.865  19
   4   3  -5 12571.1 813.870  19
  -4  -3  -5 14336.2 954.492  33
   4  -3   5 15595.2 845.763  10
   4   3  -5 13681.1 1009.39  32
   4   3  -5 16124.6 1053.70  16
   4  -3   5 12231.3 735.499  15
   4  -3   4 8687.42 739.085  19
   4   3  -4 7109.50 644.885  19
  -4  -3  -4 7685.07 730.899  33
   4  -3   4 8825.40 668.687  10
   4   3  -4 6963.75 769.226  32
  -4  -3  -4 8154.34 776.064  31
   4   3  -4 8923.54 810.459  16
   4  -3   4 7716.54 591.592  15
   4  -3   3 8961.69 747.575  19
   4   3  -3 6222.65 620.886  19
  -4  -3  -3 7686.93 745.468  33
   4  -3   3 8923.24 682.848  10
   4   3  -3 5799.05 695.778  32
  -4  -3  -3 8174.87 781.168  31
   4   3  -3 8086.21 769.106  16
   4  -3   3 7173.15 566.308  15
   4  -3   2 31527.8 1366.87  19
   4   3  -2 28971.0 1346.85  19
  -4  -3  -2 28291.5 1373.40  33
   4  -3   2 31757.9 1290.00  10
   4   3  -2 26643.6 1411.16  32
  -4  -3  -2 32204.6 1527.04  31
   4  -3   2 29491.7 1461.84  16
   4   3  -2 30941.2 1434.11  16
   4   3  -1 7407.21 717.098  19
  -4  -3  -1 6634.38 759.352  33
   4  -3   1 7944.10 684.753  10
   4   3  -1 6151.91 706.163  32
   4   3  -1 7239.79 566.755  10
  -4  -3  -1 7750.42 850.103  31
   4  -3   1 6710.97 752.292  16
   4   3  -1 7538.47 716.910  16
   4   3   0 11819.0 889.417  19
  -4  -3   0 10798.6 885.886  33
   4  -3   0 10996.9 794.701  10
   4   3   0 10169.9 688.229  10
  -4  -3   0 10616.5 937.454  31
   4  -3   0 10218.1 896.812  16
   4   3   0 12163.4 883.400  16
   4   3   1 7183.73 714.761  19
  -4  -3   1 8977.78 882.622  33
   4  -3  -1 7958.39 679.104  10
   4   3   1 6860.05 587.245  10
  -4  -3   1 8787.98 880.475  31
   4  -3  -1 6482.99 732.260  16
   4   3   2 31307.4 1434.65  19
  -4  -3   2 28977.4 1387.95  33
   4  -3  -2 30880.5 1303.61  10
   4   3   2 28393.5 1148.69  10
  -4  -3   2 30943.0 1544.94  31
   4  -3  -2 27858.6 1483.39  16
   4   3   3 6663.91 678.100  19
  -4  -3   3 6928.01 723.503  33
   4  -3  -3 8222.95 686.937  10
   4   3   3 7769.76 627.548  10
  -4  -3   3 6648.25 771.155  31
   4  -3  -3 7634.07 786.856  16
   4   3   4 8924.03 794.975  19
  -4  -3   4 8129.93 775.273  33
   4  -3  -4 8787.13 696.531  10
   4   3   4 8166.12 640.213  10
  -4  -3   4 7614.69 799.427  31
  -4   3  -4 7674.62 796.447  30
   4  -3  -4 7594.41 810.992  16
   4   3   5 15135.9 983.700  19
  -4  -3   5 14009.1 953.886  33
   4  -3  -5 14906.3 876.479  10
   4   3   5 15136.7 845.505  10
  -4  -3   5 14973.8 1068.48  31
  -4   3  -5 13182.8 994.121  30
   4  -3  -5 15203.4 1064.75  16
   4   3   6 9427.97 771.368  19
  -4  -3   6 10529.5 816.083  33
   4  -3  -6 8757.96 664.462  10
   4   3   6 10535.4 711.640  10
  -4  -3   6 9592.05 856.636  31
   4  -3  -6 9712.27 848.393  16
   4   3   7 3934.79 509.629  19
   4  -3  -7 3428.95 423.666  10
  -4  -3   7 2611.42 423.922  33
   4   3   7 3310.94 411.562  10
  -4  -3   7 3525.33 542.351  31
   4  -3  -7 2924.42 468.546  16
   4   3   8-23.0501 178.419  19
   4  -3  -8 116.567 201.317  18
  -4  -3   8 23.8273 206.765  33
   4  -3  -8 199.784 202.915  10
  -4  -3   8 170.491 251.452  31
   4   3   8 336.249 198.757  10
   4  -3  -8 10.3535 214.216  16
   4   3   9 5552.14 538.034  19
   4  -3  -9 6422.90 607.793  18
  -4  -3   9 5653.47 559.688  33
   4  -3  -9 6241.28 500.190  10
   4   3   9 6015.59 496.633  10
  -4  -3   9 7447.03 720.986  31
   4  -3  -9 5437.93 576.847  16
   4   3  10 9452.60 639.706  19
   4  -3 -10 7680.78 656.053  18
   4  -3 -10 7628.29 511.047  10
  -4  -3  10 7597.90 616.942  33
   4   3  10 9710.78 602.234  10
  -4  -3  10 7743.78 705.001  31
   4  -3 -10 5997.92 558.313  16
   4   3  11 2721.86 343.733  19
  -4  -3  11 2565.71 367.587  33
   4  -3 -11 2471.68 381.172  18
   4   3  11 3327.59 347.880  10
  -4  -3  11 3052.12 459.453  31
   4  -3 -12 3318.34 424.107  18
  -4  -3  12 3800.42 400.887  33
   4   3  12 4154.99 364.685  10
  -4  -3  12 3907.63 471.001  31
   4  -4   9 124.080 125.539  15
   4  -4   9 124.012 153.926  19
  -4  -4  -9 90.2287 153.067  33
   4   4  -9 530.585 203.420  16
   4  -4   8 11381.3 700.426  19
  -4  -4  -8 8262.47 723.670  11
  -4  -4  -8 9622.74 619.891  33
   4   4  -8 8143.51 633.890  32
   4   4  -8 10368.6 692.181  16
   4  -4   8 11140.3 598.894  15
   4  -4   7 39725.7 1322.29  19
  -4  -4  -7 36560.5 1552.43  11
  -4  -4  -7 37303.3 1250.04  33
   4   4  -7 35199.8 1305.75  32
  -4  -4  -7 40941.1 1373.52  31
   4   4  -7 39354.0 1357.27  16
   4  -4   7 36369.7 1099.15  15
   4  -4   6 2921.81 395.873  19
  -4  -4  -6 2823.09 535.797  11
  -4  -4  -6 3155.27 413.590  33
   4   4  -6 2571.75 423.044  32
  -4  -4  -6 3433.45 486.440  31
   4   4  -6 3267.62 447.240  16
   4  -4   6 3045.28 359.296  15
   4  -4   5 20455.6 977.663  19
   4   4  -5 16024.0 811.539  19
  -4  -4  -5 16807.6 1142.69  11
  -4  -4  -5 18181.8 934.925  33
   4   4  -5 15199.4 890.571  32
  -4  -4  -5 19712.4 1046.96  31
   4   4  -5 19687.2 997.936  16
   4  -4   5 18917.9 821.137  15
   4  -4   4 1106.84 244.065  15
   4  -4   4 1781.86 333.616  19
   4   4  -4 1092.17 265.232  19
  -4  -4  -4 1147.52 336.397  33
   4   4  -4 1145.76 310.395  32
   4  -4   4 1482.88 263.999  10
  -4  -4  -4 1729.33 363.143  31
   4   4  -4 1326.75 315.422  16
   4  -4   3 12952.0 772.800  19
   4   4  -3 11613.8 764.241  19
  -4  -4  -3 13019.7 826.851  33
   4  -4   3 13332.1 716.010  10
   4   4  -3 9507.49 720.600  32
  -4  -4  -3 12624.9 913.360  31
   4   4  -3 12987.4 827.401  16
   4  -4   3 10675.4 613.658  15
   4   4  -2 7177.27 622.864  19
  -4  -4  -2 8091.76 678.736  33
   4  -4   2 8486.41 597.784  10
  -4  -4  -2 9417.33 804.659  31
   4   4  -2 7197.87 620.490  16
   4  -4   2 7878.46 523.167  15
   4   4  -1 3957.06 491.649  19
  -4  -4  -1 3896.74 514.183  33
   4  -4   1 4421.68 455.274  10
  -4  -4  -1 4322.04 587.969  31
   4   4   0 1787.30 365.950  19
  -4  -4   0 1601.46 353.845  33
   4  -4   0 1871.49 317.809  10
  -4  -4   0 1580.01 383.981  31
   4   4   1 4594.86 534.843  19
   4  -4  -1 4581.02 467.875  10
  -4  -4   1 3072.48 442.029  33
  -4  -4   1 4653.64 611.657  31
   4   4   2 7575.50 663.095  19
  -4  -4   2 7338.09 663.533  33
   4  -4  -2 8852.98 631.975  10
   4   4   2 7139.96 507.958  10
  -4  -4   2 7995.48 778.046  31
   4   4   3 14120.5 878.489  19
  -4  -4   3 14092.6 874.290  33
   4  -4  -3 13143.6 763.047  10
   4   4   3 12580.9 670.527  10
  -4  -4   3 12527.4 929.161  31
   4   4   4 1522.03 344.743  19
  -4  -4   4 1489.16 361.650  33
   4  -4  -4 1580.43 301.668  10
  -4  -4   4 1624.37 404.509  31
   4   4   4 1496.06 265.128  10
   4   4   5 20039.4 1000.30  19
  -4  -4   5 17171.4 928.519  33
   4  -4  -5 19647.3 899.683  10
   4   4   5 18410.7 801.632  10
  -4  -4   5 18832.7 1079.57  31
   4   4   6 3376.50 423.452  19
  -4  -4   6 3467.36 445.514  33
   4  -4  -6 2689.59 353.268  10
   4   4   6 3521.90 369.714  10
  -4  -4   6 3385.29 505.107  31
   4   4   7 39170.5 1280.15  19
   4  -4  -7 37772.4 1167.34  10
  -4  -4   7 38520.7 1304.52  33
   4   4   7 38017.5 1108.43  10
  -4  -4   7 39172.6 1478.31  31
   4   4   8 8452.73 574.693  19
   4  -4  -8 10197.1 584.558  10
  -4  -4   8 9147.56 630.905  33
   4   4   8 9234.52 542.051  10
  -4  -4   8 10057.0 742.864  31
  -4  -4   9 58.6663 161.387  33
   4  -4  -9 110.890 120.827  10
  -4  -4   9 68.8287 198.670  31
   4   4   9 210.787 144.348  10
   4   4  10 958.285 194.359  10
  -4  -5  -3 1689.21 370.517  11
  -4  -5  -2 1053.34 324.944  11
  -4  -5  -2 1503.80 345.739  31
   4   5  -1 2285.26 302.225  19
  -4  -5  -1 2072.35 386.342  11
  -4  -5  -1 2950.86 412.224  31
   4   5   0 4593.62 418.136  19
  -4  -5   0 5146.33 564.276  11
  -4  -5   0 5769.92 541.091  31
   4   5   1 1593.19 261.940  19
  -4  -5   1 2901.92 414.438  31
   4   5   2 1283.15 264.112  19
  -4  -5   2 2063.24 354.038  31
   4   5   3 2040.39 297.797  19
  -4  -5   3 2926.11 410.865  31
   0   0   0    0.00    0.00   0

TITL 2017_09_20_mm9 in P2(1)2(1)2(1)
REM P2(1)2(1)2(1) (#19 in standard setting)
CELL 1.54184   3.877581   7.645292  23.799458  90.0000  90.0000  90.0000
ZERR    8.00   0.000145   0.000271   0.000941   0.0000   0.0000   0.0000
LATT -1
SYMM -x+1/2,-y, z+1/2
SYMM -x, y+1/2,-z+1/2
SYMM  x+1/2,-y+1/2,-z
SFAC C H N
UNIT 72.00 48.00 8.00
TREF
HKLF 4
END
;
_shelx_hkl_checksum              735
_olex2_date_sample_data_collection 2017-09-20
_olex2_submission_special_instructions 'No special instructions were received'
_oxdiff_exptl_absorpt_empirical_details
;
Empirical correction (ABSPACK) includes:
- Absorption correction using spherical harmonics
- Frame scaling
;
_oxdiff_exptl_absorpt_empirical_full_max 1.652
_oxdiff_exptl_absorpt_empirical_full_min 0.608
loop_
_space_group_symop_operation_xyz
'x, y, z'
'-x+1/2, -y, z+1/2'
'x+1/2, -y+1/2, -z'
'-x, y+1/2, -z+1/2'
loop_
_atom_site_label
_atom_site_type_symbol
_atom_site_fract_x
_atom_site_fract_y
_atom_site_fract_z
_atom_site_U_iso_or_equiv
_atom_site_adp_type
_atom_site_occupancy
_atom_site_site_symmetry_order
_atom_site_calc_flag
_atom_site_refinement_flags_posn
_atom_site_refinement_flags_adp
_atom_site_refinement_flags_occupancy
_atom_site_disorder_assembly
_atom_site_disorder_group
N1 N 0.6652(4) 0.1836(2) 0.07627(7) 0.0234(4) Uani 1 1 d . . . . .
H1 H 0.767(6) 0.288(3) 0.0774(9) 0.028 Uiso 1 1 d R . . . .
C4 C 0.2420(5) -0.1768(2) 0.14146(8) 0.0223(4) Uani 1 1 d . . . . .
C2 C 0.6431(5) 0.0768(3) 0.03006(8) 0.0233(4) Uani 1 1 d . . . . .
H2 H 0.728590 0.105011 -0.006236 0.028 Uiso 1 1 calc R . . . .
C8 C 0.5196(5) 0.0997(2) 0.12139(7) 0.0204(4) Uani 1 1 d . . . . .
N2 N 0.0040(5) -0.4776(2) 0.10947(7) 0.0315(4) Uani 1 1 d . . . . .
C7 C 0.4862(5) 0.1539(2) 0.17701(8) 0.0240(4) Uani 1 1 d . . . . .
H7 H 0.564557 0.265909 0.188690 0.029 Uiso 1 1 calc R . . . .
C3 C 0.4805(5) -0.0757(2) 0.04373(8) 0.0231(4) Uani 1 1 d . . . . .
H3 H 0.430499 -0.170290 0.019159 0.028 Uiso 1 1 calc R . . . .
C6 C 0.3354(5) 0.0395(3) 0.21462(8) 0.0257(5) Uani 1 1 d . . . . .
H6 H 0.314355 0.072531 0.252952 0.031 Uiso 1 1 calc R . . . .
C9 C 0.4004(5) -0.0653(2) 0.10216(8) 0.0209(4) Uani 1 1 d . . . . .
C10 C 0.1103(5) -0.3447(3) 0.12382(8) 0.0242(4) Uani 1 1 d . . . . .
C5 C 0.2126(5) -0.1247(3) 0.19729(8) 0.0247(5) Uani 1 1 d . . . . .
H5 H 0.108560 -0.200803 0.223901 0.030 Uiso 1 1 calc R . . . .
loop_
_atom_site_aniso_label
_atom_site_aniso_U_11
_atom_site_aniso_U_22
_atom_site_aniso_U_33
_atom_site_aniso_U_23
_atom_site_aniso_U_13
_atom_site_aniso_U_12
N1 0.0264(9) 0.0143(8) 0.0296(9) 0.0016(7) -0.0041(7) -0.0015(7)
C4 0.0219(9) 0.0153(9) 0.0296(10) 0.0009(8) -0.0024(8) 0.0008(8)
C2 0.0248(9) 0.0207(10) 0.0243(9) 0.0014(8) -0.0020(8) 0.0011(9)
C8 0.0201(9) 0.0135(8) 0.0277(9) 0.0003(7) -0.0038(8) 0.0016(8)
N2 0.0347(10) 0.0202(9) 0.0397(9) 0.0002(7) 0.0011(9) -0.0049(9)
C7 0.0259(9) 0.0146(9) 0.0315(10) -0.0037(8) -0.0068(9) 0.0026(9)
C3 0.0231(9) 0.0195(9) 0.0266(9) -0.0041(7) -0.0012(8) 0.0012(9)
C6 0.0274(10) 0.0243(11) 0.0256(9) -0.0025(8) -0.0025(8) 0.0036(9)
C9 0.0196(9) 0.0160(9) 0.0271(9) -0.0011(7) -0.0022(7) 0.0020(7)
C10 0.0243(10) 0.0181(10) 0.0302(10) 0.0024(8) 0.0014(8) 0.0002(8)
C5 0.0240(10) 0.0223(10) 0.0277(10) 0.0044(8) 0.0004(8) 0.0011(8)
loop_
_atom_type_symbol
_atom_type_description
_atom_type_scat_dispersion_real
_atom_type_scat_dispersion_imag
_atom_type_scat_source
C C 0.0181 0.0091 'International Tables Vol C Tables 4.2.6.8 and 6.1.1.4'
H H 0.0000 0.0000 'International Tables Vol C Tables 4.2.6.8 and 6.1.1.4'
N N 0.0311 0.0180 'International Tables Vol C Tables 4.2.6.8 and 6.1.1.4'
loop_
_geom_angle_atom_site_label_1
_geom_angle_atom_site_label_2
_geom_angle_atom_site_label_3
_geom_angle
_geom_angle_site_symmetry_1
_geom_angle_site_symmetry_3
_geom_angle_publ_flag
C8 N1 C2 108.86(16) . . ?
C9 C4 C10 119.99(17) . . ?
C5 C4 C9 119.80(18) . . ?
C5 C4 C10 120.21(18) . . ?
C3 C2 N1 110.25(17) . . ?
N1 C8 C7 129.99(17) . . ?
N1 C8 C9 107.28(16) . . ?
C7 C8 C9 122.72(17) . . ?
C6 C7 C8 117.82(17) . . ?
C2 C3 C9 106.57(17) . . ?
C7 C6 C5 121.28(18) . . ?
C4 C9 C8 117.81(17) . . ?
C4 C9 C3 135.16(18) . . ?
C8 C9 C3 107.03(17) . . ?
N2 C10 C4 179.5(2) . . ?
C4 C5 C6 120.56(19) . . ?
loop_
_geom_bond_atom_site_label_1
_geom_bond_atom_site_label_2
_geom_bond_distance
_geom_bond_site_symmetry_2
_geom_bond_publ_flag
N1 C2 1.372(2) . ?
N1 C8 1.372(2) . ?
C4 C9 1.407(3) . ?
C4 C10 1.444(3) . ?
C4 C5 1.392(3) . ?
C2 C3 1.365(3) . ?
C8 C7 1.393(3) . ?
C8 C9 1.419(3) . ?
N2 C10 1.148(3) . ?
C7 C6 1.381(3) . ?
C3 C9 1.427(3) . ?
C6 C5 1.405(3) . ?
