#------------------------------------------------------------------------------
#$Date: 2020-10-04 05:51:44 +0300 (Sun, 04 Oct 2020) $
#$Revision: 257009 $
#$URL: file:///home/coder/svn-repositories/cod/cif/4/51/75/4517576.cif $
#------------------------------------------------------------------------------
#
# This file is available in the Crystallography Open Database (COD),
# http://www.crystallography.net/
#
# All data on this site have been placed in the public domain by the
# contributors.
#
data_4517576
loop_
_publ_author_name
'Jeong, Jinseong'
'Heo, Joon'
'Kim, Dongwook'
'Chang, Sukbok'
_publ_section_title
;
 NHC-Catalyzed 1,2-Selective Hydroboration of Quinolines
;
_journal_issue                   9
_journal_name_full               'ACS Catalysis'
_journal_page_first              5023
_journal_page_last               5029
_journal_paper_doi               10.1021/acscatal.0c00884
_journal_volume                  10
_journal_year                    2020
_chemical_formula_sum            'C18 H14 N2 O5'
_chemical_formula_weight         338.31
_space_group_crystal_system      triclinic
_space_group_IT_number           2
_space_group_name_Hall           '-P 1'
_space_group_name_H-M_alt        'P -1'
_atom_sites_solution_hydrogens   geom
_audit_creation_method           SHELXL-2018/3
_cell_angle_alpha                92.011(4)
_cell_angle_beta                 102.586(4)
_cell_angle_gamma                97.486(4)
_cell_formula_units_Z            2
_cell_length_a                   7.4602(8)
_cell_length_b                   7.7802(9)
_cell_length_c                   14.1269(15)
_cell_measurement_reflns_used    9639
_cell_measurement_temperature    153(2)
_cell_measurement_theta_max      28.66
_cell_measurement_theta_min      2.83
_cell_volume                     791.72(15)
_computing_cell_refinement       'Bruker APEXIII'
_computing_data_collection       'Bruker APEXIII'
_computing_data_reduction        'Bruker SAINT'
_computing_molecular_graphics    ORTEP
_computing_publication_material  CIFTAB
_computing_structure_refinement  SHELXL
_computing_structure_solution    SHELXS
_diffrn_ambient_temperature      153(2)
_diffrn_measured_fraction_theta_full 0.993
_diffrn_measured_fraction_theta_max 0.980
_diffrn_measurement_device_type  'Bruker PHOTON II'
_diffrn_measurement_method       'phi and omega scans'
_diffrn_radiation_type           MoK\a
_diffrn_radiation_wavelength     0.71073
_diffrn_reflns_av_R_equivalents  0.0595
_diffrn_reflns_av_unetI/netI     0.0389
_diffrn_reflns_Laue_measured_fraction_full 0.993
_diffrn_reflns_Laue_measured_fraction_max 0.980
_diffrn_reflns_limit_h_max       10
_diffrn_reflns_limit_h_min       -9
_diffrn_reflns_limit_k_max       10
_diffrn_reflns_limit_k_min       -10
_diffrn_reflns_limit_l_max       19
_diffrn_reflns_limit_l_min       -19
_diffrn_reflns_number            29774
_diffrn_reflns_point_group_measured_fraction_full 0.993
_diffrn_reflns_point_group_measured_fraction_max 0.980
_diffrn_reflns_theta_full        25.242
_diffrn_reflns_theta_max         28.875
_diffrn_reflns_theta_min         2.826
_diffrn_source                   'fine-focus sealed tube'
_exptl_absorpt_coefficient_mu    0.105
_exptl_absorpt_correction_T_max  0.7458
_exptl_absorpt_correction_T_min  0.7107
_exptl_absorpt_correction_type   multi-scan
_exptl_absorpt_process_details   SADABS
_exptl_crystal_colour            yellow
_exptl_crystal_density_diffrn    1.419
_exptl_crystal_description       plate
_exptl_crystal_F_000             352
_exptl_crystal_size_max          0.341
_exptl_crystal_size_mid          0.312
_exptl_crystal_size_min          0.068
_refine_diff_density_max         0.369
_refine_diff_density_min         -0.216
_refine_diff_density_rms         0.044
_refine_ls_extinction_method     none
_refine_ls_goodness_of_fit_ref   1.030
_refine_ls_hydrogen_treatment    constr
_refine_ls_matrix_type           full
_refine_ls_number_parameters     227
_refine_ls_number_reflns         4085
_refine_ls_number_restraints     0
_refine_ls_restrained_S_all      1.030
_refine_ls_R_factor_all          0.0772
_refine_ls_R_factor_gt           0.0546
_refine_ls_shift/su_max          0.000
_refine_ls_shift/su_mean         0.000
_refine_ls_structure_factor_coef Fsqd
_refine_ls_weighting_details
'w=1/[\s^2^(Fo^2^)+(0.0415P)^2^+0.4570P] where P=(Fo^2^+2Fc^2^)/3'
_refine_ls_weighting_scheme      calc
_refine_ls_wR_factor_gt          0.1148
_refine_ls_wR_factor_ref         0.1262
_reflns_Friedel_coverage         0.000
_reflns_number_gt                3097
_reflns_number_total             4085
_reflns_threshold_expression     'I > 2\s(I)'
_cod_data_source_file            cs0c00884_si_004.cif
_cod_data_source_block           A19077_002
_cod_depositor_comments
;
The following automatic conversions were performed:

data item '_exptl_absorpt_correction_type' value 'MULTI-SCAN' was
changed to 'multi-scan' in accordance with the
/home/data/users/saulius/crontab/automatic-downloads/rss-feeds/ACS/lib/dictionaries/cif_core.dic
dictionary named 'cif_core.dic' version 2.4.2 last updated on
2011-04-26.

Automatic conversion script
Id: cif_fix_values 7556 2019-12-06 15:28:31Z antanas 

 Adding full bibliography for 4517576--4517579.cif.

 Adding full bibliography for 4517576--4517579.cif.
;
_cod_database_code               4517576
_shelx_shelxl_version_number     2018/3
_shelx_space_group_comment
;
The symmetry employed for this shelxl refinement is uniquely defined
by the following loop, which should always be used as a source of
symmetry information in preference to the above space-group names.
They are only intended as comments.
;
_shelx_estimated_absorpt_t_min   0.965
_shelx_estimated_absorpt_t_max   0.993
_shelx_res_file
;
TITL A19077_002 in P-1
    A19077_002.res
    created by SHELXL-2018/3 at 19:59:39 on 06-Aug-2019
CELL 0.71073   7.46020   7.78020  14.12690  92.0108 102.5858  97.4864
ZERR    2.00   0.00080   0.00090   0.00150   0.0036   0.0035   0.0037
LATT  1
SFAC C H N O
UNIT 36 28 4 10
ACTA
TEMP -120.3
SIZE 0.068 0.312 0.341
CONF
MERG 2
L.S. 12
BOND $H
FMAP 2
PLAN 20
OMIT      2   8   3
OMIT     -8  -5   7
OMIT     -2   0   6
OMIT     -1   0   1
OMIT      0   3   2
LIST 4
WGHT    0.041500    0.457000
FVAR       0.49371
N1    3    0.483550    0.253073    0.150106    11.00000    0.03036    0.02534 =
         0.02985   -0.00267    0.00137    0.00867
C2    1    0.531631    0.077005    0.138904    11.00000    0.03921    0.02998 =
         0.04671   -0.00594    0.00481    0.01322
AFIX  23
H2A   2    0.661087    0.084396    0.131148    11.00000   -1.20000
H2AB  2    0.448987    0.014406    0.079968    11.00000   -1.20000
AFIX   0
C3    1    0.511235   -0.019488    0.225828    11.00000    0.03613    0.02489 =
         0.06004    0.00364   -0.00014    0.00764
AFIX  43
H3    2    0.482296   -0.142511    0.219371    11.00000   -1.20000
AFIX   0
C4    1    0.532704    0.063045    0.312321    11.00000    0.04023    0.03056 =
         0.04709    0.01320    0.00475    0.00551
AFIX  43
H4    2    0.514238   -0.000503    0.366435    11.00000   -1.20000
AFIX   0
C5    1    0.584735    0.251625    0.324321    11.00000    0.02919    0.02908 =
         0.03449    0.00684    0.00528    0.00661
C6    1    0.565762    0.345839    0.240910    11.00000    0.02373    0.02819 =
         0.02693   -0.00012    0.00286    0.00767
C7    1    0.631014    0.521670    0.247364    11.00000    0.03027    0.02889 =
         0.02467    0.00377    0.00308    0.00493
AFIX  43
H7    2    0.625803    0.582870    0.190026    11.00000   -1.20000
AFIX   0
C8    1    0.703756    0.607925    0.337447    11.00000    0.03257    0.02749 =
         0.02897    0.00046    0.00376    0.00366
AFIX  43
H8    2    0.745964    0.729156    0.341947    11.00000   -1.20000
AFIX   0
C9    1    0.715544    0.518713    0.421294    11.00000    0.03152    0.03822 =
         0.02591    0.00153    0.00321    0.00672
C10   1    0.657928    0.340846    0.414091    11.00000    0.03864    0.04023 =
         0.02854    0.01093    0.00521    0.00980
AFIX  43
H10   2    0.668757    0.279236    0.471485    11.00000   -1.20000
AFIX   0
C11   1    0.794741    0.607354    0.519169    11.00000    0.03801    0.05333 =
         0.02629    0.00013    0.00382    0.00722
O12   4    0.818037    0.535236    0.593068    11.00000    0.09312    0.07075 =
         0.02650    0.00589   -0.00051    0.01008
O13   4    0.836943    0.777966    0.515637    11.00000    0.07646    0.05120 =
         0.03025   -0.00907    0.00300   -0.00881
C14   1    0.917739    0.875208    0.607471    11.00000    0.06703    0.07485 =
         0.03792   -0.02441    0.00521   -0.00952
AFIX 137
H14A  2    0.956615    0.996360    0.595783    11.00000   -1.50000
H14B  2    1.025712    0.824512    0.641227    11.00000   -1.50000
H14C  2    0.825655    0.870668    0.647652    11.00000   -1.50000
AFIX   0
C15   1    0.362194    0.312703    0.075268    11.00000    0.02282    0.03040 =
         0.02807   -0.00046    0.00428    0.00415
O16   4    0.328246    0.244354   -0.006734    11.00000    0.04013    0.04967 =
         0.02923   -0.01180    0.00004    0.01304
C17   1    0.265818    0.461448    0.097837    11.00000    0.02033    0.02824 =
         0.02495   -0.00028    0.00133    0.00374
C18   1    0.241089    0.588675    0.031549    11.00000    0.02477    0.03596 =
         0.02164    0.00357    0.00516    0.00345
AFIX  43
H18   2    0.284726    0.579780   -0.026541    11.00000   -1.20000
AFIX   0
C19   1    0.153562    0.727829    0.049568    11.00000    0.02775    0.03043 =
         0.02648    0.00826    0.00336    0.00447
AFIX  43
H19   2    0.139205    0.817089    0.005470    11.00000   -1.20000
AFIX   0
C20   1    0.087558    0.734011    0.133103    11.00000    0.02328    0.02526 =
         0.02717    0.00062    0.00155    0.00539
C21   1    0.101047    0.605528    0.197965    11.00000    0.02903    0.03175 =
         0.02339    0.00404    0.00708    0.00785
AFIX  43
H21   2    0.049103    0.610957    0.253525    11.00000   -1.20000
AFIX   0
C22   1    0.192352    0.468476    0.179868    11.00000    0.03018    0.02935 =
         0.02596    0.00814    0.00736    0.00892
AFIX  43
H22   2    0.204844    0.378766    0.223763    11.00000   -1.20000
AFIX   0
N23   3    0.005492    0.887339    0.156523    11.00000    0.03287    0.02845 =
         0.03046    0.00036   -0.00005    0.00856
O24   4    0.039170    1.019194    0.115858    11.00000    0.06338    0.02903 =
         0.05872    0.01284    0.01295    0.01413
O25   4   -0.088309    0.877128    0.216932    11.00000    0.05143    0.04510 =
         0.04262    0.00028    0.01689    0.01914
HKLF 4




REM  A19077_002 in P-1
REM wR2 = 0.1262, GooF = S = 1.030, Restrained GooF = 1.030 for all data
REM R1 = 0.0546 for 3097 Fo > 4sig(Fo) and 0.0772 for all 4085 data
REM 227 parameters refined using 0 restraints

END

WGHT      0.0415      0.4570

REM Highest difference peak  0.369,  deepest hole -0.216,  1-sigma level  0.044
Q1    1   0.3623  0.0006  0.2648  11.00000  0.05    0.37
Q2    1   0.7460  0.5666  0.4618  11.00000  0.05    0.30
Q3    1   0.2835  0.5418  0.0756  11.00000  0.05    0.28
Q4    1   0.5275  0.3032  0.1958  11.00000  0.05    0.27
Q5    1   0.3870  0.2567  0.1355  11.00000  0.05    0.22
Q6    1   0.1921  0.5750  0.2061  11.00000  0.05    0.22
Q7    1   0.6679  0.4413  0.4182  11.00000  0.05    0.21
Q8    1   0.5681  0.3019  0.2832  11.00000  0.05    0.21
Q9    1   0.6423  0.5545  0.2951  11.00000  0.05    0.21
Q10   1   0.3309  0.4060  0.0953  11.00000  0.05    0.21
Q11   1   0.5519  0.1559  0.3089  11.00000  0.05    0.21
Q12   1   0.5851  0.4336  0.2439  11.00000  0.05    0.20
Q13   1   0.2874  0.3805  0.0805  11.00000  0.05    0.20
Q14   1   0.1305  0.6936  0.1790  11.00000  0.05    0.20
Q15   1   0.0740  0.6665  0.1595  11.00000  0.05    0.20
Q16   1   0.0588  0.7938  0.1470  11.00000  0.05    0.20
Q17   1   0.6756  0.5645  0.3833  11.00000  0.05    0.20
Q18   1   0.2502  0.6789  0.0617  11.00000  0.05    0.19
Q19   1   0.1104  0.5207  0.1737  11.00000  0.05    0.19
Q20   1   0.2709  0.4959  0.1453  11.00000  0.05    0.19
;
_shelx_res_checksum              24316
_shelx_hkl_file
;
   1   0   0    4.58    0.46
  -2   0   0   13.27    0.96
  -2   0   0   14.40    0.83
  -2   0   0   12.94    1.08
  -2   0   0   15.24    0.82
  -2   0   0   12.73    0.87
   2   0   0   13.80    1.04
   2   0   0   12.55    0.95
   2   0   0   13.93    0.83
   2   0   0   14.27    0.85
   2   0   0   13.47    0.94
   2   0   0   11.41    0.86
   2   0   0   11.88    0.99
  -3   0   0   28.59    1.93
  -3   0   0   29.48    1.83
  -3   0   0   30.54    1.72
   3   0   0   31.49    1.69
   3   0   0   30.42    1.66
   3   0   0   27.56    1.70
   3   0   0   25.37    1.78
   3   0   0   29.39    1.82
   3   0   0   29.59    1.83
   3   0   0   28.58    1.88
   3   0   0   32.52    1.77
  -4   0   0    5.03    0.85
  -4   0   0    4.45    0.90
   4   0   0    4.63    0.79
   4   0   0    3.27    0.66
   4   0   0    4.87    0.73
   4   0   0    3.53    0.54
   4   0   0    5.34    0.56
   4   0   0    4.61    0.62
   4   0   0    5.73    0.90
   4   0   0    4.42    0.57
   4   0   0    4.75    0.76
   4   0   0    5.99    0.92
  -5   0   0   24.16    1.87
  -5   0   0   22.96    2.00
   5   0   0   23.94    1.90
   5   0   0   23.24    1.70
   5   0   0   24.76    1.79
   5   0   0   23.32    1.54
   5   0   0   22.82    1.74
   5   0   0   24.68    1.51
   5   0   0   23.80    1.69
   5   0   0   25.25    1.48
   5   0   0   24.77    1.57
  -6   0   0    6.43    2.48
  -6   0   0    7.01    1.21
   6   0   0    7.31    0.84
   6   0   0    7.60    0.82
   6   0   0    6.18    0.86
   6   0   0    6.07    1.05
   6   0   0    7.49    1.33
   6   0   0    6.20    1.25
   6   0   0    6.69    1.05
   6   0   0   10.16    1.48
   6   0   0    7.10    1.03
  -7   0   0    4.29    1.22
  -7   0   0    6.48    1.41
   7   0   0    7.71    1.37
   7   0   0    4.32    0.73
   7   0   0    5.64    1.10
   7   0   0    5.56    0.79
   7   0   0    3.55    0.72
   7   0   0    8.82    1.35
   7   0   0    4.82    0.89
  -8   0   0    0.21    1.08
  -8   0   0    0.63    1.12
   8   0   0    0.28    1.07
   8   0   0    0.63    0.59
   8   0   0   -0.20    0.95
   8   0   0    1.87    0.55
   8   0   0    0.16    0.72
   8   0   0   -0.67    0.87
  -9   0   0   -1.50    1.31
   9   0   0   -0.69    1.14
   9   0   0    1.11    1.07
   9   0   0   -0.16    0.87
   9   0   0    0.92    0.82
   9  -1   0    0.85    1.01
   9  -1   0    0.58    0.75
   9  -1   0    0.98    0.97
   9  -1   0   -0.01    0.71
   9  -1   0    1.31    1.24
  -9   1   0    1.61    1.53
   8  -1   0    1.38    0.70
   8  -1   0   -0.45    1.08
   8  -1   0    0.56    0.86
   8  -1   0    0.65    0.66
   8  -1   0   -0.49    0.96
  -8   1   0   -0.12    1.10
  -8   1   0   -0.43    1.09
   7  -1   0    3.89    1.12
   7  -1   0    3.38    0.72
   7  -1   0    2.36    0.65
   7  -1   0    1.49    0.74
   7  -1   0    2.38    1.04
   7  -1   0    2.22    0.74
   7  -1   0    1.82    0.91
  -7   1   0    0.49    1.03
  -7   1   0    4.63    1.44
   6  -1   0   30.31    2.07
   6  -1   0   26.61    1.78
   6  -1   0   24.71    1.88
   6  -1   0   27.25    1.77
   6  -1   0   27.63    1.82
   6  -1   0   23.97    1.95
   6  -1   0   27.78    2.00
   6  -1   0   25.61    1.96
   6  -1   0   26.84    1.75
   6  -1   0   33.20    3.12
   6  -1   0   25.57    1.89
  -6   1   0   26.59    2.46
  -6   1   0   29.82    2.14
   5  -1   0   58.55    3.86
   5  -1   0   61.70    3.58
   5  -1   0   62.39    3.49
   5  -1   0   60.60    3.70
   5  -1   0   68.79    3.67
   5  -1   0   62.15    3.67
   5  -1   0   67.13    3.48
   5  -1   0   61.65    3.52
   5  -1   0   69.60    3.59
  -5   1   0   64.43    3.52
  -5   1   0   65.51    4.00
  -5   1   0   61.23    3.73
   4  -1   0   98.99    5.38
   4  -1   0   97.82    5.42
   4  -1   0   95.19    5.35
   4  -1   0   96.20    5.43
   4  -1   0   93.64    5.28
   4  -1   0  104.66    5.51
   4  -1   0  104.43    5.46
   4  -1   0  101.00    5.36
   4  -1   0  104.37    5.66
   4  -1   0  106.17    5.34
  -4   1   0  105.16    5.53
  -4   1   0  110.07    5.38
  -4   1   0  100.78    5.69
   3  -1   0  124.10    6.23
   3  -1   0  125.42    6.19
   3  -1   0  118.43    6.22
   3  -1   0  115.69    6.17
   3  -1   0  117.53    6.14
   3  -1   0  109.85    6.14
   3  -1   0  123.47    6.27
   3  -1   0  120.10    6.40
   3  -1   0  111.00    6.19
  -3   1   0  116.86    6.18
  -3   1   0  123.48    6.29
  -3   1   0  119.32    6.42
   1  -1   0  245.95   12.31
  -1   1   0  271.29   12.38
  -1   1   0  213.89   12.30
  -1  -1   0   25.64    1.55
  -1  -1   0   23.99    1.43
  -1  -1   0   28.95    1.50
  -1  -1   0   28.13    1.40
  -1  -1   0   27.23    1.53
   1   1   0   27.06    1.48
   1   1   0   27.20    1.39
   1   1   0   30.45    1.49
   1   1   0   23.93    1.50
   1   1   0   23.88    1.49
   1   1   0   21.66    1.50
   1   1   0   27.05    1.50
  -3  -1   0   33.05    1.93
  -3  -1   0   29.14    1.79
   3   1   0   30.16    1.64
   3   1   0   30.70    1.91
   3   1   0   29.90    1.88
   3   1   0   31.40    1.86
   3   1   0   28.83    1.76
   3   1   0   29.84    1.64
   3   1   0   30.30    1.88
   3   1   0   30.55    1.95
  -4  -1   0   -0.27    0.34
  -4  -1   0   -0.03    0.58
  -4  -1   0    0.20    0.42
  -4  -1   0   -0.36    0.54
   4   1   0    0.05    0.29
   4   1   0   -0.13    0.50
   4   1   0   -0.19    0.52
   4   1   0   -1.55    1.18
   4   1   0   -0.02    0.27
   4   1   0    0.12    0.76
   4   1   0    0.45    0.47
   4   1   0    0.02    0.55
  -5  -1   0    0.37    0.73
  -5  -1   0   -0.16    0.47
  -5  -1   0   -0.11    0.40
  -5  -1   0   -0.23    0.69
   5   1   0    0.56    0.65
   5   1   0    0.37    0.39
   5   1   0   -0.61    0.54
   5   1   0    0.70    0.69
   5   1   0    0.50    0.35
   5   1   0   -0.34    0.83
   5   1   0    0.86    0.59
   5   1   0   -0.16    0.53
  -6  -1   0    1.47    0.95
  -6  -1   0    0.99    0.89
   6   1   0    1.02    0.69
   6   1   0    2.78    0.98
   6   1   0    1.23    0.78
   6   1   0   -0.01    0.93
   6   1   0    1.43    1.01
   6   1   0    1.39    0.49
   6   1   0    0.64    0.44
  -7  -1   0    8.54    1.48
  -7  -1   0    8.11    1.44
   7   1   0    7.43    1.28
   7   1   0    8.54    1.02
   7   1   0   10.89    2.47
   7   1   0    8.83    1.40
   7   1   0    8.47    1.04
  -8  -1   0    2.34    1.30
  -8  -1   0    3.54    1.01
   8   1   0    2.84    1.05
   8   1   0    1.24    0.74
   8   1   0    0.20    0.50
   8   1   0    2.55    1.20
  -9  -1   0    0.23    1.34
   9   1   0   -0.95    1.29
   9   1   0   -0.97    1.03
   9   1   0   -0.93    0.77
   9  -2   0    7.71    1.11
   9  -2   0   10.59    1.63
   9  -2   0    7.96    1.33
   9  -2   0    9.54    1.53
   9  -2   0    9.13    1.34
   9  -2   0   12.26    1.53
   8  -2   0   -0.30    0.80
   8  -2   0    0.20    0.52
   8  -2   0    0.65    0.91
   8  -2   0   -0.60    0.72
   8  -2   0    0.60    0.78
   8  -2   0   -0.17    0.62
   8  -2   0   -1.50    0.89
   7  -2   0   16.75    1.30
   7  -2   0   14.64    1.40
   7  -2   0   16.77    1.47
   7  -2   0   12.29    1.32
   7  -2   0   11.72    1.39
   7  -2   0   12.83    1.35
   7  -2   0   16.97    1.58
   7  -2   0   16.24    1.65
   7  -2   0   18.97    1.60
  -7   2   0   17.52    2.90
   6  -2   0    5.76    0.83
   6  -2   0    5.76    0.91
   6  -2   0    5.73    0.88
   6  -2   0    5.74    0.91
   6  -2   0    5.93    1.38
   6  -2   0    7.24    0.83
   6  -2   0    7.52    1.05
   6  -2   0    8.16    1.18
   6  -2   0    6.72    1.28
   6  -2   0    8.78    1.10
   6  -2   0    5.89    0.96
  -6   2   0    6.66    1.00
  -6   2   0    6.79    1.51
   5  -2   0    7.34    0.96
   5  -2   0    7.47    1.42
   5  -2   0    7.99    0.97
   5  -2   0    7.69    0.92
   5  -2   0    8.62    1.18
   5  -2   0    7.65    0.82
   5  -2   0   12.29    1.70
   5  -2   0    7.04    0.78
   5  -2   0    7.87    0.85
   5  -2   0    7.15    0.78
   5  -2   0    6.95    0.96
  -5   2   0    8.10    1.00
  -5   2   0    8.79    1.56
   4  -2   0  390.87   20.27
   4  -2   0  408.62   20.22
   4  -2   0  374.04   20.34
   4  -2   0  410.09   20.42
   4  -2   0  378.43   20.29
   4  -2   0  405.20   20.26
   4  -2   0  402.00   20.24
   4  -2   0  409.35   20.37
   4  -2   0  396.70   20.61
   4  -2   0  403.44   20.33
  -4   2   0  382.51   20.60
  -4   2   0  398.60   20.24
  -4   2   0  409.39   20.32
   3  -2   0  161.47    8.01
   3  -2   0  154.47    8.23
   3  -2   0  151.91    7.98
   3  -2   0  133.15    7.96
   3  -2   0  155.83    7.98
   3  -2   0  154.44    7.92
   3  -2   0  162.14    7.89
   3  -2   0  152.53    8.03
   3  -2   0  146.33    7.89
  -3   2   0  152.48    8.25
  -3   2   0  157.58    7.90
  -3   2   0  154.86    7.98
   2  -2   0  117.30    6.40
   2  -2   0  108.86    6.06
   2  -2   0  125.04    6.13
   2  -2   0  114.54    6.19
   2  -2   0  119.17    6.06
   2  -2   0  109.91    6.15
  -2   2   0  122.38    6.06
  -2   2   0  129.91    6.42
  -2   2   0  122.49    6.19
  -2   2   0  109.02    6.19
  -2   2   0  117.44    6.14
  -2   2   0  124.04    6.13
   1  -2   0   18.51    1.13
   1  -2   0   18.40    1.41
   1  -2   0   19.15    1.01
   1  -2   0   16.63    1.19
   1  -2   0   16.88    1.17
   1  -2   0   19.00    1.07
   1  -2   0   16.16    0.95
  -1   2   0   17.71    1.17
  -1   2   0   16.19    0.94
  -1   2   0   16.76    1.10
  -1   2   0   17.96    1.10
  -1   2   0   19.18    1.01
  -1   2   0   18.05    1.14
   0  -2   0   61.62    3.53
   0  -2   0   69.73    3.58
   0  -2   0   64.45    3.44
   0  -2   0   65.08    3.44
   0  -2   0   67.46    3.42
   0  -2   0   67.02    3.40
   0  -2   0   59.32    3.49
   0   2   0   61.57    3.47
   0   2   0   65.71    3.37
   0   2   0   60.16    3.49
   0   2   0   69.77    3.42
   0   2   0   66.58    3.47
   0   2   0   69.97    3.47
  -1  -2   0   10.16    0.75
  -1  -2   0   10.53    0.86
  -1  -2   0    8.46    0.72
  -1  -2   0    8.90    0.84
  -1  -2   0    8.97    0.80
  -1  -2   0   10.30    0.84
  -1  -2   0    9.56    0.66
   1   2   0    9.39    0.76
   1   2   0    9.32    0.71
   1   2   0    8.79    0.66
   1   2   0    8.99    0.78
   1   2   0    8.51    0.74
   1   2   0    9.18    0.80
  -2  -2   0  210.56    9.59
  -2  -2   0  171.53    9.56
  -2  -2   0  178.83    9.63
  -2  -2   0  180.74    9.44
  -2  -2   0  181.76    9.61
  -2  -2   0  175.26    9.53
   2   2   0  186.23    9.61
   2   2   0  177.73    9.56
   2   2   0  194.60    9.55
   2   2   0  206.50    9.63
   2   2   0  177.44    9.62
   2   2   0  186.40    9.44
   2   2   0  189.71    9.66
  -3  -2   0   98.25    5.77
  -3  -2   0   97.96    5.74
  -3  -2   0  108.78    5.89
  -3  -2   0  114.45    5.58
  -3  -2   0  105.18    5.75
   3   2   0  117.85    5.80
   3   2   0  106.39    5.86
   3   2   0  113.24    5.76
   3   2   0  123.36    5.89
   3   2   0  107.65    5.86
   3   2   0  110.30    5.91
  -4  -2   0   43.91    2.71
  -4  -2   0   55.87    3.03
  -4  -2   0   45.47    2.67
  -4  -2   0   41.66    2.69
   4   2   0   46.99    2.45
   4   2   0   47.38    2.86
   4   2   0   47.58    2.87
   4   2   0   45.72    2.81
   4   2   0   50.17    2.82
   4   2   0   47.21    2.59
   4   2   0   48.69    2.72
   4   2   0   47.99    2.89
   4   2   0   42.57    2.73
  -5  -2   0   -0.90    0.67
  -5  -2   0    0.04    0.66
  -5  -2   0    1.46    0.62
  -5  -2   0   -0.41    0.42
   5   2   0   -0.88    0.65
   5   2   0   -0.78    0.84
   5   2   0    0.16    0.58
   5   2   0    1.09    0.75
   5   2   0   -0.26    0.61
   5   2   0    0.33    0.59
   5   2   0    0.14    0.24
   5   2   0   -0.49    0.60
  -6  -2   0   -0.11    0.92
  -6  -2   0    0.02    0.81
  -6  -2   0    0.41    0.50
   6   2   0   -1.14    0.74
   6   2   0    0.67    0.86
   6   2   0    0.35    0.24
   6   2   0   -0.62    0.87
   6   2   0   -0.02    0.65
  -7  -2   0    6.17    1.34
  -7  -2   0    6.47    1.10
   7   2   0    6.16    1.36
   7   2   0    4.66    1.23
   7   2   0    5.78    1.17
  -8  -2   0    5.68    1.61
   8   2   0    5.32    1.16
   8   2   0    7.84    1.47
   8   2   0    7.12    1.56
  -9  -2   0    1.62    1.32
   9   2   0    1.71    1.35
   9   2   0    0.38    0.95
   9   2   0    2.54    1.99
   9  -3   0    7.41    1.38
   9  -3   0    6.54    1.83
   9  -3   0    5.81    1.66
   9  -3   0    5.90    1.01
   9  -3   0    5.15    1.25
   9  -3   0    6.48    1.32
   8  -3   0   12.19    1.22
   8  -3   0   11.62    1.64
   8  -3   0   12.24    1.54
   8  -3   0   11.41    1.31
   8  -3   0   14.63    1.56
   8  -3   0   13.21    1.57
   7  -3   0   20.80    1.47
   7  -3   0   18.68    1.48
   7  -3   0   19.37    1.78
   7  -3   0   19.49    2.48
   7  -3   0   17.96    1.53
   7  -3   0   21.04    1.82
   7  -3   0   19.15    1.58
  -7   3   0   20.97    1.88
  -7   3   0   20.87    2.54
   6  -3   0   21.88    2.37
   6  -3   0   14.51    1.26
   6  -3   0   17.09    1.47
   6  -3   0   17.41    1.61
   6  -3   0   16.19    1.25
   6  -3   0   15.48    1.38
   6  -3   0   17.13    1.73
   6  -3   0   14.99    1.30
   6  -3   0   13.12    1.38
  -6   3   0   19.94    2.34
  -6   3   0   13.51    1.41
   5  -3   0    3.19    0.88
   5  -3   0    2.94    0.76
   5  -3   0    3.98    0.60
   5  -3   0    5.01    0.77
   5  -3   0    3.47    0.80
   5  -3   0    2.71    0.61
   5  -3   0    3.67    0.86
   5  -3   0    2.67    0.60
   5  -3   0    3.65    0.63
   5  -3   0    3.12    1.06
  -5   3   0    4.11    0.85
  -5   3   0    3.96    1.26
  -5   3   0    2.66    0.65
   4  -3   0    3.56    0.74
   4  -3   0    4.27    0.79
   4  -3   0    2.79    0.54
   4  -3   0    3.27    0.55
   4  -3   0    3.91    0.71
   4  -3   0    3.84    0.50
   4  -3   0    4.18    0.60
   4  -3   0    4.42    1.09
   4  -3   0    3.57    0.77
  -4   3   0    3.76    1.10
  -4   3   0    2.88    0.56
   3  -3   0    3.93    0.59
   3  -3   0    4.97    1.03
   3  -3   0    3.89    0.76
   3  -3   0    5.43    0.80
   3  -3   0    5.49    0.72
   3  -3   0    6.67    0.83
   3  -3   0    4.19    0.55
   3  -3   0    3.62    0.51
   3  -3   0    4.16    0.57
  -3   3   0    4.34    0.61
  -3   3   0    4.05    0.61
  -3   3   0    5.36    0.64
  -3   3   0    5.49    1.15
  -3   3   0    5.01    0.81
   2  -3   0  538.43   27.07
   2  -3   0  529.08   27.14
   2  -3   0  539.49   26.96
   2  -3   0  544.85   27.35
  -2   3   0  503.38   27.12
  -2   3   0  523.66   27.13
  -2   3   0  542.18   27.08
  -2   3   0  547.65   27.10
   1  -3   0   29.45    1.63
   1  -3   0   29.76    1.74
   1  -3   0   31.25    1.55
   1  -3   0   31.06    1.85
   1  -3   0   32.46    1.80
   1  -3   0   28.84    1.79
   1  -3   0   27.79    1.98
  -1   3   0   29.87    1.78
  -1   3   0   25.55    1.77
  -1   3   0   30.29    1.80
  -1   3   0   25.24    1.53
  -1   3   0   31.58    1.77
  -1   3   0   30.40    1.65
   0  -3   0    2.82    0.64
   0  -3   0    5.21    0.71
   0  -3   0    3.53    0.56
   0  -3   0    3.11    0.46
   0  -3   0    3.08    0.41
   0  -3   0    4.26    0.62
   0  -3   0    4.52    0.66
   0  -3   0    3.20    0.70
   0   3   0    4.66    0.63
   0   3   0    3.46    0.42
   0   3   0    3.68    0.58
   0   3   0    5.59    0.92
   0   3   0    3.61    0.52
   0   3   0    2.98    0.60
  -1  -3   0  313.07   16.14
  -1  -3   0  312.34   16.04
  -1  -3   0  362.71   16.17
  -1  -3   0  282.57   16.04
  -1  -3   0  309.46   16.08
  -1  -3   0  315.00   16.16
  -1  -3   0  305.71   16.01
   1   3   0  323.85   16.16
   1   3   0  312.29   16.10
   1   3   0  315.34   16.05
   1   3   0  311.25   16.13
   1   3   0  304.14   16.07
   1   3   0  314.53   16.09
   1   3   0  325.00   16.02
  -2  -3   0    5.17    0.69
  -2  -3   0    3.77    0.79
  -2  -3   0    7.40    1.13
  -2  -3   0    4.66    0.64
  -2  -3   0    5.07    0.59
  -2  -3   0    4.52    0.79
  -2  -3   0    4.14    0.69
   2   3   0    4.76    0.72
   2   3   0    4.03    0.67
   2   3   0    5.03    0.73
   2   3   0    5.50    0.81
   2   3   0    5.90    0.76
   2   3   0    4.63    0.70
  -3  -3   0    1.34    0.51
  -3  -3   0    0.99    0.49
  -3  -3   0   -0.01    0.61
  -3  -3   0    0.82    0.30
  -3  -3   0   -0.28    0.58
   3   3   0    0.87    0.30
   3   3   0    0.57    0.60
   3   3   0    0.57    0.56
   3   3   0   -1.03    0.67
   3   3   0    1.00    0.57
   3   3   0    0.44    0.55
   3   3   0    1.17    0.46
   3   3   0    0.69    0.59
  -4  -3   0    3.96    0.67
  -4  -3   0    2.25    0.69
  -4  -3   0    3.33    0.88
  -4  -3   0    3.39    0.69
   4   3   0    2.96    0.81
   4   3   0    4.03    0.79
   4   3   0    3.07    0.84
   4   3   0    1.57    0.94
   4   3   0    4.53    0.85
   4   3   0    3.65    0.82
   4   3   0    4.46    0.83
  -5  -3   0    0.64    0.88
  -5  -3   0    1.25    0.64
  -5  -3   0    0.99    0.63
   5   3   0    2.04    1.03
   5   3   0    0.83    0.73
   5   3   0    0.04    0.72
   5   3   0    1.37    0.89
   5   3   0    2.66    1.92
  -6  -3   0    1.09    0.61
  -6  -3   0    0.12    0.96
   6   3   0   -0.56    0.74
   6   3   0    0.68    0.96
   6   3   0    0.96    1.06
   6   3   0   -0.28    0.73
   7   3   0    0.53    1.06
   7   3   0    0.00    0.77
   7   3   0    1.22    1.12
  -8  -3   0   10.81    1.78
   8   3   0   12.02    1.75
   8   3   0   10.45    1.43
   8   3   0    7.69    1.57
   9  -4   0   14.32    1.59
   9  -4   0   14.50    1.76
   9  -4   0   10.23    1.65
   9  -4   0   13.63    2.54
   9  -4   0   10.87    1.37
   9  -4   0   12.70    1.67
   9  -4   0   10.95    1.32
   8  -4   0    0.63    1.59
   8  -4   0   -0.93    0.68
   8  -4   0    0.55    0.86
   8  -4   0    0.09    0.66
   8  -4   0   -0.59    0.83
   8  -4   0    3.19    1.12
   8  -4   0    0.81    0.84
   7  -4   0   17.76    1.82
   7  -4   0   17.17    1.40
   7  -4   0   16.79    1.62
   7  -4   0   16.87    1.36
   7  -4   0   16.29    1.40
   7  -4   0   19.62    1.44
  -7   4   0   17.54    1.67
   6  -4   0   55.71    3.43
   6  -4   0   54.80    2.93
   6  -4   0   49.42    2.97
   6  -4   0   47.30    3.05
   6  -4   0   46.33    3.46
   6  -4   0   54.78    3.11
   6  -4   0   54.55    3.34
  -6   4   0   48.00    3.00
   5  -4   0    0.51    0.47
   5  -4   0    0.11    0.57
   5  -4   0   -0.15    0.38
   5  -4   0    0.01    0.70
   5  -4   0    0.06    0.64
   5  -4   0    0.23    0.43
   5  -4   0    1.86    1.20
   5  -4   0    0.27    0.51
   5  -4   0   -0.10    0.63
  -5   4   0   -0.20    0.55
  -5   4   0    0.22    0.71
   4  -4   0   29.02    2.19
   4  -4   0   29.72    2.40
   4  -4   0   27.88    1.82
   4  -4   0   32.53    2.06
   4  -4   0   26.35    1.65
   4  -4   0   27.01    1.68
   4  -4   0   27.59    1.70
   4  -4   0   28.29    1.99
   4  -4   0   25.67    2.07
  -4   4   0   30.95    1.85
  -4   4   0   28.34    1.97
  -4   4   0   27.08    1.80
  -4   4   0   26.70    1.64
   3  -4   0   13.02    1.27
   3  -4   0   14.50    0.93
   3  -4   0   14.48    1.69
   3  -4   0   14.85    1.12
   3  -4   0   16.32    1.22
   3  -4   0   11.83    0.97
   3  -4   0   16.33    1.30
   3  -4   0   15.47    0.95
  -3   4   0   15.83    1.15
  -3   4   0   14.52    1.20
  -3   4   0   14.60    1.17
  -3   4   0   15.33    1.21
  -3   4   0   13.83    0.97
   2  -4   0   -0.18    0.31
   2  -4   0   -0.59    0.93
   2  -4   0   -0.62    0.54
   2  -4   0    0.18    0.29
   2  -4   0   -0.17    0.47
   2  -4   0   -0.27    0.53
   2  -4   0   -1.04    0.76
  -2   4   0    0.12    0.49
  -2   4   0    0.01    0.40
  -2   4   0    0.17    0.61
  -2   4   0    0.56    0.48
  -2   4   0   -0.11    0.49
   1  -4   0  385.96   21.40
   1  -4   0  414.94   21.19
   1  -4   0  437.36   21.33
   1  -4   0  432.76   21.57
   1  -4   0  412.89   21.34
   1  -4   0  436.95   21.36
   1  -4   0  435.96   21.54
  -1   4   0  438.72   21.22
  -1   4   0  430.12   21.34
  -1   4   0  369.43   21.08
  -1   4   0  415.03   21.34
  -1   4   0  406.27   21.33
  -1   4   0  416.72   21.39
   0  -4   0  136.65    6.49
   0  -4   0  123.25    6.50
   0  -4   0  127.54    6.62
   0  -4   0  105.39    6.40
   0  -4   0  132.06    6.43
   0  -4   0  112.61    6.35
   0  -4   0  123.72    6.57
   0  -4   0  121.39    6.63
   0   4   0  124.49    6.49
   0   4   0  117.01    6.46
   0   4   0  123.66    6.39
   0   4   0  116.58    6.51
   0   4   0  118.19    6.30
   0   4   0  126.05    6.44
  -1  -4   0   10.90    0.94
  -1  -4   0   11.36    0.90
  -1  -4   0   10.42    1.22
  -1  -4   0    8.11    0.88
  -1  -4   0   11.61    1.18
  -1  -4   0    9.23    1.04
  -1  -4   0   10.37    0.89
   1   4   0   11.03    0.95
   1   4   0   10.11    0.90
   1   4   0   11.14    1.09
   1   4   0   12.36    0.97
   1   4   0   11.87    1.10
   1   4   0   10.57    1.05
  -2  -4   0    2.75    0.62
  -2  -4   0    4.86    0.96
  -2  -4   0    4.73    1.37
  -2  -4   0    3.33    0.80
  -2  -4   0    3.37    0.61
  -2  -4   0    4.29    0.65
   2   4   0    3.52    0.81
   2   4   0    3.46    0.78
   2   4   0    3.84    0.59
   2   4   0    3.55    0.76
   2   4   0    3.96    0.89
   2   4   0    3.88    0.89
   2   4   0    4.19    0.72
  -3  -4   0   17.77    1.55
  -3  -4   0   14.45    1.73
  -3  -4   0   15.23    1.31
  -3  -4   0   17.99    1.16
  -3  -4   0   18.60    1.41
   3   4   0   17.89    1.49
   3   4   0   18.28    1.33
   3   4   0   21.82    1.57
   3   4   0   16.73    1.42
   3   4   0   17.58    1.57
   3   4   0   19.98    1.53
   3   4   0   18.87    1.16
   3   4   0   18.43    1.46
  -4  -4   0   21.00    1.84
  -4  -4   0   20.82    1.64
  -4  -4   0   22.87    1.60
  -4  -4   0   21.91    1.23
   4   4   0   24.20    1.80
   4   4   0   17.91    1.75
   4   4   0   21.96    1.87
   4   4   0   18.76    1.69
   4   4   0   23.73    1.49
   4   4   0   20.38    1.67
   4   4   0   20.17    1.23
  -5  -4   0    0.64    0.78
   5   4   0   -0.47    0.86
   5   4   0   -0.18    0.88
   5   4   0   -1.13    0.98
  -6  -4   0   -0.65    0.94
   6   4   0   -0.98    0.75
   6   4   0   -0.54    0.96
   6   4   0    0.73    0.51
   6   4   0   -1.14    0.98
  -7  -4   0    5.47    1.56
   7   4   0    4.16    1.33
   7   4   0    6.30    1.51
   7   4   0    3.74    1.30
  -8  -4   0    3.22    1.40
   8   4   0    0.82    0.94
   8   4   0   -0.29    1.97
   8   4   0   -1.61    2.04
   9  -5   0    0.34    0.82
   9  -5   0    1.44    1.30
   9  -5   0    3.32    2.03
   9  -5   0    0.62    0.99
   9  -5   0    3.80    1.43
   9  -5   0    0.72    0.83
   8  -5   0   -0.16    1.00
   8  -5   0    0.87    0.62
   8  -5   0    0.22    0.72
   8  -5   0    2.01    0.62
   8  -5   0    0.29    0.71
   8  -5   0   -0.98    1.65
   8  -5   0    0.69    0.92
  -8   5   0   -0.13    1.01
   7  -5   0    7.02    0.89
   7  -5   0   11.55    2.18
   7  -5   0    7.62    1.41
   7  -5   0    8.68    1.03
   7  -5   0    4.80    1.16
   7  -5   0    7.01    1.03
  -7   5   0    8.21    1.39
  -7   5   0    6.93    1.76
   6  -5   0    0.42    0.50
   6  -5   0    0.42    0.44
   6  -5   0   -0.62    0.83
   6  -5   0   -0.75    0.79
   6  -5   0    0.00    0.47
   6  -5   0    0.20    1.60
   6  -5   0   -0.19    0.59
  -6   5   0   -0.53    0.82
  -6   5   0   -0.08    0.57
   5  -5   0    6.85    0.65
   5  -5   0    8.00    1.23
   5  -5   0    6.24    0.80
   5  -5   0    5.98    1.05
   5  -5   0    4.37    0.69
   5  -5   0    6.24    0.79
   5  -5   0    9.05    2.01
   5  -5   0    5.22    0.89
  -5   5   0    6.61    1.23
  -5   5   0    7.35    1.01
  -5   5   0    5.93    0.99
   4  -5   0   12.94    1.67
   4  -5   0   11.99    1.26
   4  -5   0   14.49    1.45
   4  -5   0   13.35    0.91
   4  -5   0   12.20    0.91
   4  -5   0   10.68    0.90
  -4   5   0   11.67    1.36
  -4   5   0   12.47    0.91
  -4   5   0   14.81    1.23
  -4   5   0   13.78    1.21
   3  -5   0   49.76    3.44
   3  -5   0   47.89    2.59
   3  -5   0   48.95    2.90
   3  -5   0   54.04    3.24
   3  -5   0   47.45    2.68
   3  -5   0   52.13    3.45
   3  -5   0   48.08    2.62
   3  -5   0   54.50    3.15
   3  -5   0   48.16    3.03
  -3   5   0   43.42    2.95
  -3   5   0   48.88    2.69
  -3   5   0   52.38    2.97
  -3   5   0   50.57    3.03
  -3   5   0   49.58    2.93
   2  -5   0   47.08    2.60
   2  -5   0   47.01    3.02
   2  -5   0   47.41    2.85
   2  -5   0   48.28    2.98
   2  -5   0   45.15    2.79
   2  -5   0   47.37    3.23
   2  -5   0   44.98    3.17
  -2   5   0   48.17    2.81
  -2   5   0   50.93    2.85
  -2   5   0   47.62    2.62
  -2   5   0   49.30    2.90
   1  -5   0   54.80    4.53
   1  -5   0   65.23    3.95
   1  -5   0   59.73    3.44
   1  -5   0   64.40    3.60
   1  -5   0   64.09    3.66
   1  -5   0   68.01    3.79
   1  -5   0   62.97    3.64
  -1   5   0   68.97    3.68
  -1   5   0   67.71    3.82
  -1   5   0   69.06    3.51
  -1   5   0   65.36    3.66
  -1   5   0   60.71    3.68
  -1   5   0   59.50    3.29
   0  -5   0   11.31    0.95
   0  -5   0   11.35    1.09
   0  -5   0   11.97    1.25
   0  -5   0    9.20    1.40
   0  -5   0    8.83    1.31
   0  -5   0    9.98    0.87
   0  -5   0   11.81    1.12
   0  -5   0    9.62    0.77
   0   5   0   11.11    0.97
   0   5   0   11.77    1.17
   0   5   0   10.79    0.80
   0   5   0    9.98    1.00
   0   5   0    9.54    1.10
   0   5   0   10.23    1.09
  -1  -5   0   18.73    1.68
  -1  -5   0   16.52    1.47
  -1  -5   0   17.95    1.45
  -1  -5   0   15.68    1.29
  -1  -5   0   19.60    1.65
  -1  -5   0   17.21    1.33
  -1  -5   0   17.40    1.59
   1   5   0   21.06    1.80
   1   5   0   16.78    1.47
   1   5   0   19.40    1.30
   1   5   0   17.94    1.47
   1   5   0   21.03    1.44
   1   5   0   18.06    1.37
  -2  -5   0    1.63    0.56
  -2  -5   0    1.30    0.85
  -2  -5   0    0.43    0.68
  -2  -5   0    1.81    0.85
  -2  -5   0    1.17    0.63
  -2  -5   0    1.51    0.82
   2   5   0    0.07    0.67
   2   5   0    0.44    0.55
   2   5   0    0.65    0.58
   2   5   0    1.22    0.62
   2   5   0    0.92    0.75
   2   5   0    1.65    0.72
   2   5   0    1.27    0.54
  -3  -5   0    2.61    0.59
  -3  -5   0    3.35    0.82
  -3  -5   0    0.84    0.90
   3   5   0    1.23    0.83
   3   5   0    2.44    0.57
   3   5   0    2.38    0.89
   3   5   0    1.24    0.91
   3   5   0    2.44    0.99
   3   5   0    1.34    0.86
  -4  -5   0    5.30    0.88
  -4  -5   0    4.90    1.23
   4   5   0    4.20    1.10
   4   5   0    6.01    1.12
   4   5   0    6.02    1.54
  -5  -5   0    0.00    0.95
   5   5   0    1.52    0.95
   5   5   0   -0.13    0.96
   5   5   0   -0.18    1.03
  -6  -5   0    0.55    1.11
   6   5   0    2.28    1.26
   6   5   0    0.92    1.07
   6   5   0    1.12    0.97
  -7  -5   0    2.07    1.27
   7   5   0    5.11    1.45
   7   5   0    2.43    1.11
   7   5   0    1.24    1.21
   8  -6   0    2.19    1.86
   8  -6   0    2.05    1.05
   8  -6   0    4.46    1.41
  -8   6   0    2.77    1.06
   7  -6   0    2.45    1.12
   7  -6   0    3.13    0.75
   7  -6   0    3.30    1.25
   7  -6   0    8.49    2.18
   7  -6   0    4.69    0.69
   7  -6   0    3.03    0.63
  -7   6   0    3.62    1.21
  -7   6   0    3.93    0.88
   6  -6   0    1.43    0.46
   6  -6   0    0.41    0.47
   6  -6   0    1.36    1.00
   6  -6   0    1.38    0.48
   6  -6   0    0.70    0.85
   6  -6   0    1.02    1.47
  -6   6   0    0.11    0.66
  -6   6   0    1.29    0.96
   5  -6   0    6.05    1.83
   5  -6   0    2.54    0.49
   5  -6   0    4.65    1.18
   5  -6   0    2.59    1.21
  -5   6   0    3.63    1.10
  -5   6   0    4.28    0.94
   4  -6   0    2.14    0.50
   4  -6   0    2.18    0.29
   4  -6   0    1.66    0.41
   4  -6   0    3.29    1.50
   4  -6   0    1.80    0.81
   4  -6   0    2.87    1.01
  -4   6   0    1.76    0.66
  -4   6   0    0.79    0.92
  -4   6   0    1.62    0.78
  -4   6   0    1.34    0.43
   3  -6   0    9.53    1.25
   3  -6   0    7.03    1.02
   3  -6   0    8.07    1.95
  -3   6   0    7.42    1.09
  -3   6   0    7.25    0.98
  -3   6   0    8.16    0.73
   2  -6   0    0.61    0.83
   2  -6   0    1.31    0.77
   2  -6   0    0.97    0.42
   2  -6   0    1.08    0.71
   2  -6   0    0.39    0.49
   2  -6   0   -0.87    0.94
   2  -6   0    0.32    0.97
  -2   6   0    0.53    0.65
  -2   6   0    0.17    0.79
  -2   6   0    0.71    0.46
  -2   6   0    1.24    0.73
   1  -6   0   14.75    1.11
   1  -6   0   14.17    1.22
   1  -6   0   14.92    1.80
   1  -6   0   15.49    1.36
   1  -6   0   16.32    1.43
   1  -6   0   17.38    1.61
   1  -6   0   13.40    2.40
  -1   6   0   14.37    1.41
  -1   6   0   15.55    1.42
  -1   6   0   14.68    1.18
  -1   6   0   14.75    1.38
  -1   6   0   14.03    0.87
  -1   6   0   16.39    1.32
   0  -6   0   38.35    2.42
   0  -6   0   29.84    2.25
   0  -6   0   33.74    2.56
   0  -6   0   30.88    2.22
   0  -6   0   33.12    2.50
   0  -6   0   32.93    2.30
   0  -6   0   31.80    1.98
   0   6   0   33.94    2.27
   0   6   0   29.24    1.86
   0   6   0   29.90    2.24
   0   6   0   31.94    2.09
   0   6   0   30.62    2.21
   0   6   0   32.30    2.14
  -1  -6   0    8.34    1.06
  -1  -6   0   11.21    1.27
  -1  -6   0   10.23    1.56
  -1  -6   0    9.88    1.25
  -1  -6   0   11.52    1.49
  -1  -6   0    8.13    1.45
   1   6   0    6.77    1.03
   1   6   0   10.35    1.18
   1   6   0    9.09    0.95
   1   6   0   10.08    1.05
   1   6   0    8.11    1.21
  -2  -6   0    3.29    1.00
  -2  -6   0    5.20    2.03
  -2  -6   0    3.33    0.83
  -2  -6   0    4.77    1.03
  -2  -6   0    4.09    1.10
  -2  -6   0    4.64    0.79
   2   6   0    3.07    0.99
   2   6   0    4.43    0.82
   2   6   0    4.57    0.82
   2   6   0    4.19    1.06
   2   6   0    2.25    0.97
  -3  -6   0   19.57    2.02
  -3  -6   0   16.71    1.39
   3   6   0   23.81    1.89
   3   6   0   20.76    1.80
   3   6   0   20.55    1.88
   3   6   0   20.76    1.71
   3   6   0   21.80    1.48
  -4  -6   0    0.55    0.38
  -4  -6   0    0.07    0.95
   4   6   0    1.09    1.02
   4   6   0    1.70    1.06
   4   6   0    1.01    1.29
   4   6   0    1.74    0.50
  -5  -6   0    5.62    1.39
   5   6   0    4.01    1.28
   5   6   0    6.09    1.26
  -6  -6   0   -1.06    1.03
   6   6   0   -1.62    1.07
   6   6   0    0.39    1.06
   6   6   0   -0.57    1.15
  -7  -6   0    2.18    1.46
   7   6   0    8.22    2.59
   7   6   0    3.34    1.43
   7   6   0   -0.07    1.21
   8  -7   0    5.81    1.35
   8  -7   0    7.31    1.66
   8  -7   0    6.65    1.52
  -8   7   0    9.86    1.35
   7  -7   0   16.66    2.82
   7  -7   0   13.85    1.08
   7  -7   0   13.38    1.93
   7  -7   0   14.01    1.90
  -7   7   0   14.78    1.46
  -7   7   0   16.15    1.90
   6  -7   0    1.35    0.44
   6  -7   0    1.37    0.51
   6  -7   0    2.68    1.52
   6  -7   0    1.54    1.20
  -6   7   0    1.11    0.78
  -6   7   0    0.21    1.03
   5  -7   0   -0.33    0.77
   5  -7   0    0.93    1.41
   5  -7   0    0.12    0.43
   5  -7   0    0.16    0.95
  -5   7   0   -0.50    0.77
  -5   7   0   -0.32    0.98
   4  -7   0    1.24    0.58
   4  -7   0    0.23    1.46
  -4   7   0    0.60    0.77
  -4   7   0    0.45    0.18
   3  -7   0    3.25    0.53
   3  -7   0    2.55    0.94
   3  -7   0    2.51    0.98
   3  -7   0    2.28    1.39
  -3   7   0    2.22    1.03
  -3   7   0    2.46    0.91
  -3   7   0    2.40    0.52
   2  -7   0    8.92    1.47
   2  -7   0   12.89    1.94
   2  -7   0   10.61    1.32
   2  -7   0    9.29    0.87
  -2   7   0    8.69    1.27
  -2   7   0   11.82    1.58
  -2   7   0    8.53    0.90
  -2   7   0    8.18    1.12
   1  -7   0   81.52    4.58
   1  -7   0   69.49    4.17
   1  -7   0   77.70    4.94
   1  -7   0   80.02    4.71
  -1   7   0   71.98    4.69
  -1   7   0   76.46    4.46
  -1   7   0   78.82    4.27
   0  -7   0    1.24    0.85
   0  -7   0    1.06    0.80
   0  -7   0    1.18    1.08
   0  -7   0    1.30    0.71
   0  -7   0    0.12    0.96
   0  -7   0    1.05    1.08
   0   7   0    0.89    0.71
   0   7   0    0.94    0.83
   0   7   0    1.60    0.78
   0   7   0   -0.27    0.43
  -1  -7   0    2.83    0.95
  -1  -7   0    1.74    1.21
  -1  -7   0    5.43    1.40
  -1  -7   0    4.30    1.13
  -1  -7   0    4.64    0.83
  -1  -7   0    2.81    0.85
   1   7   0    3.34    1.09
   1   7   0    2.30    0.57
   1   7   0    3.19    0.89
   1   7   0    3.14    0.98
  -2  -7   0    0.23    0.82
  -2  -7   0    0.54    1.06
  -2  -7   0    1.13    1.74
   2   7   0    0.78    0.70
   2   7   0    0.14    1.21
   2   7   0    0.65    0.74
   2   7   0    1.27    0.82
   2   7   0    1.41    0.89
  -3  -7   0   -0.66    0.31
  -3  -7   0    0.04    1.23
   3   7   0    0.34    0.78
   3   7   0   -0.60    0.93
   3   7   0    0.61    0.98
  -4  -7   0    0.02    1.06
   4   7   0    0.27    0.51
   4   7   0    0.58    1.04
   4   7   0   -0.11    0.78
  -5  -7   0   -1.20    1.04
   5   7   0    0.77    1.17
   5   7   0    1.37    1.24
   5   7   0    2.83    1.36
  -6  -7   0    2.65    1.35
   6   7   0   10.09    1.73
   6   7   0    5.66    1.41
   6   7   0    2.31    1.79
   7  -8   0    8.64    1.69
   7  -8   0    9.51    1.86
   7  -8   0   13.43    2.55
  -7   8   0   12.41    1.82
  -7   8   0    9.07    1.35
   6  -8   0    0.72    1.19
   6  -8   0    0.65    1.44
   6  -8   0   -0.20    1.03
  -6   8   0   -0.06    0.77
  -6   8   0    2.61    1.27
   5  -8   0   -0.86    1.34
   5  -8   0    0.34    0.86
  -5   8   0   -0.15    1.02
  -5   8   0   -0.32    0.73
   4  -8   0   -0.04    1.30
   4  -8   0   -0.14    0.92
   4  -8   0   -0.18    0.97
  -4   8   0   -1.08    0.92
  -4   8   0    0.47    0.18
  -4   8   0   -0.11    0.75
   3  -8   0    7.72    1.35
   3  -8   0    7.93    1.58
   3  -8   0   13.19    2.14
   3  -8   0    8.75    0.81
  -3   8   0   10.06    1.55
  -3   8   0    9.64    1.34
   2  -8   0    0.35    1.09
   2  -8   0    0.27    1.07
   2  -8   0    3.98    0.61
   2  -8   0    2.48    0.93
  -2   8   0    2.54    0.83
  -2   8   0    1.06    0.54
   1  -8   0    0.88    0.83
   1  -8   0    1.38    1.15
   1  -8   0    0.92    1.17
   1  -8   0    2.72    0.92
  -1   8   0    1.60    0.96
  -1   8   0    3.84    0.83
  -1   8   0    2.02    0.84
   0  -8   0   38.98    2.41
   0  -8   0   40.55    2.81
   0  -8   0   34.67    2.96
   0   8   0   38.71    2.65
   0   8   0   39.63    2.59
   0   8   0   38.98    2.81
  -1  -8   0   25.95    2.68
  -1  -8   0   31.88    2.81
  -1  -8   0   25.85    2.17
   1   8   0   33.05    2.49
   1   8   0   36.49    2.47
   1   8   0   34.67    2.32
  -2  -8   0   21.10    2.02
  -2  -8   0   23.04    2.31
  -2  -8   0   17.85    1.63
   2   8   0   19.68    1.95
   2   8   0   23.98    2.12
   2   8   0   21.91    1.74
  -3  -8   0    0.26    1.12
   3   8   0   -0.54    1.14
   3   8   0    0.23    0.87
   3   8   0   -0.51    1.05
   4   8   0    0.59    1.25
   4   8   0    6.31    1.41
   4   8   0    0.35    0.97
  -5  -8   0    4.75    1.42
   5   8   0    5.71    1.37
   5   8   0    2.25    2.18
   6  -9   0    0.35    1.40
   6  -9   0   -1.08    1.12
  -6   9   0   -0.19    1.11
   5  -9   0   24.81    3.25
   5  -9   0   15.89    2.34
   5  -9   0   17.44    2.04
  -5   9   0   23.24    2.02
   4  -9   0    1.35    1.21
   4  -9   0    0.15    0.99
   4  -9   0    0.70    1.37
  -4   9   0    0.34    0.24
  -4   9   0    3.26    1.06
  -4   9   0    0.71    1.15
   3  -9   0    1.41    0.43
   3  -9   0    1.16    1.23
   3  -9   0    3.26    1.40
   3  -9   0    0.38    0.92
  -3   9   0    1.15    0.27
  -3   9   0    0.13    1.07
  -3   9   0    0.39    0.92
   2  -9   0    3.23    1.40
   2  -9   0    1.62    1.21
   2  -9   0    5.06    1.56
  -2   9   0    4.14    1.20
  -2   9   0    3.87    1.20
   1  -9   0   10.81    1.92
   1  -9   0   11.86    1.55
  -1   9   0   11.21    1.40
  -1   9   0   12.34    1.69
   0  -9   0    0.16    1.38
   0  -9   0    0.56    1.28
   0  -9   0    1.32    0.98
   0   9   0    0.99    0.23
   0   9   0    0.66    0.74
   0   9   0   -0.52    0.96
  -1  -9   0    1.33    1.34
  -1  -9   0    2.52    1.47
   1   9   0    5.07    1.08
   1   9   0    2.89    1.07
   1   9   0    3.88    1.29
  -2  -9   0    0.84    0.99
  -2  -9   0    0.72    1.38
   2   9   0    1.58    0.48
   2   9   0    3.10    1.32
   2   9   0    0.91    1.04
   2   9   0    1.64    0.90
  -3  -9   0    4.26    1.66
   3   9   0    3.78    1.23
   4 -10   0   -1.80    1.26
   4 -10   0    1.26    1.06
   4 -10   0    0.22    1.67
  -4  10   0    2.28    1.31
   3 -10   0   28.51    2.52
   3 -10   0   28.39    2.95
  -3  10   0   34.65    2.78
   2 -10   0    1.96    1.02
   2 -10   0    1.13    1.43
  -2  10   0    0.69    0.39
  -2  10   0    3.68    1.31
  -2  10   0    1.92    1.30
   1 -10   0    4.58    1.17
  -1  10   0    5.98    1.45
   0 -10   0   -1.11    1.38
   0 -10   0    3.30    1.14
   0  10   0   -0.48    0.58
   0  10   0    0.95    1.10
   0  10   0   -0.54    1.01
  -1 -10   0    8.24    2.47
  -1 -10   0   12.07    1.79
   1  10   0    8.40    1.68
   1  10   0    4.78    1.25
   1  10  -1   -0.23    0.85
   1  10  -1    0.63    1.18
   1  10  -1    1.23    0.97
  -1 -10   1   -0.64    0.80
  -1 -10   1    0.20    0.96
  -1 -10   1    2.07    2.78
   0  10  -1    0.28    1.87
   0  10  -1    2.41    1.17
   0  10  -1   -0.89    0.40
   0 -10   1   -0.68    1.31
   0 -10   1    1.26    0.97
   0 -10   1   -1.00    1.39
  -1  10  -1    7.25    1.50
  -1  10  -1    3.85    1.40
   1 -10   1    4.36    1.19
   1 -10   1    3.51    1.73
  -2  10  -1    0.97    1.03
  -2  10  -1    1.02    1.07
   2 -10   1    0.50    1.08
   2 -10   1   -0.65    1.31
  -3  10  -1    8.68    1.52
   3 -10   1    7.54    1.62
   3 -10   1    8.41    1.96
  -4  10  -1    0.37    1.21
  -4  10  -1    2.99    1.11
   4 -10   1   -0.59    1.13
   4 -10   1   -1.11    1.26
   4 -10   1   -0.37    1.30
   3   9  -1    0.38    1.10
   3   9  -1   -0.36    1.56
   3   9  -1    1.82    0.85
  -3  -9   1   -0.45    1.17
   2   9  -1    3.50    1.18
   2   9  -1    0.64    1.17
   2   9  -1    3.56    1.00
  -2  -9   1    1.89    1.07
  -2  -9   1    5.11    1.66
   1   9  -1   -0.06    0.46
   1   9  -1    1.32    0.89
   1   9  -1    2.40    1.23
  -1  -9   1   -1.18    1.15
  -1  -9   1    0.88    1.33
  -1  -9   1    1.77    1.13
   0   9  -1    0.81    0.79
   0   9  -1    3.03    1.10
   0   9  -1    0.64    1.02
   0  -9   1   -0.02    1.18
   0  -9   1    1.31    0.92
   0  -9   1    1.25    1.34
  -1   9  -1    2.06    1.08
  -1   9  -1    2.15    1.06
   1  -9   1    2.48    0.60
   1  -9   1    0.99    1.34
   1  -9   1    2.33    1.35
   1  -9   1    3.14    1.18
  -2   9  -1    0.63    1.00
  -2   9  -1    0.34    0.23
  -2   9  -1    0.42    0.92
   2  -9   1    0.91    0.45
   2  -9   1   -0.43    1.14
   2  -9   1    0.15    0.92
   2  -9   1   -0.05    1.06
  -3   9  -1   10.00    1.68
  -3   9  -1   10.23    1.50
   3  -9   1   13.16    2.24
   3  -9   1   11.23    0.89
   3  -9   1    8.00    1.63
   3  -9   1    9.70    1.57
  -4   9  -1    7.44    1.32
  -4   9  -1    9.92    1.70
   4  -9   1    5.79    1.51
   4  -9   1   11.66    2.24
  -5   9  -1   21.72    1.92
   5  -9   1   14.97    2.00
   5  -9   1   19.86    3.10
  -6   9  -1    2.21    0.91
  -6   9  -1    2.11    1.39
   6  -9   1    0.54    1.25
   6  -9   1    2.89    1.72
   6  -9   1   -0.01    1.24
   5   8  -1    1.41    2.24
   5   8  -1    4.10    1.36
   5   8  -1    2.72    1.70
  -5  -8   1    4.78    1.39
   4   8  -1   -0.07    1.08
   4   8  -1   -1.37    0.76
   4   8  -1    0.11    0.65
   4   8  -1   -0.23    1.04
  -4  -8   1   -1.20    1.08
   3   8  -1    3.21    1.24
   3   8  -1    6.34    1.19
   3   8  -1    3.62    1.29
   3   8  -1    4.41    0.95
  -3  -8   1    3.97    1.26
  -3  -8   1    3.82    1.41
   2   8  -1   18.95    1.89
   2   8  -1   24.80    2.14
   2   8  -1   21.30    1.73
  -2  -8   1   19.89    2.24
  -2  -8   1   21.42    2.06
   1   8  -1   12.86    2.41
   1   8  -1   14.23    1.48
   1   8  -1   15.19    1.60
  -1  -8   1   12.52    2.65
  -1  -8   1    9.89    1.92
  -1  -8   1   11.85    1.10
  -1  -8   1   17.71    2.01
   0   8  -1    8.75    1.22
   0   8  -1    9.18    1.50
   0   8  -1   10.69    1.55
   0  -8   1   12.59    1.07
   0  -8   1   11.74    1.53
   0  -8   1   10.77    1.76
  -1   8  -1    1.22    1.03
  -1   8  -1    2.55    1.05
  -1   8  -1    2.29    1.17
   1  -8   1    3.30    1.05
   1  -8   1    1.73    1.09
   1  -8   1    2.79    1.23
   1  -8   1    4.03    0.67
  -2   8  -1    2.42    1.23
  -2   8  -1    1.14    1.17
   2  -8   1    0.76    1.12
   2  -8   1    1.78    0.98
   2  -8   1    2.22    1.33
   2  -8   1    2.74    0.52
  -3   8  -1   16.21    2.52
  -3   8  -1   16.13    1.86
   3  -8   1   19.76    2.50
   3  -8   1   15.24    1.93
   3  -8   1   22.26    2.13
  -4   8  -1   -0.11    0.77
   4  -8   1   -0.69    0.86
   4  -8   1    0.11    1.00
   4  -8   1   -1.43    1.22
  -5   8  -1    0.18    1.06
  -5   8  -1   -0.69    0.75
   5  -8   1   -0.65    1.36
   5  -8   1   -0.63    0.86
   5  -8   1   -0.35    1.02
  -6   8  -1   11.47    1.76
  -6   8  -1   10.18    1.37
   6  -8   1   11.81    1.91
   6  -8   1   10.31    1.69
  -7   8  -1    1.53    0.89
  -7   8  -1    2.79    1.26
   7  -8   1    0.05    1.12
   7  -8   1    2.91    1.79
   7  -8   1    0.90    1.26
   6   7  -1    4.33    1.45
   6   7  -1    1.06    1.24
  -6  -7   1    3.12    1.38
   5   7  -1    0.89    1.15
   5   7  -1    0.21    0.88
   5   7  -1    0.62    1.15
   5   7  -1    0.47    0.42
  -5  -7   1   -1.05    1.12
   4   7  -1    3.03    1.11
   4   7  -1    1.52    0.74
   4   7  -1    1.28    1.17
   4   7  -1    0.47    1.11
  -4  -7   1    0.76    1.08
   3   7  -1   11.88    1.63
   3   7  -1   10.31    1.52
   3   7  -1    8.49    1.31
   3   7  -1   10.74    1.21
  -3  -7   1    9.89    1.61
  -3  -7   1    8.45    0.71
  -3  -7   1    9.42    1.52
   2   7  -1   32.74    2.19
   2   7  -1   30.63    2.83
   2   7  -1   30.93    2.67
   2   7  -1   34.00    2.41
  -2  -7   1   28.64    2.43
  -2  -7   1   31.44    2.16
  -2  -7   1   33.72    2.60
  -2  -7   1   28.58    2.45
   1   7  -1   31.67    2.21
   1   7  -1   38.16    2.42
   1   7  -1   38.19    2.49
   1   7  -1   36.71    2.41
  -1  -7   1   40.19    2.86
  -1  -7   1   34.75    2.41
  -1  -7   1   31.40    2.73
  -1  -7   1   37.09    2.72
  -1  -7   1   34.12    2.59
   0   7  -1  109.36    5.43
   0   7  -1   95.26    5.52
   0   7  -1  102.37    5.64
   0  -7   1   90.34    5.67
   0  -7   1   96.64    6.31
   0  -7   1  100.48    5.31
   0  -7   1   94.08    5.80
  -1   7  -1  101.34    5.51
  -1   7  -1   96.42    5.21
  -1   7  -1   83.67    5.60
   1  -7   1  102.87    5.15
   1  -7   1   93.09    5.54
   1  -7   1   96.94    5.67
   1  -7   1   99.02    5.85
   1  -7   1   96.08    5.87
  -2   7  -1    4.49    1.17
  -2   7  -1    2.97    0.58
  -2   7  -1    4.77    1.05
   2  -7   1    4.18    1.33
   2  -7   1    4.28    1.05
   2  -7   1    4.26    1.04
   2  -7   1    3.77    0.57
  -3   7  -1    0.12    0.94
  -3   7  -1   -1.30    0.66
   3  -7   1   -0.79    1.19
   3  -7   1   -0.01    0.89
   3  -7   1    0.48    0.30
   3  -7   1   -0.17    1.21
  -4   7  -1   -0.64    0.92
  -4   7  -1   -0.23    0.77
   4  -7   1    0.34    0.75
   4  -7   1    0.11    0.90
  -5   7  -1    0.74    1.02
  -5   7  -1    1.50    0.77
   5  -7   1    2.07    1.09
   5  -7   1    1.62    0.36
   5  -7   1   -0.08    0.84
   5  -7   1    1.59    1.58
  -6   7  -1    2.47    0.82
  -6   7  -1    3.63    1.21
   6  -7   1    7.72    2.12
   6  -7   1    2.79    1.10
   6  -7   1    2.59    1.22
  -7   7  -1    0.66    1.05
   7  -7   1    1.71    1.86
   7  -7   1    0.38    1.03
   7  -7   1   -1.13    0.92
   7  -7   1    3.80    1.32
  -8   7  -1    0.62    0.45
   8  -7   1    3.41    1.45
   8  -7   1    1.83    1.18
   8  -7   1   -0.78    1.64
   8  -7   1   -1.41    0.68
   7   6  -1    4.39    2.02
   7   6  -1   -0.32    1.13
   7   6  -1    0.38    1.21
  -7  -6   1    0.69    1.15
   6   6  -1    1.95    1.31
   6   6  -1   -0.30    1.07
   6   6  -1    3.31    1.21
  -6  -6   1    0.50    1.21
   5   6  -1   12.62    1.17
   5   6  -1   11.36    1.71
   5   6  -1   11.42    1.57
   5   6  -1   12.60    1.64
  -5  -6   1   12.34    2.68
   4   6  -1    9.77    1.45
   4   6  -1    8.09    1.33
  -4  -6   1    5.51    0.42
  -4  -6   1    8.50    1.45
   3   6  -1    1.82    0.81
   3   6  -1    0.45    0.91
   3   6  -1    1.35    0.71
   3   6  -1    2.16    0.71
   3   6  -1    1.88    0.91
  -3  -6   1    2.55    0.80
  -3  -6   1    1.99    0.71
  -3  -6   1    1.95    1.12
  -3  -6   1    0.60    0.94
   2   6  -1    8.05    1.06
   2   6  -1    9.78    1.30
   2   6  -1    8.18    1.22
  -2  -6   1    8.68    1.55
  -2  -6   1    8.97    1.04
  -2  -6   1    7.11    0.98
  -2  -6   1    9.42    1.40
  -2  -6   1    9.12    1.31
  -2  -6   1    8.91    1.09
  -2  -6   1   10.03    1.46
   1   6  -1   12.61    1.32
   1   6  -1   13.05    1.26
   1   6  -1   13.73    1.25
   1   6  -1   12.36    1.37
   1   6  -1   11.86    1.09
  -1  -6   1   12.00    1.41
  -1  -6   1   14.44    1.12
  -1  -6   1   12.78    1.55
  -1  -6   1   11.60    1.57
  -1  -6   1   12.40    1.09
  -1  -6   1   11.11    1.24
   0   6  -1    2.54    0.70
   0   6  -1    4.09    0.81
   0   6  -1    3.37    0.74
   0   6  -1    3.87    0.89
   0   6  -1    3.83    0.91
   0   6  -1    3.84    0.91
   0  -6   1    3.38    0.99
   0  -6   1    4.71    1.09
   0  -6   1    4.43    1.08
   0  -6   1    3.56    1.01
   0  -6   1    3.73    0.55
   0  -6   1    2.43    0.74
   0  -6   1    4.74    0.67
  -1   6  -1    6.54    1.01
  -1   6  -1    4.68    0.56
  -1   6  -1    5.30    0.72
  -1   6  -1    6.06    1.02
  -1   6  -1    9.04    1.28
  -1   6  -1    6.33    1.04
   1  -6   1    6.15    0.68
   1  -6   1    7.20    1.36
   1  -6   1    6.71    1.33
   1  -6   1    6.22    1.01
   1  -6   1    7.07    1.12
   1  -6   1    7.13    1.20
   1  -6   1    5.87    0.91
  -2   6  -1   71.96    4.11
  -2   6  -1   67.58    3.97
  -2   6  -1   68.66    4.03
  -2   6  -1   67.90    3.71
   2  -6   1   71.95    4.50
   2  -6   1   69.02    3.68
   2  -6   1   64.36    3.95
   2  -6   1   73.02    4.51
   2  -6   1   70.90    4.20
   2  -6   1   69.41    4.08
  -3   6  -1   29.78    2.11
  -3   6  -1   30.50    2.13
   3  -6   1   32.74    2.24
   3  -6   1   33.01    2.72
   3  -6   1   30.52    2.08
   3  -6   1   31.50    1.70
   3  -6   1   29.31    1.70
  -4   6  -1   -0.56    0.73
  -4   6  -1    1.08    0.96
   4  -6   1    0.78    0.25
   4  -6   1   -0.64    1.48
   4  -6   1    0.70    0.34
   4  -6   1    0.42    0.34
   4  -6   1    0.65    0.79
   4  -6   1   -0.70    0.63
   4  -6   1    0.40    0.87
  -5   6  -1   12.97    1.32
  -5   6  -1   13.76    1.61
   5  -6   1   14.61    1.55
   5  -6   1   19.83    3.07
   5  -6   1   14.20    1.09
   5  -6   1   16.94    1.72
   5  -6   1   12.94    0.84
   5  -6   1   11.59    1.07
  -6   6  -1    9.66    1.77
  -6   6  -1   10.56    1.50
   6  -6   1    9.72    1.54
   6  -6   1    8.55    1.40
   6  -6   1   10.23    0.96
   6  -6   1    8.31    0.76
   6  -6   1   11.57    2.37
   6  -6   1    7.99    1.22
   6  -6   1    9.84    0.98
  -7   6  -1    1.20    0.70
  -7   6  -1    0.06    0.96
   7  -6   1    1.57    1.09
   7  -6   1    1.20    0.45
   7  -6   1    0.06    0.92
   7  -6   1    0.60    0.62
   7  -6   1    1.33    1.78
   7  -6   1    2.81    0.56
   7  -6   1    0.85    0.66
  -8   6  -1    1.03    1.01
   8  -6   1    2.31    1.22
   8  -6   1   -1.49    1.86
   8  -6   1   -0.34    0.93
   8  -6   1    1.57    0.64
   8  -6   1    2.16    0.83
   8   5  -1    2.59    1.22
  -8  -5   1    0.68    1.15
   7   5  -1    0.15    1.14
   7   5  -1   -0.09    1.19
   7   5  -1   -0.13    0.98
  -7  -5   1   -0.93    1.20
   6   5  -1    2.75    1.25
   6   5  -1    3.03    1.11
   6   5  -1    2.64    1.29
  -6  -5   1    2.81    1.92
   5   5  -1    9.61    1.41
   5   5  -1   12.18    1.65
  -5  -5   1    8.42    1.44
   4   5  -1   23.04    1.78
   4   5  -1   18.04    1.67
   4   5  -1   14.82    1.68
   4   5  -1   20.61    1.31
  -4  -5   1   19.74    1.33
  -4  -5   1   16.73    1.77
   3   5  -1    4.67    1.02
   3   5  -1    6.65    1.12
   3   5  -1    6.83    0.87
   3   5  -1    6.52    1.11
   3   5  -1    5.65    1.21
  -3  -5   1    7.29    0.85
  -3  -5   1    7.31    1.03
  -3  -5   1    5.62    0.84
  -3  -5   1    5.89    1.13
  -3  -5   1    6.98    1.04
  -3  -5   1    5.46    0.92
  -3  -5   1    5.90    1.18
   2   5  -1   45.84    2.76
   2   5  -1   40.32    2.84
   2   5  -1   46.00    2.76
   2   5  -1   43.47    2.64
   2   5  -1   42.26    3.04
   2   5  -1   47.28    2.73
  -2  -5   1   42.80    2.74
  -2  -5   1   46.38    2.90
  -2  -5   1   45.87    2.89
  -2  -5   1   45.01    2.71
  -2  -5   1   52.06    2.69
  -2  -5   1   40.84    2.67
  -2  -5   1   44.90    2.62
   1   5  -1    6.89    0.91
   1   5  -1    8.62    1.08
   1   5  -1    9.46    1.07
   1   5  -1    7.85    0.84
   1   5  -1    8.63    1.00
   1   5  -1    8.38    1.03
  -1  -5   1    6.81    1.16
  -1  -5   1    9.95    1.17
  -1  -5   1   10.84    1.20
  -1  -5   1    7.59    0.86
  -1  -5   1    7.74    0.84
  -1  -5   1    9.23    0.91
  -1  -5   1    8.72    1.08
   0   5  -1    9.27    1.05
   0   5  -1   10.42    0.90
   0   5  -1    9.51    0.81
   0   5  -1    9.95    1.07
   0   5  -1    9.87    1.04
   0   5  -1    9.58    1.07
   0  -5   1    8.62    0.88
   0  -5   1    9.48    0.80
   0  -5   1    9.28    1.32
   0  -5   1   10.13    1.06
   0  -5   1   10.32    1.34
   0  -5   1    8.86    1.11
   0  -5   1   11.50    0.82
   0  -5   1   11.21    1.19
  -1   5  -1    3.70    0.77
  -1   5  -1    2.88    0.44
  -1   5  -1    5.39    0.91
  -1   5  -1    3.84    0.73
  -1   5  -1    3.66    0.54
  -1   5  -1    3.85    0.77
   1  -5   1    3.19    0.69
   1  -5   1    4.12    0.79
   1  -5   1    3.71    0.52
   1  -5   1    3.24    0.43
   1  -5   1    4.52    1.43
   1  -5   1    3.69    0.96
   1  -5   1    4.72    0.87
   1  -5   1    4.69    1.02
  -2   5  -1    3.15    0.63
  -2   5  -1    3.01    0.67
  -2   5  -1    3.33    0.36
  -2   5  -1    2.79    0.75
  -2   5  -1    3.49    0.88
   2  -5   1    2.76    0.39
   2  -5   1    3.36    0.66
   2  -5   1    2.41    0.86
   2  -5   1    3.57    0.42
   2  -5   1    6.38    1.44
   2  -5   1    4.93    0.94
   2  -5   1    4.77    1.07
  -3   5  -1   36.26    2.25
  -3   5  -1   38.49    2.22
  -3   5  -1   32.79    1.88
  -3   5  -1   33.59    2.34
  -3   5  -1   31.40    2.21
   3  -5   1   34.24    1.88
   3  -5   1   34.85    2.34
   3  -5   1   36.86    2.34
   3  -5   1   36.84    2.76
   3  -5   1   37.86    2.39
   3  -5   1   33.44    2.16
  -4   5  -1   30.35    2.11
  -4   5  -1   32.52    2.12
  -4   5  -1   33.42    2.24
   4  -5   1   34.78    1.94
   4  -5   1   38.86    2.33
   4  -5   1   29.79    2.03
   4  -5   1   29.21    1.89
   4  -5   1   31.32    2.29
   4  -5   1   31.56    1.90
   4  -5   1   29.70    1.75
  -5   5  -1    0.50    0.86
  -5   5  -1   -0.32    0.63
   5  -5   1   -0.11    0.35
   5  -5   1    0.64    0.34
   5  -5   1    0.66    0.51
   5  -5   1    0.07    0.82
   5  -5   1    0.59    0.46
   5  -5   1    1.03    0.85
   5  -5   1    0.64    0.94
  -6   5  -1    1.44    0.68
  -6   5  -1    2.77    1.01
   6  -5   1    3.32    1.27
   6  -5   1    1.48    0.60
   6  -5   1    2.59    0.94
   6  -5   1    2.34    0.52
   6  -5   1    3.81    0.57
   6  -5   1    2.17    0.71
   6  -5   1    2.56    0.63
  -7   5  -1    6.10    1.29
  -7   5  -1    5.77    0.91
   7  -5   1    6.39    1.36
   7  -5   1    6.51    1.01
   7  -5   1    6.04    0.79
   7  -5   1    5.37    1.23
   7  -5   1    5.91    0.79
  -8   5  -1    2.63    1.07
   8  -5   1    1.48    0.99
   8  -5   1    2.16    1.82
   8  -5   1    2.93    0.70
   8  -5   1    3.77    0.81
   8  -5   1    2.10    1.18
  -9   5  -1    2.32    1.02
   9  -5   1    0.51    0.82
   9  -5   1    0.47    0.82
   9  -5   1    3.60    1.22
   9  -5   1    1.88    0.76
   9  -5   1    1.66    1.21
   8   4  -1   -0.43    0.92
   8   4  -1    0.62    1.69
   8   4  -1    0.54    1.90
  -8  -4   1    0.93    1.22
   7   4  -1   -0.55    0.90
   7   4  -1   -0.04    1.06
   7   4  -1   -0.06    1.14
  -7  -4   1    0.52    1.22
   6   4  -1    5.13    1.26
   6   4  -1    3.26    1.20
   6   4  -1    1.09    0.93
  -6  -4   1    2.43    1.07
   5   4  -1    2.04    1.06
   5   4  -1    1.94    0.95
  -5  -4   1    1.16    0.93
   4   4  -1    1.45    0.81
   4   4  -1    2.73    0.88
   4   4  -1    3.57    1.02
   4   4  -1    3.20    0.89
   4   4  -1    2.62    0.49
   4   4  -1    0.22    0.92
  -4  -4   1    0.42    0.86
  -4  -4   1    1.75    0.67
  -4  -4   1    2.79    0.48
   3   4  -1   23.08    1.59
   3   4  -1   21.62    1.70
   3   4  -1   19.57    1.65
   3   4  -1   21.04    1.41
   3   4  -1   27.09    1.70
   3   4  -1   23.34    1.75
  -3  -4   1   21.91    1.43
  -3  -4   1   21.92    1.94
  -3  -4   1   21.00    1.74
  -3  -4   1   23.06    1.66
  -3  -4   1   22.19    1.78
   2   4  -1   83.91    4.73
   2   4  -1   83.51    4.68
   2   4  -1   90.90    4.70
   2   4  -1   85.94    4.79
   2   4  -1   82.34    4.66
   2   4  -1   88.10    4.57
  -2  -4   1   77.63    4.59
  -2  -4   1   88.59    4.63
  -2  -4   1   87.29    4.68
  -2  -4   1   88.55    4.82
  -2  -4   1   85.22    4.63
  -2  -4   1   83.61    4.56
  -2  -4   1   90.43    4.79
  -2  -4   1   81.72    4.66
   1   4  -1  141.23    7.33
   1   4  -1  147.43    7.46
   1   4  -1  139.04    7.34
   1   4  -1  144.35    7.43
   1   4  -1  137.37    7.46
   1   4  -1  134.37    7.34
  -1  -4   1  140.91    7.33
  -1  -4   1  137.11    7.38
  -1  -4   1  132.46    7.42
  -1  -4   1  139.67    7.31
  -1  -4   1  146.66    7.50
  -1  -4   1  143.11    7.50
  -1  -4   1  139.09    7.34
  -1  -4   1  142.67    7.43
   0   4  -1  163.30    8.41
   0   4  -1  165.93    8.57
   0   4  -1  164.85    8.51
   0   4  -1  165.24    8.38
   0   4  -1  166.58    8.53
   0   4  -1  156.42    8.55
   0  -4   1  154.88    8.63
   0  -4   1  156.09    8.61
   0  -4   1  158.30    8.50
   0  -4   1  168.21    8.38
   0  -4   1  177.09    8.63
   0  -4   1  167.73    8.58
   0  -4   1  149.92    8.48
   0  -4   1  166.00    8.63
  -1   4  -1   30.94    2.18
  -1   4  -1   33.85    1.95
  -1   4  -1   38.55    2.22
  -1   4  -1   34.89    2.22
  -1   4  -1   38.52    2.19
   1  -4   1   35.98    2.28
   1  -4   1   37.86    2.25
   1  -4   1   35.67    2.22
   1  -4   1   35.85    2.47
   1  -4   1   38.78    1.97
   1  -4   1   36.06    2.15
   1  -4   1   36.52    1.97
  -2   4  -1    0.18    0.50
  -2   4  -1   -0.28    0.87
  -2   4  -1    0.20    0.45
  -2   4  -1   -0.08    0.22
  -2   4  -1    0.15    0.44
  -2   4  -1    0.08    0.61
  -2   4  -1    0.32    0.23
   2  -4   1    0.28    0.25
   2  -4   1    0.83    0.62
   2  -4   1   -0.08    0.50
   2  -4   1    0.16    0.54
   2  -4   1   -0.07    0.72
   2  -4   1    0.40    0.23
   2  -4   1    0.21    0.42
  -3   4  -1   13.10    0.83
  -3   4  -1   10.41    1.50
  -3   4  -1   11.51    1.00
  -3   4  -1   10.86    1.13
  -3   4  -1   13.19    1.08
  -3   4  -1   12.32    1.02
   3  -4   1   10.27    0.71
   3  -4   1   10.24    1.06
   3  -4   1   10.69    0.92
   3  -4   1    9.73    0.82
   3  -4   1   10.75    1.11
   3  -4   1   11.15    1.14
   3  -4   1   10.73    1.42
  -4   4  -1    6.67    1.04
  -4   4  -1    7.58    0.83
  -4   4  -1    8.70    0.91
  -4   4  -1   10.19    1.77
   4  -4   1   11.28    1.16
   4  -4   1    8.72    1.07
   4  -4   1    8.69    0.68
   4  -4   1    7.48    1.05
   4  -4   1    8.90    1.44
   4  -4   1    7.47    1.01
   4  -4   1    9.17    0.85
   4  -4   1    7.80    0.81
   4  -4   1    8.26    0.82
   4  -4   1    8.09    0.66
  -5   4  -1   68.05    4.39
  -5   4  -1   60.14    3.56
  -5   4  -1   63.85    3.72
   5  -4   1   61.13    3.71
   5  -4   1   62.95    3.42
   5  -4   1   62.47    3.54
   5  -4   1   60.25    3.51
   5  -4   1   59.39    3.52
   5  -4   1   61.20    3.77
   5  -4   1   62.99    3.75
   5  -4   1   64.46    3.36
  -6   4  -1   34.67    3.16
  -6   4  -1   30.69    2.03
   6  -4   1   32.49    1.98
   6  -4   1   30.89    1.93
   6  -4   1   33.31    2.40
   6  -4   1   30.95    2.33
   6  -4   1   30.93    2.04
   6  -4   1   30.74    2.16
   6  -4   1   32.62    2.34
  -7   4  -1   22.75    2.97
  -7   4  -1   24.93    2.06
   7  -4   1   22.75    1.65
   7  -4   1   23.11    1.68
   7  -4   1   25.45    1.66
   7  -4   1   25.30    2.17
   7  -4   1   21.04    2.62
   7  -4   1   23.96    1.65
   8  -4   1    3.67    0.75
   8  -4   1    1.86    0.97
   8  -4   1    3.53    0.77
   8  -4   1    2.70    0.78
   8  -4   1    2.16    1.08
   8  -4   1    2.45    0.79
   9  -4   1    4.76    1.30
   9  -4   1    5.92    1.43
   9  -4   1    6.30    1.26
   9  -4   1    2.77    1.31
   9  -4   1    3.83    0.87
   9  -4   1    4.16    0.94
   9   3  -1    1.11    1.25
   9   3  -1    0.61    1.13
  -9  -3   1    2.17    1.21
   8   3  -1   12.57    1.75
   8   3  -1    9.47    1.42
   8   3  -1    9.92    1.77
  -8  -3   1    8.93    1.62
   7   3  -1    4.90    1.28
   7   3  -1    7.90    1.48
   7   3  -1    5.98    1.14
  -7  -3   1    5.54    1.37
   6   3  -1    8.23    1.46
   6   3  -1    7.13    0.53
   6   3  -1    5.70    1.23
   5   3  -1    0.25    0.46
   5   3  -1   -0.66    0.62
   5   3  -1   -0.50    1.00
   5   3  -1   -0.79    0.70
   5   3  -1    0.41    0.31
  -5  -3   1   -0.16    0.78
  -5  -3   1    0.07    0.58
  -5  -3   1    0.04    0.51
   4   3  -1   39.06    2.34
   4   3  -1   35.58    2.27
   4   3  -1   34.78    2.42
   4   3  -1   35.87    2.39
   4   3  -1   31.09    2.27
  -4  -3   1   36.83    2.04
  -4  -3   1   36.60    2.39
  -4  -3   1   37.97    2.23
  -4  -3   1   36.94    2.37
  -4  -3   1   32.78    1.96
   3   3  -1   39.46    2.24
   3   3  -1   39.77    2.32
   3   3  -1   38.48    2.52
   3   3  -1   45.03    2.99
   3   3  -1   39.41    2.53
   3   3  -1   38.72    2.50
   3   3  -1   41.49    2.49
  -3  -3   1   41.18    2.54
  -3  -3   1   39.29    2.52
  -3  -3   1   45.46    2.46
  -3  -3   1   48.38    2.42
  -3  -3   1   43.88    2.29
  -3  -3   1   39.21    2.43
   2   3  -1   87.67    4.75
   2   3  -1   83.99    4.66
   2   3  -1   87.57    4.64
   2   3  -1   85.51    4.54
   2   3  -1   85.71    4.69
  -2  -3   1   85.22    4.70
  -2  -3   1   87.39    4.64
  -2  -3   1   95.90    4.56
  -2  -3   1   90.56    4.54
  -2  -3   1   84.73    4.74
  -2  -3   1   86.05    4.66
  -2  -3   1   73.56    4.58
   1   3  -1  137.14    7.27
   1   3  -1  137.37    7.19
   1   3  -1  132.19    7.28
   1   3  -1  147.91    7.26
   1   3  -1  130.99    7.18
   1   3  -1  134.95    7.20
  -1  -3   1  139.21    7.20
  -1  -3   1  144.56    7.24
  -1  -3   1  132.93    7.30
  -1  -3   1  154.29    7.19
  -1  -3   1  128.40    7.21
  -1  -3   1  147.99    7.30
  -1  -3   1  134.49    7.18
   0   3  -1    6.31    0.68
   0   3  -1    7.06    0.74
   0   3  -1    6.54    0.74
   0   3  -1    6.21    0.63
   0   3  -1    7.61    0.75
   0  -3   1    4.98    0.93
   0  -3   1    6.14    0.76
   0  -3   1    6.91    0.92
   0  -3   1    6.11    0.66
   0  -3   1    6.01    0.55
   0  -3   1    6.64    0.76
   0  -3   1    6.31    0.57
   0  -3   1    6.21    0.77
  -1   3  -1    0.15    0.23
  -1   3  -1    0.19    0.23
  -1   3  -1   -0.08    0.49
  -1   3  -1   -0.13    0.69
  -1   3  -1   -0.02    0.39
  -1   3  -1   -0.51    0.37
  -1   3  -1    0.30    0.34
   1  -3   1    0.33    0.44
   1  -3   1    0.15    0.21
   1  -3   1    0.32    0.47
   1  -3   1    0.14    0.59
   1  -3   1    0.17    0.22
   1  -3   1   -0.09    0.35
   1  -3   1   -0.17    0.44
  -2   3  -1   26.26    1.64
  -2   3  -1   30.16    2.20
  -2   3  -1   26.48    1.82
  -2   3  -1   32.11    1.77
  -2   3  -1   28.95    1.82
  -2   3  -1   30.08    1.89
   2  -3   1   31.44    1.59
   2  -3   1   31.83    1.88
   2  -3   1   29.40    1.68
   2  -3   1   29.09    1.88
   2  -3   1   29.98    2.20
   2  -3   1   30.48    1.90
   2  -3   1   33.14    1.77
  -3   3  -1   86.17    4.66
  -3   3  -1   82.26    4.61
  -3   3  -1   85.76    4.53
  -3   3  -1   85.66    4.99
  -3   3  -1   84.53    4.54
   3  -3   1   87.40    4.68
   3  -3   1   82.95    4.51
   3  -3   1   85.92    4.53
   3  -3   1   91.26    4.72
   3  -3   1   86.79    4.43
   3  -3   1   82.66    4.68
   3  -3   1   87.67    4.68
   3  -3   1   84.30    4.97
   3  -3   1   82.72    4.40
  -4   3  -1  101.76    5.65
  -4   3  -1   88.25    5.16
  -4   3  -1   95.55    5.07
   4  -3   1   90.66    5.10
   4  -3   1   96.33    5.22
   4  -3   1   93.64    4.98
   4  -3   1  107.73    5.88
   4  -3   1   97.06    5.02
   4  -3   1   96.53    5.08
   4  -3   1   94.23    5.59
   4  -3   1   99.76    5.29
   4  -3   1   92.50    5.11
   4  -3   1   91.41    5.26
  -5   3  -1    2.69    0.58
  -5   3  -1    2.21    1.28
  -5   3  -1    3.18    0.86
   5  -3   1    2.03    0.49
   5  -3   1    2.70    0.54
   5  -3   1    3.02    0.58
   5  -3   1    1.26    1.03
   5  -3   1    1.49    0.60
   5  -3   1    2.54    0.79
   5  -3   1    2.28    0.99
   5  -3   1    2.59    0.81
   5  -3   1    2.01    0.74
  -6   3  -1    6.60    1.06
  -6   3  -1    6.21    2.58
   6  -3   1    5.92    0.94
   6  -3   1    6.53    0.79
   6  -3   1    6.57    0.82
   6  -3   1    7.53    1.09
   6  -3   1    7.67    1.21
   6  -3   1    6.45    0.83
   6  -3   1    7.47    1.08
   6  -3   1    6.80    0.89
  -7   3  -1    1.39    0.95
  -7   3  -1    2.01    1.49
   7  -3   1    1.97    0.73
   7  -3   1    2.59    1.05
   7  -3   1    2.63    0.95
   7  -3   1    0.90    0.69
   7  -3   1    2.06    0.91
   7  -3   1    3.16    0.64
   7  -3   1    2.44    0.66
   8  -3   1   -0.18    0.97
   8  -3   1    0.40    0.88
   8  -3   1    0.53    0.62
   8  -3   1    0.46    1.13
   8  -3   1    0.37    0.89
   8  -3   1    1.99    0.63
   9  -3   1    3.74    1.19
   9  -3   1    3.02    1.16
   9  -3   1    2.64    0.99
   9  -3   1    1.49    1.03
   9   2  -1    3.05    1.14
   9   2  -1    2.94    1.37
   9   2  -1    3.90    1.42
  -9  -2   1    3.74    1.53
   8   2  -1    5.70    1.20
   8   2  -1    7.13    1.53
   8   2  -1    8.13    1.20
   8   2  -1    6.49    1.47
  -8  -2   1    5.93    1.41
   7   2  -1    0.48    0.36
   7   2  -1   -0.23    0.96
   7   2  -1   -1.01    0.96
   7   2  -1   -0.21    0.76
  -7  -2   1   -0.40    0.88
   6   2  -1    1.54    0.77
   6   2  -1    0.37    0.85
   6   2  -1    0.70    0.70
   6   2  -1    0.36    0.37
   6   2  -1   -1.07    0.93
   6   2  -1    0.36    0.44
  -6  -2   1   -0.31    0.87
  -6  -2   1    0.16    0.58
  -6  -2   1    0.10    0.72
   5   2  -1    3.78    1.09
   5   2  -1    5.27    0.89
   5   2  -1    5.72    0.95
   5   2  -1    6.13    0.90
   5   2  -1    5.52    0.89
   5   2  -1    5.44    0.99
   5   2  -1    5.42    0.57
   5   2  -1    5.30    0.84
   5   2  -1    6.69    1.04
  -5  -2   1    5.16    0.94
  -5  -2   1    6.52    1.07
  -5  -2   1    6.09    0.88
  -5  -2   1    5.56    0.76
   4   2  -1    9.78    0.96
   4   2  -1    7.49    0.89
   4   2  -1    9.48    1.11
   4   2  -1    8.76    0.98
   4   2  -1    9.45    0.95
   4   2  -1    9.43    1.05
  -4  -2   1    8.48    0.86
  -4  -2   1    8.54    0.86
  -4  -2   1    8.48    1.10
  -4  -2   1    6.77    0.82
  -4  -2   1   10.77    1.13
   3   2  -1    1.00    0.35
   3   2  -1   -0.05    0.49
   3   2  -1   -0.11    0.52
   3   2  -1   -0.04    0.45
   3   2  -1   -0.89    0.48
   3   2  -1    0.43    0.54
   3   2  -1    0.76    0.38
  -3  -2   1   -0.02    0.51
  -3  -2   1    0.33    0.43
  -3  -2   1   -0.31    0.53
  -3  -2   1    0.08    0.34
  -3  -2   1    0.36    0.31
  -3  -2   1    0.91    0.45
   2   2  -1    1.58    0.44
   2   2  -1    1.91    0.39
   2   2  -1    1.32    0.48
   2   2  -1    2.42    0.54
   2   2  -1    2.33    0.52
   2   2  -1    1.59    0.56
   2   2  -1    2.30    0.36
  -2  -2   1    3.08    0.44
  -2  -2   1    2.57    0.41
  -2  -2   1    1.66    0.47
  -2  -2   1    1.66    0.28
  -2  -2   1    1.59    0.49
  -2  -2   1    1.99    0.53
   1   2  -1    3.72    0.51
   1   2  -1    3.04    0.51
   1   2  -1    3.13    0.52
   1   2  -1    3.33    0.49
   1   2  -1    3.38    0.48
   1   2  -1    4.35    0.53
  -1  -2   1    2.88    0.41
  -1  -2   1    2.94    0.45
  -1  -2   1    3.10    0.50
  -1  -2   1    2.43    0.52
  -1  -2   1    3.55    0.49
  -1  -2   1    2.92    0.46
  -1  -2   1    3.80    0.56
  -1  -2   1    3.13    0.47
   0   2  -1   48.16    2.75
   0   2  -1   52.23    2.69
   0   2  -1   48.79    2.67
   0   2  -1   50.85    2.81
   0   2  -1   56.10    2.76
   0   2  -1   47.65    2.83
   0   2  -1   54.64    2.79
   0  -2   1   53.25    2.69
   0  -2   1   50.70    2.75
   0  -2   1   53.13    2.72
   0  -2   1   47.21    2.82
   0  -2   1   46.15    2.65
   0  -2   1   54.63    2.82
   0  -2   1   51.51    2.78
  -1   2  -1   21.64    1.45
  -1   2  -1   21.17    1.51
  -1   2  -1   19.68    1.26
  -1   2  -1   20.58    1.31
  -1   2  -1   19.43    1.15
  -1   2  -1   21.61    1.08
  -1   2  -1   20.32    1.27
   1  -2   1   20.92    1.07
   1  -2   1   20.66    1.30
   1  -2   1   21.36    1.22
   1  -2   1   18.33    1.28
   1  -2   1   20.77    1.49
   1  -2   1   21.38    1.30
   1  -2   1   19.09    1.15
  -2   2  -1    6.30    1.14
  -2   2  -1    5.99    0.70
  -2   2  -1    3.83    0.53
  -2   2  -1    5.44    0.72
  -2   2  -1    5.64    0.55
   2  -2   1    4.54    0.64
   2  -2   1    4.70    0.39
   2  -2   1    5.39    0.68
   2  -2   1    6.42    0.42
   2  -2   1    5.41    0.64
   2  -2   1    5.21    0.92
   2  -2   1    6.11    0.77
   2  -2   1    5.68    0.49
  -3   2  -1    7.90    0.60
  -3   2  -1    6.00    0.78
  -3   2  -1    5.93    0.72
  -3   2  -1    5.26    0.74
  -3   2  -1    7.58    1.21
   3  -2   1    7.37    0.62
   3  -2   1    7.14    1.12
   3  -2   1    6.48    0.63
   3  -2   1    7.95    0.80
   3  -2   1    5.29    0.73
   3  -2   1    6.11    0.80
   3  -2   1    6.87    0.61
   3  -2   1    7.51    0.79
   3  -2   1    7.45    0.85
  -4   2  -1   15.20    1.66
  -4   2  -1   15.50    1.20
  -4   2  -1   15.55    1.06
  -4   2  -1   16.24    1.61
   4  -2   1   16.56    1.06
   4  -2   1   15.31    1.22
   4  -2   1   14.20    1.17
   4  -2   1   16.04    1.25
   4  -2   1   14.02    1.22
   4  -2   1   16.80    1.28
   4  -2   1   16.49    1.07
   4  -2   1   14.77    1.07
   4  -2   1   16.61    1.65
  -5   2  -1    3.60    0.91
  -5   2  -1    3.54    0.75
  -5   2  -1    2.61    1.13
   5  -2   1    2.88    0.81
   5  -2   1    3.12    0.71
   5  -2   1    1.39    0.68
   5  -2   1    4.52    1.47
   5  -2   1    2.95    0.78
   5  -2   1    2.67    0.67
   5  -2   1    3.27    0.52
   5  -2   1    2.31    0.58
   5  -2   1    3.29    0.55
   5  -2   1    2.84    0.62
  -6   2  -1   56.89    3.68
  -6   2  -1   58.41    4.01
  -6   2  -1   62.82    3.33
   6  -2   1   58.84    3.26
   6  -2   1   54.17    3.38
   6  -2   1   53.07    3.26
   6  -2   1   56.97    3.16
   6  -2   1   59.46    3.58
   6  -2   1   50.95    3.27
   6  -2   1   54.78    3.83
   6  -2   1   51.88    3.37
   6  -2   1   55.59    3.12
  -7   2  -1   -0.05    1.02
  -7   2  -1   -0.43    1.18
   7  -2   1    0.05    0.68
   7  -2   1   -0.40    0.63
   7  -2   1    0.36    0.47
   7  -2   1    0.79    0.63
   7  -2   1   -0.05    0.83
   7  -2   1   -0.23    0.49
   7  -2   1   -0.29    0.73
  -8   2  -1    3.95    1.77
   8  -2   1    3.35    0.68
   8  -2   1    3.64    1.07
   8  -2   1    3.86    1.20
   8  -2   1    2.77    0.90
   8  -2   1    3.23    0.78
   8  -2   1    2.99    1.05
   8  -2   1    4.52    0.93
   9  -2   1    0.73    0.78
   9  -2   1    0.76    1.01
   9  -2   1    1.13    0.92
   9  -2   1    0.30    0.95
   9  -2   1    1.05    1.08
   9   1  -1    1.11    1.11
   9   1  -1    3.05    1.13
   9   1  -1    0.90    1.07
   9   1  -1    1.82    1.22
  -9  -1   1    1.49    1.28
   8   1  -1    2.47    0.94
   8   1  -1    2.43    0.64
   8   1  -1    3.15    1.54
   8   1  -1    3.09    1.11
   8   1  -1    5.70    1.32
   7   1  -1    1.58    0.49
   7   1  -1   -0.66    0.85
   7   1  -1   -0.37    0.48
   7   1  -1   -0.04    1.09
   7   1  -1   -0.09    0.66
   7   1  -1    0.57    0.75
   7   1  -1   -0.02    0.73
  -7  -1   1   -0.87    0.84
   6   1  -1   25.49    1.97
   6   1  -1   29.10    2.34
   6   1  -1   29.16    1.90
   6   1  -1   30.05    2.36
   6   1  -1   27.79    1.70
   6   1  -1   26.00    1.71
   6   1  -1   30.05    2.23
   6   1  -1   24.48    2.02
  -6  -1   1   27.56    2.09
  -6  -1   1   31.42    2.21
   5   1  -1   16.51    1.22
   5   1  -1   18.16    1.55
   5   1  -1   16.09    1.14
   5   1  -1   16.09    1.46
   5   1  -1   16.28    1.37
   5   1  -1   17.61    1.33
   5   1  -1   15.88    1.37
   5   1  -1   16.63    1.42
   5   1  -1   17.27    1.39
  -5  -1   1   19.11    1.52
  -5  -1   1   17.48    1.54
  -5  -1   1   20.14    1.26
   4   1  -1   17.83    1.07
   4   1  -1   16.95    1.31
   4   1  -1   16.25    1.26
   4   1  -1   16.60    1.26
   4   1  -1   17.03    1.35
   4   1  -1   17.64    1.21
   4   1  -1   15.75    1.24
   4   1  -1   17.11    1.08
  -4  -1   1   14.90    1.12
  -4  -1   1   15.35    1.31
  -4  -1   1   17.32    1.55
  -4  -1   1   15.79    1.30
   3   1  -1   15.15    1.03
   3   1  -1   14.27    1.13
   3   1  -1   13.97    1.05
   3   1  -1   15.06    1.02
   3   1  -1   14.00    1.13
   3   1  -1   14.35    1.04
   3   1  -1   14.06    0.91
  -3  -1   1   13.51    1.01
  -3  -1   1   15.16    1.18
  -3  -1   1   13.32    0.89
  -3  -1   1   11.35    0.95
  -3  -1   1   13.17    1.05
  -3  -1   1   14.86    1.10
   2   1  -1  467.21   22.83
   2   1  -1  420.07   22.81
   2   1  -1  475.69   22.89
   2   1  -1  475.62   22.88
  -2  -1   1  410.25   22.73
  -2  -1   1  462.02   22.87
  -2  -1   1  440.81   22.74
   1   1  -1  357.46   20.77
  -1  -1   1  442.77   20.93
  -1  -1   1  431.70   20.81
  -2   1  -1   28.62    1.54
  -2   1  -1   28.04    1.93
  -2   1  -1   27.43    1.62
  -2   1  -1   30.25    1.55
  -2   1  -1   28.93    1.72
  -2   1  -1   27.52    1.70
   2  -1   1   26.96    1.62
   2  -1   1   28.60    1.70
   2  -1   1   28.40    1.55
   2  -1   1   31.23    1.55
   2  -1   1   29.01    1.67
   2  -1   1   27.00    1.86
   2  -1   1   26.76    1.63
  -3   1  -1    0.11    0.43
  -3   1  -1   -0.13    0.54
  -3   1  -1   -0.08    0.66
  -3   1  -1    0.16    0.57
   3  -1   1   -0.80    0.54
   3  -1   1    0.74    0.49
   3  -1   1    0.06    0.34
   3  -1   1   -0.32    0.44
   3  -1   1    0.79    0.29
   3  -1   1    0.32    0.42
   3  -1   1   -0.30    0.39
   3  -1   1    0.03    0.47
  -4   1  -1   13.96    1.59
  -4   1  -1   14.50    1.27
  -4   1  -1   14.70    1.06
   4  -1   1   14.02    1.15
   4  -1   1   14.37    1.23
   4  -1   1   16.39    1.07
   4  -1   1   13.86    1.45
   4  -1   1   12.99    1.16
   4  -1   1   13.64    0.93
   4  -1   1   14.98    0.98
   4  -1   1   13.43    1.05
   4  -1   1   12.96    1.05
   4  -1   1   12.48    1.14
  -5   1  -1   16.42    2.55
  -5   1  -1   23.21    1.77
  -5   1  -1   22.58    1.47
   5  -1   1   21.29    1.95
   5  -1   1   22.33    1.39
   5  -1   1   21.03    1.52
   5  -1   1   23.51    1.55
   5  -1   1   23.99    1.67
   5  -1   1   20.12    1.75
   5  -1   1   22.41    1.47
   5  -1   1   21.64    1.40
   5  -1   1   22.73    1.67
  -6   1  -1   14.83    2.04
  -6   1  -1   14.69    1.62
   6  -1   1   16.72    2.21
   6  -1   1   14.72    1.21
   6  -1   1   15.48    1.85
   6  -1   1   14.85    1.34
   6  -1   1   15.02    1.36
   6  -1   1   15.29    1.17
   6  -1   1   14.78    1.16
   6  -1   1   16.50    1.53
  -7   1  -1    4.95    1.31
  -7   1  -1    6.11    1.65
   7  -1   1    4.11    1.06
   7  -1   1    5.57    0.85
   7  -1   1    5.46    1.23
   7  -1   1    5.62    0.82
   7  -1   1    5.79    0.82
  -8   1  -1   48.47    3.74
  -8   1  -1   41.37    3.25
   8  -1   1   51.78    3.23
   8  -1   1   51.00    2.76
   8  -1   1   40.57    2.68
   8  -1   1   39.93    2.82
   8  -1   1   42.43    2.94
   8  -1   1   48.64    3.21
   8  -1   1   40.44    2.67
  -9   1  -1   -0.28    1.28
  -9   1  -1    1.41    1.25
   9  -1   1    0.19    0.95
   9  -1   1    0.57    1.16
   9  -1   1    0.91    0.74
   9  -1   1    2.29    1.07
   9  -1   1    2.73    1.24
   9   0  -1    1.18    0.73
   9   0  -1    0.20    1.30
   9   0  -1    0.10    0.83
   9   0  -1    0.32    0.93
   9   0  -1   -0.94    1.02
   9   0  -1    0.11    1.11
  -9   0   1    0.33    1.21
   8   0  -1   10.54    1.39
   8   0  -1   10.16    1.01
   8   0  -1    9.60    1.58
  -8   0   1    6.55    1.44
   7   0  -1    6.48    0.94
   7   0  -1    8.17    0.92
   7   0  -1    6.92    1.31
   7   0  -1    5.37    1.17
   7   0  -1    6.20    0.94
   7   0  -1    4.57    1.08
   7   0  -1    5.37    0.84
  -7   0   1    8.74    1.63
   6   0  -1   22.20    1.50
   6   0  -1   20.05    1.52
   6   0  -1   20.69    1.66
   6   0  -1   23.57    1.85
   6   0  -1   23.58    1.58
   6   0  -1   24.22    1.77
   6   0  -1   20.37    1.70
   6   0  -1   22.25    1.95
   6   0  -1   22.75    1.51
  -6   0   1   22.51    1.83
  -6   0   1   22.52    2.12
   5   0  -1   22.84    1.43
   5   0  -1   19.01    1.42
   5   0  -1   21.61    1.76
   5   0  -1   19.62    1.54
   5   0  -1   23.70    1.52
   5   0  -1   22.82    1.47
   5   0  -1   22.34    1.69
   5   0  -1   23.12    1.62
   5   0  -1   23.03    1.60
   5   0  -1   22.45    1.68
  -5   0   1   22.64    1.87
  -5   0   1   21.70    1.98
   4   0  -1   25.20    1.62
   4   0  -1   26.81    1.69
   4   0  -1   24.70    1.83
   4   0  -1   25.55    1.55
   4   0  -1   25.12    1.75
   4   0  -1   27.30    1.67
   4   0  -1   24.79    1.59
   4   0  -1   26.69    1.76
   4   0  -1   26.81    1.66
   4   0  -1   25.95    1.75
  -4   0   1   27.42    1.75
  -4   0   1   25.98    1.89
   3   0  -1    3.20    0.46
   3   0  -1    3.71    0.54
   3   0  -1    2.46    0.66
   3   0  -1    2.01    0.54
   3   0  -1    3.19    0.55
   3   0  -1    2.15    0.53
   3   0  -1    3.61    0.47
   3   0  -1    3.24    0.47
   3   0  -1    2.49    0.57
  -3   0   1    2.77    0.64
  -3   0   1    2.77    0.54
  -3   0   1    2.06    0.56
   1   0  -1    2.90    0.45
  -1   0  -1    2.23    0.25
   1   0   1    3.27    0.27
  -2   0  -1  276.43   14.96
  -2   0  -1  276.67   14.72
  -2   0  -1  265.64   14.68
  -2   0  -1  304.16   14.64
   2   0   1  298.47   14.75
   2   0   1  300.99   14.72
   2   0   1  301.20   14.65
   2   0   1  290.83   14.83
  -3   0  -1  173.76    8.60
  -3   0  -1  167.68    8.87
  -3   0  -1  175.77    8.81
  -3   0  -1  166.52    8.60
  -3   0  -1  168.18    8.68
   3   0   1  176.39    8.62
   3   0   1  145.36    9.26
   3   0   1  150.94    8.72
   3   0   1  170.01    8.81
   3   0   1  175.96    8.72
   3   0   1  175.29    8.78
   3   0   1  173.36    8.61
  -4   0  -1    2.74    0.84
  -4   0  -1    4.98    0.67
  -4   0  -1    2.80    0.77
   4   0   1    2.26    0.75
   4   0   1    2.76    0.66
   4   0   1    2.92    0.47
   4   0   1    3.71    0.50
   4   0   1    5.18    0.84
   4   0   1    3.16    0.65
   4   0   1    2.57    0.60
   4   0   1    3.33    0.55
  -5   0  -1    1.56    0.80
  -5   0  -1    1.01    0.90
  -5   0  -1    2.40    0.58
   5   0   1    1.62    0.67
   5   0   1    1.49    0.82
   5   0   1    4.07    0.90
   5   0   1    1.54    0.49
   5   0   1    2.21    0.50
   5   0   1    1.17    0.63
   5   0   1    2.31    0.49
  -6   0  -1   13.66    1.90
  -6   0  -1   12.89    1.51
   6   0   1   13.09    1.11
   6   0   1   11.23    1.53
   6   0   1   14.45    1.31
   6   0   1   14.47    1.06
   6   0   1   12.86    1.25
   6   0   1   13.09    1.06
   6   0   1   16.46    1.89
   6   0   1   11.75    1.06
  -7   0  -1   -0.13    1.11
  -7   0  -1    0.29    1.04
   7   0   1    0.99    0.52
   7   0   1    1.18    1.07
   7   0   1    0.58    1.00
   7   0   1    0.51    0.54
   7   0   1    0.68    0.54
   7   0   1    0.89    0.92
   7   0   1    1.15    0.83
   7   0   1   -0.01    0.62
  -8   0  -1   10.58    1.81
  -8   0  -1   11.05    2.04
   8   0   1   11.94    1.11
   8   0   1   11.49    1.05
   8   0   1    9.75    1.52
   8   0   1   11.86    1.03
   8   0   1   11.05    1.42
   8   0   1   12.51    1.23
   8   0   1   11.43    1.71
  -9   0  -1    1.87    1.06
   9   0   1    1.03    1.10
   9   0   1   -0.57    0.88
   9   0   1    0.14    0.54
   9   0   1    0.29    0.79
   9   0   1   -1.57    1.01
   9  -1  -1    4.07    1.20
   9  -1  -1    2.42    1.03
   9  -1  -1    0.94    1.15
   9  -1  -1    0.69    0.79
   9  -1  -1    3.25    1.44
   9  -1  -1    2.48    0.89
  -9   1   1    0.82    1.21
   8  -1  -1   -0.88    0.93
   8  -1  -1   -0.15    0.77
   8  -1  -1    0.66    0.83
   8  -1  -1    0.64    0.84
   8  -1  -1    1.21    0.58
   8  -1  -1    0.52    0.71
  -8   1   1   -0.15    1.05
   7  -1  -1    2.92    0.68
   7  -1  -1    4.53    1.14
   7  -1  -1    3.13    0.92
   7  -1  -1    5.53    0.86
   7  -1  -1    3.68    0.75
   7  -1  -1    4.32    0.87
   7  -1  -1    4.64    1.18
  -7   1   1    3.04    1.16
   6  -1  -1   31.36    2.38
   6  -1  -1   37.80    2.28
   6  -1  -1   34.32    2.18
   6  -1  -1   32.03    2.28
   6  -1  -1   34.87    2.33
   6  -1  -1   36.40    2.19
   6  -1  -1   29.01    2.10
   6  -1  -1   39.07    2.44
   6  -1  -1   32.90    2.66
   6  -1  -1   38.10    2.20
   6  -1  -1   33.16    2.33
  -6   1   1   38.00    2.78
  -6   1   1   37.46    2.46
   5  -1  -1   50.05    2.91
   5  -1  -1   48.36    3.13
   5  -1  -1   48.76    2.87
   5  -1  -1   47.14    2.71
   5  -1  -1   52.57    2.79
   5  -1  -1   45.98    2.84
   5  -1  -1   48.63    2.84
   5  -1  -1   42.54    2.71
   5  -1  -1   51.32    2.93
   5  -1  -1   48.76    2.74
  -5   1   1   45.41    3.14
   4  -1  -1  191.78   10.26
   4  -1  -1  174.94   10.07
   4  -1  -1  193.78   10.03
   4  -1  -1  201.86   10.07
   4  -1  -1  196.38    9.98
   4  -1  -1  188.65   10.06
   4  -1  -1  190.31   10.02
   4  -1  -1  194.51   10.12
   4  -1  -1  193.20   10.01
  -4   1   1  213.40   10.33
  -4   1   1  201.80   10.14
  -4   1   1  189.14   10.02
   3  -1  -1  136.94    7.04
   3  -1  -1  109.58    7.01
   3  -1  -1  129.25    6.79
   3  -1  -1  123.05    6.79
   3  -1  -1  141.23    6.72
  -3   1   1  134.97    6.70
  -3   1   1  140.64    6.69
  -3   1   1  127.23    6.74
  -3   1   1  116.18    6.86
   1  -1  -1  219.36   12.11
   1  -1  -1  235.71   12.03
  -1   1   1  238.53   12.04
  -1   1   1  253.86   11.97
   0  -1  -1   11.62    0.71
   0  -1  -1   12.57    0.98
   0  -1  -1   12.19    0.78
   0   1   1   12.19    0.73
   0   1   1   11.65    0.73
   0   1   1   11.14    0.73
  -3  -1  -1   33.73    2.11
  -3  -1  -1   34.03    2.28
  -3  -1  -1   39.14    2.25
  -3  -1  -1   39.29    2.17
   3   1   1   34.94    2.28
   3   1   1   36.06    2.06
   3   1   1   40.46    2.22
   3   1   1   36.01    2.24
   3   1   1   35.46    1.91
   3   1   1   31.98    2.20
   3   1   1   42.43    1.93
   3   1   1   36.34    2.23
  -4  -1  -1  138.92    6.66
  -4  -1  -1  129.15    6.81
  -4  -1  -1  110.69    6.50
  -4  -1  -1  123.03    6.77
   4   1   1  120.31    6.75
   4   1   1  123.68    6.75
   4   1   1  121.06    6.40
   4   1   1  118.94    7.02
   4   1   1  141.66    6.76
   4   1   1  129.43    6.76
   4   1   1  127.97    6.56
   4   1   1  121.63    6.40
  -5  -1  -1    0.12    0.38
  -5  -1  -1    0.73    0.60
  -5  -1  -1    0.18    0.79
  -5  -1  -1    0.88    0.80
   5   1   1    1.55    0.57
   5   1   1    1.44    0.33
   5   1   1    1.21    0.87
   5   1   1    1.46    0.79
   5   1   1    2.19    0.71
   5   1   1    0.76    0.32
   5   1   1    1.29    0.67
   5   1   1    0.16    0.67
  -6  -1  -1   -0.53    0.82
  -6  -1  -1   -0.60    1.29
   6   1   1    0.30    1.28
   6   1   1    1.30    0.37
   6   1   1    0.21    0.62
   6   1   1    0.76    0.93
   6   1   1    0.78    0.87
  -7  -1  -1    0.35    1.02
  -7  -1  -1   -1.46    0.90
   7   1   1    0.90    0.72
   7   1   1   -0.45    1.09
   7   1   1    0.57    0.33
   7   1   1   -0.86    0.92
   7   1   1   -0.22    0.44
   7   1   1    0.03    0.85
  -8  -1  -1    3.03    1.36
  -8  -1  -1    4.74    1.30
   8   1   1    3.29    0.91
   8   1   1    4.55    1.36
  -9  -1  -1   -0.96    1.22
   9   1   1    0.47    1.17
   9   1   1   -0.31    0.77
   9  -2  -1    6.12    1.04
   9  -2  -1    5.97    2.38
   9  -2  -1    4.88    1.09
   9  -2  -1    6.76    1.23
   9  -2  -1   10.06    1.52
   9  -2  -1    7.18    1.45
   8  -2  -1    9.00    1.30
   8  -2  -1   12.24    1.48
   8  -2  -1   18.04    2.31
   8  -2  -1   13.32    2.04
   8  -2  -1   12.03    1.48
   7  -2  -1    0.02    0.66
   7  -2  -1   -0.92    0.66
   7  -2  -1   -1.19    0.67
   7  -2  -1    0.04    0.72
   7  -2  -1    1.44    0.70
   7  -2  -1    0.81    0.57
   7  -2  -1   -0.20    0.59
   7  -2  -1   -0.30    0.71
   7  -2  -1   -0.69    0.79
   6  -2  -1    0.04    0.62
   6  -2  -1   -0.40    0.46
   6  -2  -1    1.03    0.78
   6  -2  -1   -0.69    0.62
   6  -2  -1   -0.15    0.70
   6  -2  -1   -0.32    0.48
   6  -2  -1   -0.61    0.72
   6  -2  -1   -0.33    0.59
   6  -2  -1    0.49    0.68
   6  -2  -1   -0.40    0.55
   6  -2  -1    0.27    0.92
   6  -2  -1   -0.05    0.60
  -6   2   1    0.12    1.03
   5  -2  -1  218.06   11.24
   5  -2  -1  212.68   11.31
   5  -2  -1  235.24   11.30
   5  -2  -1  214.80   11.22
   5  -2  -1  214.28   11.55
   5  -2  -1  215.87   11.25
   5  -2  -1  206.77   11.19
   5  -2  -1  217.06   11.14
   5  -2  -1  214.04   11.19
   5  -2  -1  215.63   11.16
   5  -2  -1  212.51   11.11
  -5   2   1  212.20   11.36
  -5   2   1  212.13   11.56
   4  -2  -1    0.35    0.53
   4  -2  -1    1.04    0.52
   4  -2  -1    1.00    0.49
   4  -2  -1    1.11    0.45
   4  -2  -1    0.42    0.46
   4  -2  -1    0.80    0.48
   4  -2  -1    0.33    0.74
   4  -2  -1    1.18    0.52
   4  -2  -1    0.06    0.57
   4  -2  -1    0.08    0.39
  -4   2   1    1.46    0.47
  -4   2   1    1.24    0.90
  -4   2   1    1.35    0.65
   3  -2  -1   74.13    3.97
   3  -2  -1   75.98    3.93
   3  -2  -1   71.03    3.96
   3  -2  -1   72.68    3.88
   3  -2  -1   74.28    3.88
   3  -2  -1   68.96    3.85
   3  -2  -1   72.68    3.98
   3  -2  -1   73.39    4.23
   3  -2  -1   72.58    3.91
  -3   2   1   73.21    3.88
  -3   2   1   72.73    3.97
  -3   2   1   73.59    3.91
   2  -2  -1  272.66   15.34
   2  -2  -1  309.82   15.37
   2  -2  -1  310.43   15.74
   2  -2  -1  308.51   15.41
   2  -2  -1  308.25   15.59
   2  -2  -1  308.23   15.65
   2  -2  -1  316.95   15.46
   2  -2  -1  279.95   15.48
  -2   2   1  292.34   15.42
  -2   2   1  325.06   15.43
  -2   2   1  313.01   15.46
  -2   2   1  295.58   15.58
  -2   2   1  305.35   15.49
   1  -2  -1  233.61   11.73
   1  -2  -1  238.04   11.73
   1  -2  -1  227.09   11.89
   1  -2  -1  239.09   11.77
   1  -2  -1  223.60   11.77
   1  -2  -1  210.84   11.79
  -1   2   1  238.96   11.77
  -1   2   1  237.29   11.80
  -1   2   1  247.83   11.73
  -1   2   1  240.91   11.74
  -1   2   1  224.41   11.77
  -1   2   1  204.49   11.86
   0  -2  -1    8.66    0.73
   0  -2  -1   10.61    0.79
   0  -2  -1   10.79    0.79
   0  -2  -1   10.48    0.77
   0  -2  -1   11.69    0.91
   0   2   1   12.51    0.71
   0   2   1   11.35    0.77
   0   2   1   11.01    0.68
   0   2   1   10.18    0.81
   0   2   1   10.45    0.85
   0   2   1   10.31    0.97
   0   2   1   10.95    0.76
  -1  -2  -1    4.12    0.79
  -1  -2  -1    3.64    0.49
  -1  -2  -1    3.70    0.60
  -1  -2  -1    2.89    0.40
  -1  -2  -1    2.99    0.46
  -1  -2  -1    4.26    0.59
   1   2   1    3.01    0.50
   1   2   1    4.25    0.67
   1   2   1    3.88    0.55
   1   2   1    3.01    0.57
   1   2   1    2.33    0.52
   1   2   1    2.84    0.52
   1   2   1    2.55    0.40
   1   2   1    3.63    0.48
  -2  -2  -1   40.55    2.22
  -2  -2  -1   38.27    1.87
  -2  -2  -1   33.91    2.08
  -2  -2  -1   36.55    2.05
   2   2   1   34.01    1.86
   2   2   1   35.23    2.12
   2   2   1   36.46    2.14
   2   2   1   34.60    2.13
   2   2   1   36.94    2.06
   2   2   1   36.79    2.17
   2   2   1   35.86    2.18
   2   2   1   33.89    2.11
  -3  -2  -1   85.05    4.54
  -3  -2  -1   70.86    4.39
  -3  -2  -1   83.73    4.49
  -3  -2  -1   81.63    4.36
   3   2   1   82.43    4.38
   3   2   1   73.30    4.44
   3   2   1   87.02    4.50
   3   2   1   82.96    4.51
   3   2   1   81.69    4.52
   3   2   1   92.26    4.58
   3   2   1   78.31    4.47
  -4  -2  -1   46.88    2.96
  -4  -2  -1   53.22    3.09
  -4  -2  -1   45.43    2.79
  -4  -2  -1   45.12    3.02
   4   2   1   48.46    2.94
   4   2   1   49.52    2.97
   4   2   1   46.47    2.97
   4   2   1   52.71    2.84
   4   2   1   54.60    3.05
   4   2   1   51.39    3.22
   4   2   1   51.63    3.05
  -5  -2  -1   15.99    1.28
  -5  -2  -1   16.43    1.66
  -5  -2  -1   17.12    1.66
   5   2   1   19.07    1.65
   5   2   1   17.37    1.50
   5   2   1   18.30    1.54
   5   2   1   17.11    1.61
   5   2   1   14.93    1.59
  -6  -2  -1   13.91    1.14
  -6  -2  -1   11.07    1.53
  -6  -2  -1   10.22    1.54
   6   2   1   11.01    1.46
   6   2   1   12.26    1.15
   6   2   1   12.52    1.52
   6   2   1    9.53    1.46
  -7  -2  -1    8.59    1.46
  -7  -2  -1    6.66    2.31
   7   2   1    6.17    1.03
   7   2   1    5.31    1.34
   7   2   1    3.28    1.23
   7   2   1    5.14    1.33
  -8  -2  -1    4.70    1.43
   8   2   1    6.19    1.49
   8   2   1    5.08    1.05
   8   2   1    4.82    1.41
  -9  -2  -1   13.59    2.03
   9   2   1   13.93    2.03
   9   2   1    9.10    1.68
   9  -3  -1    1.15    0.91
   9  -3  -1    1.10    1.51
   9  -3  -1   -0.03    1.03
   9  -3  -1    1.54    1.05
   9  -3  -1    0.66    0.99
   9  -3  -1    0.26    0.92
   9  -3  -1   -0.14    0.72
   8  -3  -1   17.86    1.78
   8  -3  -1   18.90    1.63
   8  -3  -1   19.09    1.78
   8  -3  -1   19.01    1.57
   8  -3  -1   22.02    1.84
   8  -3  -1   16.76    1.77
   7  -3  -1    8.93    1.12
   7  -3  -1    9.03    1.28
   7  -3  -1   11.00    1.04
   7  -3  -1   11.61    1.17
   7  -3  -1    9.94    1.29
   7  -3  -1   11.94    2.05
   7  -3  -1    9.37    1.40
   7  -3  -1   10.00    1.05
   6  -3  -1    2.42    0.72
   6  -3  -1    2.08    0.80
   6  -3  -1    3.35    0.81
   6  -3  -1    4.25    0.73
   6  -3  -1    2.45    0.80
   6  -3  -1    1.49    0.67
   6  -3  -1    3.61    0.90
   6  -3  -1    3.32    0.72
  -6   3   1    3.12    0.87
  -6   3   1    2.47    0.68
   5  -3  -1   25.45    1.72
   5  -3  -1   26.10    1.75
   5  -3  -1   27.27    2.34
   5  -3  -1   24.58    1.86
   5  -3  -1   26.81    1.73
   5  -3  -1   26.75    1.66
   5  -3  -1   28.55    1.76
   5  -3  -1   26.43    1.96
   5  -3  -1   27.14    1.83
  -5   3   1   26.24    1.93
  -5   3   1   25.60    1.85
   4  -3  -1   12.56    0.94
   4  -3  -1   11.34    1.02
   4  -3  -1   11.05    1.43
   4  -3  -1   11.28    0.96
   4  -3  -1   11.36    1.10
   4  -3  -1   11.34    0.92
   4  -3  -1   11.18    1.49
   4  -3  -1   11.71    0.91
   4  -3  -1   11.21    1.09
  -4   3   1   12.08    0.98
  -4   3   1   12.28    0.94
   3  -3  -1  166.04    7.94
   3  -3  -1  152.56    7.74
   3  -3  -1  147.56    8.16
   3  -3  -1  155.31    7.82
   3  -3  -1  154.44    7.70
   3  -3  -1  157.91    7.91
   3  -3  -1  148.09    7.83
  -3   3   1  148.14    7.74
  -3   3   1  155.59    7.83
  -3   3   1  129.07    7.82
  -3   3   1  132.06    7.76
  -3   3   1  152.36    7.90
   2  -3  -1  513.29   25.04
   2  -3  -1  508.15   25.20
   2  -3  -1  418.95   24.91
   2  -3  -1  496.01   25.37
   2  -3  -1  504.25   25.12
   2  -3  -1  494.01   24.92
   2  -3  -1  557.52   25.39
   2  -3  -1  491.85   25.16
  -2   3   1  474.58   25.14
  -2   3   1  523.83   25.13
  -2   3   1  450.77   25.13
  -2   3   1  500.15   25.08
   1  -3  -1   26.96    1.58
   1  -3  -1   28.68    1.63
   1  -3  -1   29.90    1.94
   1  -3  -1   25.16    1.54
   1  -3  -1   25.87    1.64
   1  -3  -1   24.51    1.69
  -1   3   1   25.75    1.59
  -1   3   1   25.89    1.63
  -1   3   1   26.63    1.55
  -1   3   1   25.40    1.64
  -1   3   1   27.60    1.65
   0  -3  -1  179.77    9.15
   0  -3  -1  179.91    9.18
   0  -3  -1  202.22    9.35
   0  -3  -1  165.05    9.16
   0  -3  -1  167.25    9.24
   0  -3  -1  183.24    9.18
   0   3   1  175.01    9.05
   0   3   1  180.40    9.16
   0   3   1  176.45    9.18
   0   3   1  169.97    9.04
   0   3   1  188.75    9.18
   0   3   1  167.91    9.13
   0   3   1  173.47    9.23
  -1  -3  -1  164.28    8.23
  -1  -3  -1  170.32    8.25
  -1  -3  -1  141.16    8.01
  -1  -3  -1  165.83    8.18
  -1  -3  -1  135.20    8.07
  -1  -3  -1  171.11    8.13
   1   3   1  137.38    8.10
   1   3   1  162.29    8.16
   1   3   1  170.35    8.20
   1   3   1  151.68    8.04
   1   3   1  155.09    8.07
   1   3   1  157.74    8.02
   1   3   1  153.28    8.11
   1   3   1  150.18    8.19
  -2  -3  -1   36.53    2.23
  -2  -3  -1   34.92    1.95
  -2  -3  -1   35.43    2.27
  -2  -3  -1   35.22    2.12
  -2  -3  -1   36.96    2.15
   2   3   1   34.83    2.14
   2   3   1   35.15    2.26
   2   3   1   40.53    2.25
   2   3   1   35.68    2.18
   2   3   1   34.28    1.94
   2   3   1   37.36    2.24
   2   3   1   33.41    2.14
   2   3   1   36.41    2.16
  -3  -3  -1   14.99    1.08
  -3  -3  -1   11.91    1.22
  -3  -3  -1   13.53    1.09
  -3  -3  -1   13.18    0.75
  -3  -3  -1   13.93    1.51
   3   3   1   12.90    1.17
   3   3   1   13.39    1.11
   3   3   1   15.56    1.23
   3   3   1   10.86    1.21
   3   3   1   16.53    1.35
   3   3   1   11.06    1.17
   3   3   1   12.90    1.39
  -4  -3  -1   37.64    2.45
  -4  -3  -1   49.23    2.62
  -4  -3  -1   41.30    2.74
  -4  -3  -1   39.57    2.57
   4   3   1   37.63    2.66
   4   3   1   37.84    2.62
   4   3   1   44.87    2.68
   4   3   1   39.45    2.62
   4   3   1   42.50    2.67
   4   3   1   46.47    2.55
   4   3   1   41.45    2.70
  -5  -3  -1    6.04    1.20
  -5  -3  -1    8.33    1.34
  -5  -3  -1    8.20    1.02
   5   3   1    7.98    1.11
   5   3   1    6.58    1.21
   5   3   1    8.73    1.35
   5   3   1    8.14    1.26
  -6  -3  -1    2.63    0.96
  -6  -3  -1    0.37    1.02
   6   3   1    1.67    1.04
   6   3   1    2.01    0.89
   6   3   1    4.02    1.44
  -7  -3  -1    6.34    0.72
  -7  -3  -1    6.45    1.51
   7   3   1    8.05    1.14
   7   3   1    9.20    1.55
   7   3   1   10.95    1.64
  -8  -3  -1   -1.47    1.12
   8   3   1   -0.17    1.05
   8   3   1    1.28    1.28
   8   3   1    0.67    1.51
   9  -4  -1    1.35    0.96
   9  -4  -1    1.82    1.09
   9  -4  -1    3.14    1.06
   9  -4  -1    3.88    1.22
   9  -4  -1    4.12    1.70
   9  -4  -1    3.65    0.93
   9  -4  -1    1.29    1.05
   8  -4  -1   11.21    1.40
   8  -4  -1   12.13    1.50
   8  -4  -1    9.26    1.48
   8  -4  -1    9.28    1.11
   8  -4  -1   12.61    2.27
   8  -4  -1   18.02    2.26
   8  -4  -1   10.53    1.32
   7  -4  -1    1.34    1.56
   7  -4  -1    1.11    0.79
   7  -4  -1    0.37    0.83
   7  -4  -1    0.64    0.73
   7  -4  -1    1.13    0.62
   7  -4  -1    0.98    0.67
   7  -4  -1    0.19    0.59
  -7   4   1   -0.12    0.89
   6  -4  -1   16.60    1.56
   6  -4  -1   16.73    1.22
   6  -4  -1   15.36    1.30
   6  -4  -1   18.61    2.19
   6  -4  -1   12.92    1.20
   6  -4  -1   13.31    1.49
   6  -4  -1   13.26    1.34
   6  -4  -1   14.75    1.28
  -6   4   1   12.85    1.35
  -6   4   1   12.82    1.58
   5  -4  -1    0.15    0.47
   5  -4  -1    0.00    0.43
   5  -4  -1    0.47    0.48
   5  -4  -1   -2.24    1.28
   5  -4  -1    0.53    0.67
   5  -4  -1    0.12    0.55
   5  -4  -1    0.10    0.69
   5  -4  -1   -0.27    0.56
   5  -4  -1   -0.22    0.66
  -5   4   1   -0.28    0.53
  -5   4   1   -0.55    0.71
   4  -4  -1    3.77    0.55
   4  -4  -1    4.93    0.72
   4  -4  -1    4.92    0.76
   4  -4  -1    4.24    0.87
   4  -4  -1    3.39    1.37
   4  -4  -1    3.93    0.56
   4  -4  -1    5.25    1.02
   4  -4  -1    3.71    1.08
   4  -4  -1    3.74    0.59
  -4   4   1    3.42    0.62
  -4   4   1    3.66    0.80
  -4   4   1    4.07    0.59
  -4   4   1    4.20    0.81
   3  -4  -1   -0.09    0.32
   3  -4  -1   -0.28    0.74
   3  -4  -1    0.10    0.59
   3  -4  -1    0.10    0.21
   3  -4  -1    0.27    0.36
   3  -4  -1   -0.08    0.56
   3  -4  -1   -0.06    0.49
   3  -4  -1   -0.69    0.94
   3  -4  -1   -0.13    0.20
  -3   4   1   -0.21    0.34
  -3   4   1   -0.29    0.46
  -3   4   1    0.25    0.60
  -3   4   1    0.49    0.48
  -3   4   1    0.11    0.37
   2  -4  -1    0.39    0.44
   2  -4  -1   -0.37    0.75
   2  -4  -1   -0.21    0.71
   2  -4  -1    0.62    0.47
   2  -4  -1    0.36    0.59
   2  -4  -1    0.09    0.36
   2  -4  -1   -0.15    0.55
  -2   4   1    0.02    0.46
  -2   4   1    0.00    0.41
  -2   4   1   -0.23    0.47
  -2   4   1   -0.09    0.37
  -2   4   1    0.42    0.51
   1  -4  -1  376.95   19.83
   1  -4  -1  379.14   19.70
   1  -4  -1  386.14   19.82
   1  -4  -1  382.36   19.60
   1  -4  -1  364.56   19.60
   1  -4  -1  390.67   19.59
   1  -4  -1  399.74   19.56
  -1   4   1  368.19   19.66
  -1   4   1  386.75   19.52
  -1   4   1  386.39   19.62
  -1   4   1  371.49   19.59
  -1   4   1  408.57   19.60
   0  -4  -1   -0.19    0.66
   0  -4  -1   -0.01    0.40
   0  -4  -1    0.38    0.49
   0  -4  -1   -0.43    0.46
   0  -4  -1    0.51    0.63
   0  -4  -1   -0.19    0.45
   0   4   1   -0.44    0.26
   0   4   1    0.16    0.34
   0   4   1   -0.70    0.47
   0   4   1   -0.18    0.53
   0   4   1   -0.07    0.70
   0   4   1   -0.32    0.52
   0   4   1    0.32    0.47
   0   4   1   -0.30    0.53
  -1  -4  -1   12.33    1.40
  -1  -4  -1   13.97    1.27
  -1  -4  -1   11.04    0.94
  -1  -4  -1   12.56    0.98
  -1  -4  -1   11.52    1.10
  -1  -4  -1   10.46    0.94
   1   4   1   15.15    1.01
   1   4   1   13.18    1.02
   1   4   1   11.90    1.22
   1   4   1   11.55    0.95
   1   4   1   11.84    0.97
   1   4   1   11.64    1.04
   1   4   1   11.88    1.10
   1   4   1   11.09    1.16
  -2  -4  -1   53.16    3.02
  -2  -4  -1   46.79    2.81
  -2  -4  -1   47.17    2.64
  -2  -4  -1   49.69    2.93
  -2  -4  -1   45.06    3.12
  -2  -4  -1   51.66    2.83
   2   4   1   46.63    2.63
   2   4   1   46.69    2.81
   2   4   1   49.90    2.88
   2   4   1   45.93    2.94
   2   4   1   51.94    2.89
   2   4   1   44.37    2.88
   2   4   1   51.05    2.88
   2   4   1   46.54    2.80
  -3  -4  -1    0.80    0.54
  -3  -4  -1    0.01    0.70
  -3  -4  -1   -0.03    0.68
  -3  -4  -1   -0.21    0.56
  -3  -4  -1    0.34    0.31
   3   4   1    0.39    0.31
   3   4   1    0.17    0.56
   3   4   1    0.32    0.53
   3   4   1   -0.72    0.76
   3   4   1   -0.05    0.64
   3   4   1    0.89    0.76
   3   4   1    0.32    0.59
   3   4   1    0.00    0.66
  -4  -4  -1    0.27    0.54
  -4  -4  -1   -0.11    0.60
  -4  -4  -1   -0.74    0.79
   4   4   1   -1.75    0.86
   4   4   1    0.05    0.72
   4   4   1    0.41    0.71
   4   4   1    1.56    0.61
  -5  -4  -1    2.72    0.80
  -5  -4  -1    0.95    1.02
   5   4   1    4.35    1.19
   5   4   1    3.11    0.92
   5   4   1    1.40    0.70
   5   4   1    2.84    1.07
  -6  -4  -1    1.12    2.03
   6   4   1    1.87    1.11
   6   4   1    1.48    1.14
   6   4   1    0.83    0.66
   6   4   1    4.08    0.97
  -7  -4  -1    7.76    0.72
   7   4   1   15.46    2.46
   7   4   1    7.56    1.10
   7   4   1   12.17    1.82
  -8  -4  -1    1.51    1.38
   8   4   1    0.67    0.94
   8   4   1   -0.86    1.18
   8   4   1   -0.05    1.39
   9  -5  -1    2.90    1.36
   9  -5  -1    0.54    0.72
   9  -5  -1    3.60    1.79
   9  -5  -1    2.41    0.97
   9  -5  -1    0.88    0.95
   9  -5  -1    1.11    1.13
   9  -5  -1    1.01    0.77
   8  -5  -1    0.76    0.88
   8  -5  -1    2.28    1.18
   8  -5  -1    2.10    0.89
   8  -5  -1    1.98    0.74
   8  -5  -1    2.67    0.67
   8  -5  -1    1.98    1.71
   8  -5  -1    1.33    0.77
  -8   5   1    2.90    1.06
   7  -5  -1   -0.11    1.38
   7  -5  -1   -0.22    0.62
   7  -5  -1    0.17    0.55
   7  -5  -1    1.43    1.05
   7  -5  -1    1.49    0.53
   7  -5  -1    1.34    0.57
   7  -5  -1   -0.04    0.77
  -7   5   1    0.03    0.86
  -7   5   1   -0.53    0.60
   6  -5  -1    9.50    0.98
   6  -5  -1    8.20    1.33
   6  -5  -1    8.38    1.00
   6  -5  -1    7.27    0.93
   6  -5  -1    8.99    1.38
   6  -5  -1   11.59    0.92
  -6   5   1    9.41    1.11
  -6   5   1   10.02    1.45
   5  -5  -1    6.32    1.21
   5  -5  -1    5.61    0.75
   5  -5  -1   10.44    1.99
   5  -5  -1    5.86    0.80
   5  -5  -1    6.14    0.95
   5  -5  -1    7.02    1.09
   5  -5  -1    7.27    0.78
  -5   5   1    5.99    0.85
  -5   5   1    7.01    1.01
  -5   5   1    7.09    1.25
  -5   5   1    8.49    0.81
   4  -5  -1   -0.05    1.20
   4  -5  -1    0.23    0.30
   4  -5  -1   -0.94    0.50
   4  -5  -1    0.00    0.26
   4  -5  -1   -0.54    0.39
   4  -5  -1   -0.05    0.74
   4  -5  -1    0.04    0.57
  -4   5   1   -0.69    0.72
  -4   5   1    0.72    0.68
  -4   5   1    0.05    0.52
  -4   5   1    0.07    0.59
  -4   5   1    0.33    0.45
   3  -5  -1  119.26    7.18
   3  -5  -1  119.90    6.77
   3  -5  -1  121.52    7.14
   3  -5  -1  121.55    6.70
   3  -5  -1  130.54    7.16
   3  -5  -1  122.80    6.51
   3  -5  -1  127.65    6.87
  -3   5   1  135.18    6.69
  -3   5   1  121.67    6.51
  -3   5   1  125.65    6.69
  -3   5   1  123.89    6.76
  -3   5   1  125.85    6.78
   2  -5  -1   37.38    2.17
   2  -5  -1   37.12    2.33
   2  -5  -1   44.22    2.51
   2  -5  -1   35.83    2.78
   2  -5  -1   36.86    2.49
   2  -5  -1   37.44    2.32
   2  -5  -1   31.93    2.65
  -2   5   1   38.22    2.19
  -2   5   1   37.79    2.31
  -2   5   1   39.81    2.39
  -2   5   1   38.26    2.32
   1  -5  -1    1.30    0.57
   1  -5  -1    0.90    0.89
   1  -5  -1    1.55    0.63
   1  -5  -1    1.69    0.48
   1  -5  -1    1.19    0.59
   1  -5  -1    2.04    1.39
   1  -5  -1    1.92    0.64
  -1   5   1    1.41    0.53
  -1   5   1    1.81    0.66
  -1   5   1    1.65    0.60
  -1   5   1    1.51    0.65
  -1   5   1    1.65    0.19
   0  -5  -1   68.91    3.98
   0  -5  -1   65.92    3.77
   0  -5  -1   77.92    4.14
   0  -5  -1   64.80    3.82
   0  -5  -1   62.89    3.93
   0   5   1   63.83    3.57
   0   5   1   66.15    3.81
   0   5   1   68.99    3.82
   0   5   1   64.81    3.73
   0   5   1   65.62    3.56
   0   5   1   71.11    3.79
   0   5   1   67.53    3.95
  -1  -5  -1   -0.13    0.47
  -1  -5  -1    0.97    0.75
  -1  -5  -1   -0.32    0.54
  -1  -5  -1    0.13    0.54
  -1  -5  -1    0.44    0.89
  -1  -5  -1   -0.36    0.47
   1   5   1    0.84    0.62
   1   5   1    0.20    0.41
   1   5   1   -0.85    0.59
   1   5   1    0.40    0.65
   1   5   1   -0.80    0.54
   1   5   1   -0.12    0.52
   1   5   1    0.80    0.78
   1   5   1   -0.28    0.52
  -2  -5  -1    1.83    0.53
  -2  -5  -1    1.25    0.73
  -2  -5  -1    1.27    0.87
  -2  -5  -1    2.24    0.94
  -2  -5  -1    1.78    0.68
  -2  -5  -1    1.88    0.63
   2   5   1    0.36    0.67
   2   5   1    1.73    0.64
   2   5   1    1.84    0.80
   2   5   1    0.86    0.73
   2   5   1    1.75    0.82
   2   5   1    1.91    0.64
   2   5   1    0.56    0.74
   2   5   1    1.18    0.53
  -3  -5  -1    2.49    0.78
  -3  -5  -1    3.34    0.96
  -3  -5  -1    2.54    1.03
   3   5   1    3.87    0.90
   3   5   1    3.01    0.98
   3   5   1    2.57    0.90
   3   5   1    3.82    0.86
   3   5   1    3.59    1.00
   3   5   1    2.74    0.52
  -4  -5  -1    7.90    1.12
  -4  -5  -1    6.70    1.41
   4   5   1   14.19    2.24
   4   5   1    9.45    1.26
   4   5   1    9.45    1.34
  -5  -5  -1   18.30    2.11
   5   5   1   26.93    1.78
   5   5   1   24.48    2.11
   5   5   1   27.87    2.20
   5   5   1   20.89    1.93
  -6  -5  -1    6.53    1.64
  -6  -5  -1    9.13    0.66
   6   5   1    5.52    1.57
   6   5   1    5.30    1.46
   6   5   1    9.52    1.62
  -7  -5  -1    1.93    1.32
   7   5   1   -0.74    0.91
   7   5   1    0.65    1.36
   7   5   1    0.42    1.22
   8  -6  -1    0.32    1.02
   8  -6  -1    3.05    1.78
   8  -6  -1    1.74    1.22
   8  -6  -1    2.71    0.72
   8  -6  -1    1.23    0.72
  -8   6   1    2.86    1.17
  -8   6   1    1.33    0.86
   7  -6  -1    6.07    1.39
   7  -6  -1    4.71    1.21
   7  -6  -1    4.49    1.09
   7  -6  -1    3.41    0.71
   7  -6  -1    5.41    1.75
  -7   6   1    5.58    1.40
  -7   6   1    3.85    0.93
   6  -6  -1    0.25    0.43
   6  -6  -1    0.61    1.32
   6  -6  -1    0.10    0.42
   6  -6  -1   -0.46    0.79
   6  -6  -1   -0.66    0.95
   6  -6  -1   -0.04    0.49
  -6   6   1   -0.64    0.85
  -6   6   1   -0.67    0.65
   5  -6  -1   13.50    0.87
   5  -6  -1   11.74    2.23
   5  -6  -1   11.76    1.02
   5  -6  -1   10.90    1.46
   5  -6  -1   13.52    1.62
  -5   6   1   12.51    1.44
  -5   6   1   12.93    1.54
  -5   6   1   11.24    0.99
  -5   6   1   13.72    1.22
   4  -6  -1    0.32    1.20
   4  -6  -1    0.39    0.46
   4  -6  -1    0.52    0.88
   4  -6  -1    1.87    0.86
  -4   6   1    0.86    0.53
  -4   6   1    0.96    0.48
  -4   6   1    0.06    0.88
  -4   6   1   -0.46    0.66
   3  -6  -1    5.69    1.85
   3  -6  -1    5.20    0.90
   3  -6  -1    4.56    1.75
   3  -6  -1    3.60    0.62
  -3   6   1    4.09    0.90
  -3   6   1    3.51    0.71
  -3   6   1    3.06    0.59
   2  -6  -1   10.11    1.84
   2  -6  -1   10.77    1.71
   2  -6  -1   14.72    1.32
   2  -6  -1   13.73    1.06
   2  -6  -1   13.28    1.51
   2  -6  -1   13.27    1.36
   2  -6  -1   12.89    1.35
  -2   6   1   15.44    1.37
  -2   6   1   12.80    1.18
  -2   6   1   14.16    1.41
  -2   6   1   13.96    1.09
   1  -6  -1    5.42    0.94
   1  -6  -1    6.06    1.00
   1  -6  -1    4.21    1.13
   1  -6  -1    5.58    0.73
   1  -6  -1    6.67    1.02
   1  -6  -1    9.65    1.99
   1  -6  -1    6.31    1.17
  -1   6   1    5.10    0.98
  -1   6   1    5.06    0.83
  -1   6   1    6.49    0.94
  -1   6   1    6.79    1.07
   0  -6  -1   31.09    2.08
   0  -6  -1   31.50    2.00
   0  -6  -1   31.85    2.53
   0  -6  -1   31.29    2.17
   0  -6  -1   30.47    2.55
   0  -6  -1   33.24    2.41
   0   6   1   32.19    2.13
   0   6   1   32.40    2.15
   0   6   1   32.83    2.10
   0   6   1   29.09    1.81
   0   6   1   31.93    2.93
  -1  -6  -1    2.95    0.86
  -1  -6  -1    3.79    0.78
  -1  -6  -1    3.90    1.13
  -1  -6  -1    3.40    0.74
   1   6   1    1.79    0.71
   1   6   1    3.73    0.64
   1   6   1    3.82    0.94
   1   6   1    3.55    1.20
   1   6   1    4.32    0.89
  -2  -6  -1   10.84    1.62
  -2  -6  -1    8.66    0.96
  -2  -6  -1    8.31    1.30
  -2  -6  -1    9.53    1.49
   2   6   1    9.99    1.35
   2   6   1    9.48    1.13
   2   6   1    8.59    1.02
   2   6   1   11.62    1.19
   2   6   1   10.03    1.13
  -3  -6  -1    7.24    1.49
   3   6   1    8.29    1.20
   3   6   1    9.35    1.35
   3   6   1    8.87    1.34
   3   6   1    9.54    1.51
   3   6   1    8.44    0.89
  -4  -6  -1    1.21    1.98
  -4  -6  -1    0.71    0.19
   4   6   1    0.61    0.95
   4   6   1    0.46    1.14
   4   6   1    1.76    1.04
  -5  -6  -1   -0.82    1.17
   5   6   1    0.83    1.11
   5   6   1   -0.12    1.06
   5   6   1    0.62    0.99
  -6  -6  -1   -1.02    1.09
   6   6   1    0.21    1.19
   6   6   1    0.47    1.06
   6   6   1   -0.87    1.18
  -7  -6  -1   -0.13    1.87
   7   6   1   -0.77    1.26
   7   6   1    2.33    1.28
   8  -7  -1    0.78    1.14
   8  -7  -1    1.94    1.75
  -8   7   1    0.97    0.85
   7  -7  -1    0.92    0.48
   7  -7  -1    1.61    1.13
   7  -7  -1    0.08    1.51
   7  -7  -1    1.06    1.18
  -7   7   1   -0.66    0.99
  -7   7   1    0.83    0.76
   6  -7  -1    7.27    1.96
   6  -7  -1    3.00    1.14
   6  -7  -1    3.71    0.64
   6  -7  -1    4.90    1.35
   6  -7  -1    5.76    0.67
  -6   7   1    4.80    1.62
  -6   7   1    5.53    1.34
   5  -7  -1    6.38    1.41
   5  -7  -1    4.99    1.13
   5  -7  -1    7.17    1.82
   5  -7  -1    5.13    0.71
  -5   7   1    7.11    1.40
  -5   7   1    5.36    1.09
   4  -7  -1    0.46    0.44
   4  -7  -1   -1.17    1.47
   4  -7  -1   -0.73    0.66
  -4   7   1   -1.17    0.65
  -4   7   1   -0.12    0.35
   3  -7  -1    0.10    0.73
   3  -7  -1    1.15    1.00
   3  -7  -1   -0.13    0.44
   3  -7  -1   -1.67    1.04
  -3   7   1   -1.05    0.82
  -3   7   1   -0.24    0.71
  -3   7   1    1.05    0.58
  -3   7   1   -0.15    0.45
   2  -7  -1    0.26    0.89
   2  -7  -1   -0.76    0.94
   2  -7  -1   -0.22    0.45
   2  -7  -1   -0.50    0.65
  -2   7   1   -0.12    0.55
  -2   7   1    0.41    0.58
  -2   7   1    0.29    0.85
  -2   7   1   -0.23    0.78
   1  -7  -1    1.40    0.60
   1  -7  -1    3.10    0.92
   1  -7  -1    0.72    1.09
   1  -7  -1    1.61    1.06
   1  -7  -1   -0.01    1.59
  -1   7   1    1.23    0.87
  -1   7   1    1.27    0.98
  -1   7   1    1.19    0.69
  -1   7   1    1.69    0.74
   0  -7  -1    0.33    0.70
   0  -7  -1    0.25    1.03
   0  -7  -1    0.07    0.56
   0  -7  -1   -0.63    0.90
   0  -7  -1   -0.22    0.62
   0  -7  -1   -0.68    1.16
   0   7   1    0.62    0.75
   0   7   1    0.86    0.90
   0   7   1    0.08    0.18
   0   7   1    0.33    0.39
   0   7   1    0.47    0.76
  -1  -7  -1   76.67    4.89
  -1  -7  -1   74.04    5.04
  -1  -7  -1   76.32    4.58
  -1  -7  -1   73.52    4.77
   1   7   1   90.98    4.47
   1   7   1   86.38    4.79
   1   7   1   88.74    4.65
   1   7   1   85.25    4.75
  -2  -7  -1    0.62    1.12
  -2  -7  -1   -0.38    0.48
  -2  -7  -1   -0.91    0.89
  -2  -7  -1   -0.91    1.01
   2   7   1    0.03    0.62
   2   7   1   -0.35    0.94
   2   7   1    1.09    0.73
   2   7   1   -0.68    0.74
  -3  -7  -1    9.28    0.85
  -3  -7  -1   11.22    1.72
   3   7   1   12.21    1.06
   3   7   1   12.74    1.59
  -4  -7  -1    2.94    0.51
  -4  -7  -1    0.02    1.08
   4   7   1    0.00    1.00
  -5  -7  -1   -0.47    1.11
   5   7   1    2.21    1.30
   5   7   1    0.87    1.04
   5   7   1    3.54    1.30
  -6  -7  -1    1.82    1.29
   6   7   1   -0.74    1.23
   6   7   1    0.49    1.23
   6   7   1   -0.11    1.06
   7  -8  -1    5.85    1.47
   7  -8  -1    7.56    2.12
  -7   8   1    5.41    1.14
  -7   8   1    8.23    1.82
   6  -8  -1   -0.86    0.94
   6  -8  -1    0.01    1.14
   6  -8  -1    0.61    0.40
   6  -8  -1   -1.89    1.37
  -6   8   1   -0.66    0.78
  -6   8   1    0.25    1.05
   5  -8  -1    0.81    1.04
   5  -8  -1    0.85    1.13
   5  -8  -1    1.67    0.44
   5  -8  -1    0.46    1.36
  -5   8   1    1.52    0.89
  -5   8   1    2.05    1.20
   4  -8  -1    0.77    0.93
   4  -8  -1    1.31    0.48
   4  -8  -1    0.54    1.08
   4  -8  -1   -0.13    1.12
  -4   8   1    1.28    1.04
  -4   8   1    0.53    0.25
  -4   8   1    1.78    0.93
   3  -8  -1    1.30    1.27
   3  -8  -1    1.35    0.93
   3  -8  -1    2.19    0.54
   3  -8  -1    1.46    0.97
  -3   8   1    0.90    1.01
  -3   8   1    2.21    0.94
  -3   8   1    0.68    0.33
   2  -8  -1    8.58    1.38
   2  -8  -1    9.76    0.97
   2  -8  -1   10.01    2.01
   2  -8  -1   10.35    1.45
  -2   8   1   10.02    1.23
  -2   8   1    8.90    1.03
   1  -8  -1   11.75    1.79
   1  -8  -1   12.69    1.13
   1  -8  -1    9.75    1.33
  -1   8   1   10.43    1.38
  -1   8   1    8.47    1.24
  -1   8   1   10.10    1.16
   0  -8  -1   18.65    1.71
   0  -8  -1   12.62    2.29
   0  -8  -1   15.44    1.77
   0   8   1   17.49    1.57
   0   8   1   15.23    1.76
   0   8   1   16.39    1.68
  -1  -8  -1   14.41    1.78
  -1  -8  -1    9.90    1.79
  -1  -8  -1   11.41    1.62
  -1  -8  -1   10.06    1.98
   1   8   1   12.50    1.64
   1   8   1   10.74    1.49
  -2  -8  -1   -0.61    0.37
  -2  -8  -1    0.11    1.16
  -2  -8  -1    0.79    0.90
  -2  -8  -1   -0.88    1.08
   2   8   1    0.41    0.64
   2   8   1    0.23    1.51
   2   8   1    1.58    0.81
   2   8   1    0.75    1.07
  -3  -8  -1   23.87    2.34
  -3  -8  -1   17.22    1.40
   3   8   1   22.08    2.13
   3   8   1   19.15    2.00
   3   8   1   24.20    1.61
  -4  -8  -1    1.64    1.29
   4   8   1    1.26    1.06
   4   8   1    1.23    1.19
   4   8   1    1.57    1.26
  -5  -8  -1    7.23    2.70
   5   8   1    6.87    2.51
   5   8   1    4.20    1.56
   6  -9  -1   -1.25    1.04
   6  -9  -1    0.60    1.28
   6  -9  -1    0.51    1.48
  -6   9   1    2.03    0.97
  -6   9   1    1.77    1.28
   5  -9  -1   -1.65    1.05
   5  -9  -1    0.32    1.25
   5  -9  -1    0.02    1.37
  -5   9   1    1.45    0.98
   4  -9  -1   -0.41    1.13
   4  -9  -1   -0.35    1.17
   4  -9  -1    0.61    1.31
  -4   9   1    0.95    1.18
  -4   9   1    0.68    0.29
  -4   9   1    1.08    0.97
   3  -9  -1   -0.89    1.18
   3  -9  -1   -0.36    1.15
   3  -9  -1    1.08    0.48
   3  -9  -1   -0.44    1.28
  -3   9   1    0.94    1.05
  -3   9   1   -0.52    0.83
  -3   9   1    0.39    0.28
   2  -9  -1    2.62    1.21
   2  -9  -1    2.18    1.13
   2  -9  -1    2.08    1.34
  -2   9   1    1.88    1.03
  -2   9   1    1.31    0.45
  -2   9   1    2.50    1.12
   1  -9  -1    0.01    1.36
   1  -9  -1    1.55    1.38
   1  -9  -1   -0.96    1.14
  -1   9   1    0.50    0.83
  -1   9   1    0.62    0.81
  -1   9   1   -0.67    0.83
   0  -9  -1    1.35    0.96
   0  -9  -1   -1.44    1.17
   0  -9  -1    0.92    1.78
   0   9   1    1.33    1.07
   0   9   1    0.56    0.98
   0   9   1    0.02    0.78
  -1  -9  -1    3.72    1.57
  -1  -9  -1    5.69    1.69
  -1  -9  -1    6.94    1.32
   1   9   1    8.01    1.28
   1   9   1    7.08    1.32
   1   9   1    8.15    1.47
  -2  -9  -1    5.31    1.64
   2   9   1    6.05    1.09
   2   9   1    3.73    1.20
   2   9   1    5.66    1.43
  -3  -9  -1   17.77    2.69
   3   9   1   10.11    2.94
   3   9   1   13.26    1.98
   3   9   1   15.64    1.40
   4 -10  -1    1.35    1.58
   4 -10  -1    4.73    1.39
   4 -10  -1    3.72    1.67
  -4  10   1    8.24    1.74
  -4  10   1    6.48    2.08
   3 -10  -1    3.82    1.78
   3 -10  -1    6.09    1.26
   3 -10  -1    0.96    1.57
   2 -10  -1    0.42    1.50
   2 -10  -1    3.16    1.03
  -2  10   1    0.89    1.18
  -2  10   1    0.88    0.59
   1 -10  -1    0.71    0.81
  -1  10   1    0.27    1.79
  -1  10   1    0.28    1.03
  -1  10   1    0.04    0.42
   0 -10  -1    2.81    1.02
   0 -10  -1   -1.74    1.42
   0 -10  -1   -1.67    2.21
   0  10   1    3.64    1.11
   0  10   1   -0.71    0.76
   0  10   1   -0.85    1.03
  -1 -10  -1    3.99    1.18
   1  10   1    5.09    1.17
   1  10   1    0.79    1.09
   1  10   1    3.84    1.38
   1  10  -2    1.64    1.11
   1  10  -2    0.16    0.76
   1  10  -2    2.13    1.29
   1  10  -2    1.69    0.40
  -1 -10   2    1.31    2.68
  -1 -10   2    2.71    1.14
  -1 -10   2   -0.07    0.73
   0  10  -2   -0.31    0.39
   0  10  -2    0.10    1.10
   0 -10   2   -0.73    1.67
   0 -10   2   -0.42    1.17
   0 -10   2    1.03    1.07
  -1  10  -2    0.92    1.08
  -1  10  -2   -0.43    0.95
   1 -10   2   -0.85    1.35
   1 -10   2   -0.06    1.26
   1 -10   2    1.42    1.14
  -2  10  -2    0.85    0.32
  -2  10  -2    0.13    1.03
  -2  10  -2    0.09    1.09
   2 -10   2    0.92    1.19
   2 -10   2    0.13    1.29
  -3  10  -2    0.90    0.98
   3 -10   2    0.62    1.30
   3 -10   2   -1.31    1.18
   3 -10   2   -0.92    1.33
  -4  10  -2   13.52    1.92
  -4  10  -2   12.36    1.59
   4 -10   2    8.64    1.79
   4 -10   2    9.03    1.94
   4 -10   2   11.93    2.40
   4   9  -2    3.30    1.43
   4   9  -2    2.47    0.96
  -4  -9   2    5.74    1.69
   3   9  -2    0.86    1.71
   3   9  -2    2.72    0.72
   3   9  -2    1.00    1.13
   3   9  -2   -0.80    0.87
  -3  -9   2   -0.17    1.20
   2   9  -2    4.78    1.38
   2   9  -2    2.60    1.12
   2   9  -2    3.44    1.30
  -2  -9   2    4.22    1.29
  -2  -9   2    5.58    1.65
   1   9  -2    1.04    1.13
   1   9  -2   -0.19    1.04
   1   9  -2    1.06    0.84
  -1  -9   2    1.08    1.00
  -1  -9   2   -1.54    1.02
  -1  -9   2    0.11    1.27
   0   9  -2   -0.12    0.99
   0   9  -2   -0.43    0.54
   0   9  -2   -0.54    1.07
   0  -9   2   -0.76    1.01
   0  -9   2    1.23    0.55
   0  -9   2    0.07    0.98
   0  -9   2    1.14    1.28
  -1   9  -2    2.32    1.14
  -1   9  -2    1.59    1.05
   1  -9   2    1.15    1.25
   1  -9   2    0.36    1.20
   1  -9   2    1.76    1.08
  -2   9  -2    0.69    0.22
  -2   9  -2    1.27    0.97
  -2   9  -2   -0.34    1.01
   2  -9   2    1.30    1.06
   2  -9   2   -0.32    1.07
   2  -9   2   -0.04    1.15
  -3   9  -2    0.16    0.89
  -3   9  -2    0.93    1.11
   3  -9   2    0.80    1.32
   3  -9   2    0.10    0.89
   3  -9   2   -1.54    1.07
  -4   9  -2    8.09    1.65
  -4   9  -2    9.28    1.41
   4  -9   2    5.59    1.59
   4  -9   2    9.47    1.98
   4  -9   2    6.00    1.54
  -5   9  -2    1.42    0.97
   5  -9   2    1.83    1.11
   5   8  -2   11.50    1.73
   5   8  -2    7.75    2.78
   5   8  -2    6.49    1.67
  -5  -8   2    8.07    1.60
   4   8  -2    0.13    1.13
   4   8  -2   -0.04    1.18
   4   8  -2    1.04    1.22
   4   8  -2    2.89    0.90
  -4  -8   2   -0.42    1.08
   3   8  -2    2.47    1.22
   3   8  -2    3.97    1.28
   3   8  -2    3.09    1.10
   3   8  -2    1.65    1.01
  -3  -8   2    3.72    1.46
  -3  -8   2    3.00    1.17
   2   8  -2    0.65    0.97
   2   8  -2    0.40    0.88
   2   8  -2    0.56    0.85
  -2  -8   2    3.94    1.20
  -2  -8   2    2.74    1.28
   1   8  -2    7.23    1.40
   1   8  -2    6.42    1.17
   1   8  -2    7.96    1.28
  -1  -8   2    8.52    1.63
  -1  -8   2    8.02    1.50
  -1  -8   2    8.52    0.79
   0   8  -2   11.02    1.49
   0   8  -2   11.34    1.22
   0   8  -2   12.01    1.57
   0  -8   2   11.80    1.63
   0  -8   2   14.59    2.22
  -1   8  -2    2.51    1.23
  -1   8  -2    1.71    1.49
  -1   8  -2    0.99    0.51
   1  -8   2    2.09    1.01
   1  -8   2    2.80    1.26
   1  -8   2    2.35    1.11
   1  -8   2    2.57    0.54
  -2   8  -2   -0.37    1.01
  -2   8  -2    0.37    0.18
   2  -8   2   -0.19    0.92
   2  -8   2   -1.09    1.10
   2  -8   2    0.68    1.01
  -3   8  -2    5.53    1.42
  -3   8  -2    5.62    1.35
   3  -8   2    5.94    1.39
   3  -8   2    5.27    1.62
   3  -8   2    8.97    1.86
  -4   8  -2    5.28    1.40
   4  -8   2    2.50    1.14
   4  -8   2    6.91    1.57
   4  -8   2    9.26    2.08
  -5   8  -2    2.63    0.93
  -5   8  -2    4.33    1.31
   5  -8   2    1.83    1.64
   5  -8   2    2.95    1.28
   5  -8   2    4.74    1.39
  -6   8  -2   46.54    3.10
  -6   8  -2   51.33    3.52
   6  -8   2   45.58    3.47
   6  -8   2   49.48    3.69
  -7   8  -2    1.02    0.84
  -7   8  -2    1.76    1.16
   7  -8   2   -0.49    1.21
   7  -8   2    0.13    1.19
   7  -8   2    2.09    1.80
   6   7  -2    0.38    1.23
   6   7  -2    0.54    1.99
   6   7  -2    1.77    1.30
  -6  -7   2    1.73    1.15
   5   7  -2    1.13    1.27
   5   7  -2    2.81    1.31
   5   7  -2    5.78    1.40
   5   7  -2    3.69    0.74
  -5  -7   2    1.41    1.10
   4   7  -2    3.70    1.23
   4   7  -2    2.04    0.76
   4   7  -2    2.29    1.09
   4   7  -2    1.17    1.10
  -4  -7   2    1.29    1.09
   3   7  -2   13.54    1.52
   3   7  -2   13.97    1.41
   3   7  -2   13.05    1.69
  -3  -7   2   13.46    1.73
  -3  -7   2   14.71    1.79
   2   7  -2    0.33    0.59
   2   7  -2    0.38    1.03
   2   7  -2    0.76    0.91
   2   7  -2    0.37    0.75
  -2  -7   2    2.69    1.15
  -2  -7   2    0.97    0.94
  -2  -7   2    0.54    0.64
  -2  -7   2    1.39    0.81
  -2  -7   2   -0.69    0.87
   1   7  -2   22.69    1.95
   1   7  -2   17.51    1.59
   1   7  -2   22.20    1.73
   1   7  -2   20.11    1.80
  -1  -7   2   28.37    2.28
  -1  -7   2   18.71    2.37
  -1  -7   2   23.43    2.08
  -1  -7   2   22.29    1.61
  -1  -7   2   27.09    2.15
  -1  -7   2   20.82    2.01
   0   7  -2   36.20    2.54
   0   7  -2   33.52    2.29
   0  -7   2   38.74    2.82
   0  -7   2   33.93    2.14
   0  -7   2   37.54    2.65
   0  -7   2   34.69    2.70
   0  -7   2   35.29    2.14
   0  -7   2   37.09    4.23
  -1   7  -2    9.57    1.33
  -1   7  -2    6.97    1.31
  -1   7  -2    7.37    0.87
   1  -7   2    7.28    1.50
   1  -7   2    7.12    0.74
   1  -7   2    8.45    0.77
   1  -7   2    6.48    1.36
   1  -7   2    8.03    1.47
   1  -7   2   10.11    1.70
  -2   7  -2   -0.27    0.32
  -2   7  -2    0.34    0.12
  -2   7  -2   -1.05    0.71
  -2   7  -2   -0.29    0.92
   2  -7   2    0.25    0.98
   2  -7   2    0.22    1.17
   2  -7   2    0.87    0.87
   2  -7   2    0.26    0.31
  -3   7  -2   -1.99    0.88
  -3   7  -2   -0.51    0.69
   3  -7   2   -0.22    1.28
   3  -7   2   -1.41    0.82
   3  -7   2   -0.54    0.82
  -4   7  -2    0.55    0.71
  -4   7  -2   -0.43    0.98
   4  -7   2    0.08    0.31
   4  -7   2    0.31    0.33
   4  -7   2   -0.31    1.79
   4  -7   2    0.78    1.02
   4  -7   2    0.33    0.94
  -5   7  -2   28.20    2.03
  -5   7  -2   29.85    2.38
   5  -7   2   25.60    2.38
   5  -7   2   25.38    1.70
   5  -7   2   23.52    3.14
   5  -7   2   29.44    1.70
  -6   7  -2   34.22    2.39
  -6   7  -2   38.15    2.79
   6  -7   2   34.16    2.83
   6  -7   2   34.67    2.85
   6  -7   2   33.20    2.11
  -7   7  -2    1.44    1.12
  -7   7  -2    0.93    0.71
   7  -7   2    1.35    1.23
   7  -7   2    1.89    1.18
   7  -7   2    0.05    1.95
   7   6  -2    1.60    1.53
   7   6  -2    1.25    1.15
   7   6  -2    1.34    1.32
  -7  -6   2    2.52    1.13
   6   6  -2    1.90    1.30
   6   6  -2    1.92    1.17
   6   6  -2    0.28    1.13
  -6  -6   2    1.17    1.07
   5   6  -2    0.40    1.38
   5   6  -2    1.81    0.62
   5   6  -2    2.64    1.12
   5   6  -2    1.79    1.08
  -5  -6   2    1.07    0.30
  -5  -6   2    1.28    1.00
   4   6  -2    5.98    1.56
   4   6  -2    5.30    1.19
   4   6  -2    6.28    0.95
  -4  -6   2    4.26    1.17
   3   6  -2    0.53    1.39
   3   6  -2    0.63    0.70
   3   6  -2    1.22    0.99
  -3  -6   2    1.56    1.80
  -3  -6   2    0.50    0.90
  -3  -6   2    2.23    0.78
  -3  -6   2    1.04    0.75
   2   6  -2    2.01    0.96
   2   6  -2    2.19    0.82
   2   6  -2    1.38    0.68
   2   6  -2    1.43    0.84
  -2  -6   2   -0.08    0.77
  -2  -6   2    2.99    1.05
  -2  -6   2    1.79    1.47
  -2  -6   2    2.26    0.77
  -2  -6   2    2.93    0.72
  -2  -6   2    0.99    0.73
  -2  -6   2    0.32    0.61
   1   6  -2    9.40    1.25
   1   6  -2    6.68    1.08
   1   6  -2    6.61    0.91
   1   6  -2    9.02    1.09
   1   6  -2    9.22    1.24
  -1  -6   2    8.90    1.25
  -1  -6   2    7.26    0.93
  -1  -6   2    7.24    1.27
  -1  -6   2    8.33    0.85
  -1  -6   2    7.28    1.22
   0   6  -2    0.76    0.48
   0   6  -2    0.05    0.52
   0   6  -2   -0.61    0.82
   0   6  -2    0.49    0.77
   0   6  -2    1.53    0.78
   0   6  -2    1.39    0.84
   0  -6   2   -0.11    0.38
   0  -6   2   -0.11    0.63
   0  -6   2    0.60    0.79
   0  -6   2    0.47    0.49
   0  -6   2    0.48    0.81
   0  -6   2    0.51    0.78
   0  -6   2    0.17    0.82
   0  -6   2    0.34    0.43
  -1   6  -2   93.14    5.34
  -1   6  -2   93.86    5.01
  -1   6  -2   97.22    5.34
  -1   6  -2   99.99    5.02
  -1   6  -2   94.89    5.29
  -1   6  -2   95.73    5.33
   1  -6   2   96.08    4.99
   1  -6   2   95.00    5.58
   1  -6   2   96.81    5.39
   1  -6   2   81.81    5.58
   1  -6   2   99.73    5.45
   1  -6   2   87.86    5.28
   1  -6   2   99.34    5.25
  -2   6  -2  153.33    8.30
  -2   6  -2  140.79    7.88
  -2   6  -2  157.57    8.24
  -2   6  -2  157.07    8.33
   2  -6   2  158.45    8.20
   2  -6   2  150.66    8.34
   2  -6   2  157.89    8.43
   2  -6   2  151.56    7.93
   2  -6   2  155.63    8.67
   2  -6   2  156.71    7.85
  -3   6  -2   68.86    4.17
  -3   6  -2   74.00    4.05
  -3   6  -2   67.88    4.16
  -3   6  -2   60.62    3.64
   3  -6   2   68.58    3.96
   3  -6   2   73.31    4.19
   3  -6   2   75.17    4.30
  -4   6  -2   18.42    1.75
  -4   6  -2   15.40    1.40
   4  -6   2   16.87    1.72
   4  -6   2   14.03    1.34
   4  -6   2   16.28    1.19
  -5   6  -2    0.61    0.95
  -5   6  -2    0.85    0.69
   5  -6   2    0.18    0.52
   5  -6   2    0.83    0.58
   5  -6   2    0.89    0.49
   5  -6   2    0.86    0.90
  -6   6  -2    3.17    1.14
  -6   6  -2    2.02    0.76
   6  -6   2    4.10    0.81
   6  -6   2    4.32    1.96
   6  -6   2    3.68    1.03
  -7   6  -2    1.28    1.15
   7  -6   2    0.26    0.69
   7  -6   2    0.12    0.89
   7  -6   2   -1.39    0.91
  -8   6  -2    3.44    1.22
   8  -6   2    3.49    3.21
   8  -6   2    1.63    1.11
   8  -6   2    1.78    2.13
   8  -6   2    1.39    0.83
   8   5  -2    2.65    1.49
   8   5  -2   -0.14    1.18
  -8  -5   2    1.92    1.29
   7   5  -2    2.27    1.15
   7   5  -2    3.20    1.34
   7   5  -2    3.33    1.43
  -7  -5   2   -0.11    1.25
   6   5  -2   -0.82    0.95
   6   5  -2    1.00    1.15
   6   5  -2    1.62    1.07
  -6  -5   2    2.09    1.16
   5   5  -2   15.42    1.64
   5   5  -2   15.70    1.18
   5   5  -2   15.29    1.95
  -5  -5   2   13.67    1.76
   4   5  -2    7.60    1.26
   4   5  -2   11.87    1.42
   4   5  -2   13.92    1.63
   4   5  -2   13.55    1.13
  -4  -5   2   11.05    1.36
  -4  -5   2    9.33    1.44
  -4  -5   2   11.02    1.00
   3   5  -2    6.82    1.03
   3   5  -2    6.97    1.16
   3   5  -2    7.63    0.93
   3   5  -2    7.59    1.09
   3   5  -2    7.10    1.09
  -3  -5   2    6.36    0.93
  -3  -5   2    8.43    0.87
  -3  -5   2    6.33    0.81
  -3  -5   2    7.02    1.21
  -3  -5   2    7.28    1.07
  -3  -5   2    6.75    0.90
  -3  -5   2    6.83    1.20
   2   5  -2    5.10    0.96
   2   5  -2    4.89    0.80
   2   5  -2    5.83    1.03
   2   5  -2    3.94    0.75
   2   5  -2    4.74    0.91
   2   5  -2    4.91    0.82
  -2  -5   2    4.21    0.80
  -2  -5   2    5.43    1.02
  -2  -5   2    3.65    0.93
  -2  -5   2    4.72    0.75
  -2  -5   2    5.98    0.71
  -2  -5   2    7.18    0.95
  -2  -5   2    4.31    0.80
   1   5  -2   -0.21    0.48
   1   5  -2    1.17    0.82
   1   5  -2   -0.23    0.41
   1   5  -2    0.05    0.50
   1   5  -2   -0.03    0.58
   1   5  -2   -0.08    0.63
  -1  -5   2    0.10    0.41
  -1  -5   2    0.68    0.61
  -1  -5   2    1.01    0.69
  -1  -5   2   -0.05    0.39
  -1  -5   2   -0.23    0.47
  -1  -5   2   -0.13    0.40
  -1  -5   2    0.06    0.54
  -1  -5   2   -0.69    0.53
   0   5  -2   59.75    3.49
   0   5  -2   63.17    3.35
   0   5  -2   60.26    3.47
   0   5  -2   57.97    3.51
   0   5  -2   58.99    3.29
   0  -5   2   55.15    3.42
   0  -5   2   60.31    3.64
   0  -5   2   59.45    3.28
   0  -5   2   60.74    3.65
   0  -5   2   57.10    3.41
   0  -5   2   63.17    3.58
   0  -5   2   63.99    3.25
   0  -5   2   60.08    3.55
  -1   5  -2   37.94    2.41
  -1   5  -2   36.70    2.33
  -1   5  -2   38.51    2.38
  -1   5  -2   34.95    2.10
  -1   5  -2   38.64    2.09
  -1   5  -2   38.02    2.40
   1  -5   2   38.31    2.12
   1  -5   2   37.89    2.45
   1  -5   2   39.20    2.44
   1  -5   2   36.65    2.05
   1  -5   2   38.37    2.65
   1  -5   2   38.75    2.30
   1  -5   2   35.44    2.36
  -2   5  -2    4.32    0.52
  -2   5  -2    6.27    1.26
  -2   5  -2    5.16    0.89
  -2   5  -2    4.49    0.94
  -2   5  -2    3.99    0.77
  -2   5  -2    4.84    0.91
   2  -5   2    5.54    0.93
   2  -5   2    4.76    0.71
   2  -5   2    4.89    0.37
   2  -5   2    5.82    1.20
   2  -5   2    5.29    0.92
   2  -5   2    5.50    0.89
  -3   5  -2    1.97    1.19
  -3   5  -2    0.99    0.78
  -3   5  -2    0.40    0.69
  -3   5  -2    1.39    0.56
  -3   5  -2    0.47    0.59
   3  -5   2    1.14    0.57
   3  -5   2    1.09    0.75
   3  -5   2    0.83    0.87
   3  -5   2    0.60    0.38
   3  -5   2    0.57    0.49
   3  -5   2    0.64    0.69
  -4   5  -2   67.30    3.74
  -4   5  -2   66.02    5.32
  -4   5  -2   56.32    3.81
  -4   5  -2   67.74    3.98
   4  -5   2   67.56    3.74
   4  -5   2   68.63    4.32
   4  -5   2   66.70    3.66
   4  -5   2   70.17    4.01
  -5   5  -2    0.16    0.59
  -5   5  -2    1.25    0.92
  -5   5  -2    0.37    1.34
   5  -5   2    2.09    0.94
   5  -5   2    0.61    0.29
   5  -5   2    0.31    0.56
   5  -5   2    0.54    0.51
   5  -5   2    0.78    0.58
   5  -5   2    0.46    0.94
  -6   5  -2    0.45    0.88
  -6   5  -2   -1.63    1.34
  -6   5  -2    0.20    0.54
   6  -5   2   -0.61    0.60
   6  -5   2    0.26    0.80
   6  -5   2   -1.52    0.83
   6  -5   2    0.48    0.37
   6  -5   2    0.83    0.55
   6  -5   2    0.93    0.90
  -7   5  -2    2.67    0.67
  -7   5  -2    1.95    1.57
  -7   5  -2    3.58    1.09
   7  -5   2    2.58    1.03
   7  -5   2    2.89    0.69
   7  -5   2    3.07    0.58
   7  -5   2    3.62    0.61
   7  -5   2    3.52    1.26
   7  -5   2    2.70    1.16
  -8   5  -2    0.15    0.92
   8  -5   2    1.38    1.13
   8  -5   2   -0.56    0.98
   8  -5   2    2.86    1.22
   8   4  -2    0.12    1.39
   8   4  -2   -1.59    1.14
   8   4  -2    0.40    1.17
  -8  -4   2    1.15    1.12
   7   4  -2    4.77    1.41
   7   4  -2    2.86    1.32
   7   4  -2    3.25    1.25
  -7  -4   2    5.04    1.49
   6   4  -2    0.59    0.94
   6   4  -2    1.87    1.61
   6   4  -2    1.92    0.45
   6   4  -2    1.49    1.14
  -6  -4   2    1.68    0.97
   5   4  -2   -0.09    0.46
   5   4  -2    0.06    0.85
   5   4  -2    0.13    0.82
   5   4  -2   -1.39    0.69
  -5  -4   2   -0.32    0.81
  -5  -4   2   -1.74    0.81
   4   4  -2   12.28    2.05
   4   4  -2   15.70    1.35
   4   4  -2   11.42    1.01
   4   4  -2   10.12    1.30
   4   4  -2    9.94    1.27
  -4  -4   2   10.67    1.73
  -4  -4   2   11.57    1.48
  -4  -4   2   11.61    1.33
  -4  -4   2   12.20    1.18
  -4  -4   2   13.39    0.97
   3   4  -2   16.28    1.27
   3   4  -2   14.28    1.36
   3   4  -2   14.54    1.32
   3   4  -2   13.83    1.18
   3   4  -2   13.78    1.41
  -3  -4   2   17.13    1.37
  -3  -4   2   12.40    2.11
  -3  -4   2   14.42    1.44
  -3  -4   2   15.04    1.16
  -3  -4   2   18.69    1.32
  -3  -4   2   17.86    1.38
   2   4  -2  137.04    6.36
   2   4  -2  117.24    6.38
   2   4  -2  117.27    6.44
   2   4  -2  121.31    6.36
   2   4  -2  118.18    6.34
  -2  -4   2  117.69    6.41
  -2  -4   2  116.73    6.20
  -2  -4   2  101.65    6.23
  -2  -4   2  122.51    6.27
  -2  -4   2  117.44    6.33
  -2  -4   2  118.43    6.46
  -2  -4   2  117.75    6.33
   1   4  -2  176.34    9.44
   1   4  -2  188.20    9.49
   1   4  -2  179.22    9.39
   1   4  -2  179.95    9.52
   1   4  -2  179.85    9.42
  -1  -4   2  185.64    9.44
  -1  -4   2  189.01    9.55
  -1  -4   2  170.11    9.43
  -1  -4   2  173.95    9.39
  -1  -4   2  182.17    9.44
  -1  -4   2  188.69    9.39
  -1  -4   2  178.47    9.50
   0   4  -2   65.92    3.39
   0   4  -2   62.19    3.53
   0   4  -2   62.49    3.55
   0   4  -2   64.61    3.42
   0   4  -2   61.41    3.59
   0   4  -2   64.56    3.56
   0  -4   2   63.02    3.67
   0  -4   2   62.96    3.53
   0  -4   2   64.57    3.42
   0  -4   2   62.67    3.61
   0  -4   2   61.92    3.47
   0  -4   2   61.39    3.58
  -1   4  -2   15.35    1.13
  -1   4  -2   13.09    1.42
  -1   4  -2   14.20    1.24
  -1   4  -2   14.47    0.88
  -1   4  -2   14.43    0.97
  -1   4  -2   14.44    1.18
  -1   4  -2   13.19    1.13
   1  -4   2   14.57    0.96
   1  -4   2   14.92    1.08
   1  -4   2   13.08    1.47
   1  -4   2   14.79    1.22
   1  -4   2   14.53    1.23
   1  -4   2   13.34    1.17
   1  -4   2   13.11    0.83
  -2   4  -2   45.83    2.53
  -2   4  -2   47.64    2.66
  -2   4  -2   47.37    2.75
  -2   4  -2   46.64    2.75
  -2   4  -2   46.58    3.09
   2  -4   2   43.79    2.62
   2  -4   2   48.51    2.88
   2  -4   2   49.79    2.82
   2  -4   2   45.00    2.77
   2  -4   2   46.76    2.56
   2  -4   2   44.87    3.07
  -3   4  -2    8.90    0.86
  -3   4  -2    8.25    1.61
  -3   4  -2    7.99    1.05
  -3   4  -2    7.63    0.91
  -3   4  -2   10.07    0.76
   3  -4   2    8.75    1.03
   3  -4   2    8.13    0.92
   3  -4   2    8.08    0.80
   3  -4   2    8.68    1.04
   3  -4   2    7.99    0.82
   3  -4   2    8.98    1.33
   3  -4   2    9.62    1.05
  -4   4  -2   38.06    3.04
  -4   4  -2   38.64    2.23
  -4   4  -2   35.70    2.43
  -4   4  -2   38.17    2.24
  -4   4  -2   38.65    2.38
   4  -4   2   35.25    2.19
   4  -4   2   36.96    2.03
   4  -4   2   36.23    2.01
   4  -4   2   38.56    2.83
   4  -4   2   39.40    2.49
   4  -4   2   39.43    2.48
   4  -4   2   37.09    2.44
   4  -4   2   36.87    2.26
   4  -4   2   39.45    2.51
  -5   4  -2   20.41    1.48
  -5   4  -2   21.25    3.82
  -5   4  -2   23.80    1.80
   5  -4   2   22.35    1.50
   5  -4   2   21.67    1.60
   5  -4   2   23.24    1.86
   5  -4   2   22.08    2.14
   5  -4   2   21.04    1.34
   5  -4   2   23.82    1.86
   5  -4   2   22.25    1.90
   5  -4   2   21.99    1.39
  -6   4  -2    0.67    1.43
   6  -4   2    2.21    0.55
   6  -4   2    1.25    0.84
   6  -4   2    1.07    0.74
   6  -4   2    2.10    0.92
   6  -4   2    2.37    0.56
   6  -4   2    0.68    0.52
   6  -4   2    1.13    0.62
  -7   4  -2    2.45    1.60
  -7   4  -2    4.05    1.05
   7  -4   2    3.44    1.06
   7  -4   2    4.99    0.73
   7  -4   2    3.20    0.66
   7  -4   2    3.33    1.11
   7  -4   2    2.96    0.98
   7  -4   2    4.65    0.75
  -8   4  -2    4.88    1.75
   8  -4   2    5.60    0.82
   8  -4   2    4.99    0.90
   8  -4   2    4.00    1.16
   8  -4   2    4.78    1.26
   8  -4   2    5.50    1.37
   8  -4   2    6.80    0.88
   9  -4   2    9.03    1.45
   9  -4   2    6.66    1.19
   9  -4   2    7.28    1.87
   9  -4   2    3.48    2.01
   9  -4   2    9.23    1.04
   9   3  -2    0.99    1.28
   9   3  -2    0.63    1.26
   9   3  -2    1.14    1.15
  -9  -3   2    2.90    1.41
   8   3  -2    8.71    1.62
   8   3  -2    4.71    1.35
   8   3  -2    5.92    1.25
  -8  -3   2    5.01    1.42
   7   3  -2    0.46    0.98
   7   3  -2   -1.02    0.99
   7   3  -2    0.68    0.39
   7   3  -2    1.05    0.92
  -7  -3   2   -0.01    1.08
   6   3  -2    4.92    1.15
   6   3  -2    1.12    1.14
   6   3  -2    4.28    1.04
  -6  -3   2    3.58    1.10
   5   3  -2    1.96    1.40
   5   3  -2    2.40    0.54
   5   3  -2    1.87    0.87
   5   3  -2    0.67    1.20
  -5  -3   2    2.09    0.93
  -5  -3   2    2.27    0.68
  -5  -3   2    2.21    0.85
   4   3  -2    0.31    0.68
   4   3  -2    1.49    0.69
   4   3  -2   -0.92    0.63
   4   3  -2    0.23    0.44
   4   3  -2    1.35    0.66
  -4  -3   2    0.49    0.64
  -4  -3   2   -0.30    0.62
  -4  -3   2   -0.91    0.53
  -4  -3   2    0.65    0.57
   3   3  -2  210.71   11.29
   3   3  -2  225.82   11.42
   3   3  -2  222.40   11.16
   3   3  -2  210.79   11.45
   3   3  -2  220.02   11.36
   3   3  -2  231.97   11.69
  -3  -3   2  218.73   11.47
  -3  -3   2  194.32   11.23
  -3  -3   2  230.29   11.45
  -3  -3   2  217.33   11.32
  -3  -3   2  201.00   11.25
  -3  -3   2  227.37   11.37
   2   3  -2   99.98    5.31
   2   3  -2   99.99    5.24
   2   3  -2  100.45    5.13
   2   3  -2   88.85    5.16
   2   3  -2  102.03    5.23
   2   3  -2   96.34    5.20
  -2  -3   2   99.04    5.23
  -2  -3   2   97.70    5.22
  -2  -3   2  102.09    5.30
  -2  -3   2   97.82    5.19
  -2  -3   2   86.15    5.01
   1   3  -2  256.19   13.84
   1   3  -2  288.40   13.80
   1   3  -2  258.44   13.83
   1   3  -2  265.38   13.82
   1   3  -2  274.41   13.92
   1   3  -2  268.69   14.11
  -1  -3   2  270.95   13.93
  -1  -3   2  268.07   13.93
  -1  -3   2  283.82   13.85
  -1  -3   2  266.13   13.87
  -1  -3   2  265.19   13.82
  -1  -3   2  255.10   13.89
  -1  -3   2  289.47   13.83
   0   3  -2    1.13    0.38
   0   3  -2    1.22    0.33
   0   3  -2    1.53    0.47
   0   3  -2    1.32    0.50
   0   3  -2    1.64    0.53
   0   3  -2    0.84    0.54
   0   3  -2    1.89    0.63
   0  -3   2    0.80    0.47
   0  -3   2    1.76    0.53
   0  -3   2    1.19    0.54
   0  -3   2    2.26    0.33
   0  -3   2    1.29    0.49
   0  -3   2    1.24    0.42
   0  -3   2    1.22    0.37
  -1   3  -2  119.07    6.11
  -1   3  -2  111.50    5.96
  -1   3  -2  117.43    6.28
  -1   3  -2  109.28    6.09
  -1   3  -2  110.53    6.06
  -1   3  -2  117.37    5.85
  -1   3  -2  124.09    6.03
   1  -3   2  112.43    6.26
   1  -3   2  112.44    6.08
   1  -3   2  115.90    6.03
   1  -3   2  116.20    6.12
   1  -3   2  116.64    6.11
  -2   3  -2   34.12    2.15
  -2   3  -2   36.80    2.22
  -2   3  -2   36.72    2.54
  -2   3  -2   37.25    2.19
  -2   3  -2   34.32    2.03
  -2   3  -2   37.24    2.08
   2  -3   2   37.61    2.22
   2  -3   2   35.70    2.46
   2  -3   2   36.52    2.21
   2  -3   2   38.54    2.21
   2  -3   2   35.66    2.06
  -3   3  -2    0.20    0.44
  -3   3  -2    0.77    0.41
  -3   3  -2   -0.65    0.91
  -3   3  -2   -0.58    0.53
  -3   3  -2    0.14    0.34
   3  -3   2    0.25    0.40
   3  -3   2    0.19    0.53
   3  -3   2   -0.01    0.50
   3  -3   2   -0.14    0.29
   3  -3   2   -0.18    0.51
   3  -3   2    0.32    0.22
   3  -3   2    0.13    0.53
   3  -3   2    0.50    0.71
   3  -3   2    0.31    0.22
  -4   3  -2  195.14   10.66
  -4   3  -2  201.59   10.60
  -4   3  -2  216.15   11.23
  -4   3  -2  193.54   10.76
   4  -3   2  202.31   10.54
   4  -3   2  209.65   10.86
   4  -3   2  209.15   11.41
   4  -3   2  214.09   10.62
   4  -3   2  210.45   10.72
   4  -3   2  215.85   10.57
   4  -3   2  205.50   10.79
   4  -3   2  202.78   10.84
  -5   3  -2   49.51    3.65
  -5   3  -2   46.18    2.96
  -5   3  -2   47.44    2.77
   5  -3   2   48.66    2.99
   5  -3   2   48.73    2.77
   5  -3   2   49.03    2.96
   5  -3   2   48.51    3.39
   5  -3   2   49.15    3.52
   5  -3   2   53.25    2.81
   5  -3   2   52.62    3.07
   5  -3   2   53.01    3.13
   5  -3   2   49.49    2.79
  -6   3  -2   29.56    2.88
  -6   3  -2   25.96    1.89
   6  -3   2   26.76    1.60
   6  -3   2   22.60    1.99
   6  -3   2   27.28    2.05
   6  -3   2   24.47    1.89
   6  -3   2   24.36    1.71
   6  -3   2   24.54    1.65
   6  -3   2   23.87    1.97
   6  -3   2   27.26    1.70
   6  -3   2   25.76    1.87
  -7   3  -2    1.75    1.03
  -7   3  -2   -0.43    1.36
   7  -3   2    0.08    0.84
   7  -3   2   -0.26    0.87
   7  -3   2    0.19    0.59
   7  -3   2   -0.26    0.45
   7  -3   2    0.19    1.00
  -8   3  -2    0.68    0.75
  -8   3  -2    1.88    1.55
   8  -3   2   -0.79    1.11
   8  -3   2   -0.06    0.90
   8  -3   2    0.71    0.96
   8  -3   2    0.70    0.53
   8  -3   2   -0.06    0.53
   8  -3   2    0.02    0.93
  -9   3  -2    0.44    1.56
   9  -3   2    0.63    0.63
   9  -3   2    1.65    1.05
   9  -3   2    2.32    1.16
   9  -3   2    2.09    0.90
   9   2  -2    0.85    1.11
   9   2  -2    2.25    1.44
  -9  -2   2    1.38    1.23
   8   2  -2    0.21    0.69
   8   2  -2   -0.40    0.46
   8   2  -2    1.87    1.12
   8   2  -2    0.47    1.30
   8   2  -2    0.04    1.03
  -8  -2   2   -0.40    1.26
   7   2  -2    0.39    0.46
   7   2  -2    1.28    0.81
   7   2  -2   -0.01    0.93
   7   2  -2   -1.08    0.48
   7   2  -2    0.77    0.72
   7   2  -2   -0.47    1.21
  -7  -2   2    0.14    0.98
   6   2  -2   46.49    2.90
   6   2  -2   48.81    2.82
   6   2  -2   47.46    2.53
   6   2  -2   44.42    2.53
   6   2  -2   40.44    2.78
   6   2  -2   36.91    2.61
  -6  -2   2   50.14    3.02
  -6  -2   2   40.98    2.72
   5   2  -2   33.71    2.22
   5   2  -2   29.63    2.02
   5   2  -2   32.23    2.20
   5   2  -2   35.07    2.37
   5   2  -2   35.80    2.03
   5   2  -2   37.33    2.31
   5   2  -2   33.04    2.35
   5   2  -2   33.82    2.27
  -5  -2   2   35.86    2.64
  -5  -2   2   35.72    2.35
  -5  -2   2   38.34    2.45
   4   2  -2   65.98    3.76
   4   2  -2   64.45    3.58
   4   2  -2   62.49    3.75
   4   2  -2   60.70    3.52
   4   2  -2   71.81    3.89
   4   2  -2   69.79    3.94
   4   2  -2   66.31    3.85
   4   2  -2   64.26    3.78
  -4  -2   2   68.82    3.58
  -4  -2   2   67.44    3.71
  -4  -2   2   71.16    3.90
  -4  -2   2   71.83    3.83
   3   2  -2   29.40    1.59
   3   2  -2   22.94    1.61
   3   2  -2   25.16    1.76
   3   2  -2   25.58    1.77
   3   2  -2   25.73    1.64
   3   2  -2   27.26    1.71
  -3  -2   2   26.21    1.71
  -3  -2   2   23.18    1.61
  -3  -2   2   24.62    1.63
  -3  -2   2   28.86    1.55
  -3  -2   2   28.11    1.78
   2   2  -2   39.07    2.22
   2   2  -2   37.37    2.25
   2   2  -2   38.25    2.27
   2   2  -2   37.10    2.16
   2   2  -2   36.55    2.19
   2   2  -2   42.52    2.16
  -2  -2   2   40.56    2.26
  -2  -2   2   41.83    2.18
  -2  -2   2   37.38    2.28
  -2  -2   2   33.82    2.16
  -2  -2   2   36.49    2.14
  -2  -2   2   39.55    2.20
   1   2  -2    8.51    0.74
   1   2  -2    8.68    0.72
   1   2  -2    7.29    0.79
   1   2  -2    8.31    0.65
   1   2  -2    8.11    0.68
   1   2  -2    8.22    0.74
  -1  -2   2    9.82    0.98
  -1  -2   2    7.34    0.73
  -1  -2   2    8.35    0.74
  -1  -2   2    8.12    0.72
  -1  -2   2    9.39    0.73
  -1  -2   2    8.89    0.63
  -1  -2   2    9.95    0.68
   0   2  -2  617.00   30.77
   0   2  -2  597.77   30.69
  -1   2  -2    0.30    0.60
  -1   2  -2    0.03    0.26
  -1   2  -2    0.19    0.47
  -1   2  -2    0.27    0.30
  -1   2  -2    0.25    0.29
  -1   2  -2    0.41    0.37
   1  -2   2    0.27    0.49
   1  -2   2    0.13    0.37
   1  -2   2    0.28    0.31
   1  -2   2   -0.32    0.39
   1  -2   2    0.05    0.39
   1  -2   2   -0.08    0.24
  -2   2  -2   75.63    4.13
  -2   2  -2   75.05    4.05
  -2   2  -2   75.99    4.14
  -2   2  -2   78.75    4.39
  -2   2  -2   80.01    4.01
   2  -2   2   73.11    4.00
   2  -2   2   75.65    4.36
   2  -2   2   75.02    4.00
   2  -2   2   72.95    4.07
   2  -2   2   82.36    4.14
   2  -2   2   75.63    4.17
   2  -2   2   85.43    3.94
   2  -2   2   79.48    4.17
   2  -2   2   71.23    4.13
  -3   2  -2   14.48    1.25
  -3   2  -2   14.18    1.10
  -3   2  -2   15.52    1.11
  -3   2  -2   15.88    1.67
  -3   2  -2   12.27    1.03
  -3   2  -2   13.57    0.90
   3  -2   2   14.36    1.19
   3  -2   2   13.89    0.91
   3  -2   2   13.06    1.10
   3  -2   2   14.48    0.91
   3  -2   2   13.87    1.09
   3  -2   2   12.90    1.44
   3  -2   2   15.05    1.16
  -4   2  -2    2.75    1.35
  -4   2  -2    3.00    0.70
  -4   2  -2    3.11    0.84
  -4   2  -2    3.25    0.46
  -4   2  -2    3.88    0.76
   4  -2   2    3.94    0.76
   4  -2   2    3.62    0.70
   4  -2   2    4.32    0.57
   4  -2   2    3.30    0.47
   4  -2   2    4.33    0.56
   4  -2   2    4.28    1.05
   4  -2   2    3.48    0.77
   4  -2   2    3.19    0.65
  -5   2  -2   13.80    1.99
  -5   2  -2   14.10    1.33
  -5   2  -2   12.94    1.15
   5  -2   2   13.25    1.26
   5  -2   2   14.24    1.21
   5  -2   2   14.74    1.36
   5  -2   2   12.47    1.35
   5  -2   2   13.75    1.10
   5  -2   2   15.63    1.33
   5  -2   2   14.12    0.95
   5  -2   2   13.53    1.08
   5  -2   2   15.28    1.82
   5  -2   2   14.02    0.99
  -6   2  -2   49.72    3.68
  -6   2  -2   47.92    3.24
  -6   2  -2   49.92    2.91
   6  -2   2   46.05    2.72
   6  -2   2   51.21    2.87
   6  -2   2   46.63    3.10
   6  -2   2   53.15    3.13
   6  -2   2   45.78    2.70
   6  -2   2   48.05    2.86
   6  -2   2   44.58    2.88
  -7   2  -2    4.24    1.37
  -7   2  -2    4.47    0.89
  -7   2  -2    3.97    1.57
   7  -2   2    3.71    0.66
   7  -2   2    5.56    1.29
   7  -2   2    3.72    0.85
   7  -2   2    3.59    0.66
   7  -2   2    5.45    1.18
   7  -2   2    4.09    0.90
   7  -2   2    5.03    0.87
  -8   2  -2    5.07    1.44
  -8   2  -2    6.94    1.79
   8  -2   2    5.45    1.33
   8  -2   2    6.18    0.87
   8  -2   2    8.48    1.22
   8  -2   2    5.88    1.06
   8  -2   2    3.49    1.17
   8  -2   2    6.44    1.10
  -9   2  -2    7.99    1.99
   9  -2   2    7.65    1.51
   9  -2   2   10.16    1.52
   9  -2   2    6.66    0.97
   9  -2   2    9.50    1.70
   9  -2   2    6.45    1.25
   9   1  -2    2.13    1.15
   9   1  -2    1.03    1.09
   9   1  -2    1.72    0.95
   9   1  -2   -1.52    1.02
  -9  -1   2    0.46    1.08
   8   1  -2    0.86    0.71
   8   1  -2    0.46    0.99
   8   1  -2    1.09    0.92
   8   1  -2    0.70    0.51
   8   1  -2    1.15    1.02
   8   1  -2    0.75    0.80
   8   1  -2   -0.34    0.60
  -8  -1   2   -1.55    0.99
   7   1  -2    0.98    0.94
   7   1  -2    0.80    0.79
   7   1  -2    2.13    0.91
   7   1  -2    1.22    0.64
   7   1  -2    1.31    1.04
   7   1  -2    3.29    0.66
   7   1  -2    1.71    0.77
  -7  -1   2   -0.09    1.00
   6   1  -2   26.60    1.77
   6   1  -2   28.24    2.02
   6   1  -2   29.29    1.96
   6   1  -2   30.88    2.33
   6   1  -2   31.02    2.09
   6   1  -2   25.61    1.88
   6   1  -2   29.72    1.82
  -6  -1   2   26.19    2.05
   5   1  -2    2.56    0.53
   5   1  -2    2.94    0.76
   5   1  -2    2.88    0.69
   5   1  -2    2.56    0.57
   5   1  -2    2.34    0.74
   5   1  -2    3.17    1.26
   5   1  -2    3.30    0.72
   5   1  -2    2.14    0.75
  -5  -1   2    2.32    0.81
  -5  -1   2    2.26    0.77
  -5  -1   2    2.80    0.62
   4   1  -2   13.62    1.09
   4   1  -2   13.03    1.11
   4   1  -2   14.23    1.00
   4   1  -2   13.80    1.27
   4   1  -2   14.41    1.14
   4   1  -2   14.10    1.14
   4   1  -2   14.20    1.16
   4   1  -2   14.77    1.23
  -4  -1   2   15.99    1.07
  -4  -1   2   14.81    1.32
  -4  -1   2   12.84    1.20
   3   1  -2   14.01    0.98
   3   1  -2   15.10    1.10
   3   1  -2   14.41    1.14
   3   1  -2   14.15    1.19
   3   1  -2   15.94    1.09
   3   1  -2   13.94    1.00
   3   1  -2   14.82    1.02
   3   1  -2   16.46    1.13
  -3  -1   2   14.52    1.10
  -3  -1   2   15.40    1.04
  -3  -1   2   14.89    0.98
  -3  -1   2   14.22    1.18
   2   1  -2   74.52    3.91
   2   1  -2   75.18    3.99
   2   1  -2   76.41    3.96
   2   1  -2   78.23    3.94
   2   1  -2   68.18    3.77
   2   1  -2   68.14    3.92
   2   1  -2   72.49    3.86
   2   1  -2   72.06    3.91
  -2  -1   2   75.10    3.96
  -2  -1   2   71.54    3.86
  -2  -1   2   73.66    3.96
  -2  -1   2   80.15    3.91
  -2  -1   2   74.69    3.88
  -1   1  -2   52.09    2.75
  -1   1  -2   49.70    2.86
  -1   1  -2   54.73    2.75
  -1   1  -2   55.32    3.20
  -1   1  -2   51.59    2.85
  -1   1  -2   54.92    2.87
   1  -1   2   53.30    2.74
   1  -1   2   52.46    2.88
   1  -1   2   54.62    3.02
   1  -1   2   53.96    2.75
   1  -1   2   53.29    2.91
   1  -1   2   54.80    2.86
   1  -1   2   54.18    2.87
  -2   1  -2  154.09    7.71
  -2   1  -2  162.72    7.70
  -2   1  -2  133.58    7.69
  -2   1  -2  160.18    7.81
  -2   1  -2  133.70    7.63
  -2   1  -2  142.14    7.77
  -2   1  -2  151.84    7.95
   2  -1   2  155.19    7.65
   2  -1   2  146.99    7.76
   2  -1   2  156.09    7.84
   2  -1   2  146.02    7.73
   2  -1   2  158.43    7.71
   2  -1   2  155.15    7.60
   2  -1   2  138.82    8.41
  -3   1  -2   10.64    1.40
  -3   1  -2   11.01    0.80
  -3   1  -2   11.36    0.91
  -3   1  -2   12.17    1.02
  -3   1  -2   11.07    1.08
   3  -1   2   11.64    0.86
   3  -1   2   12.00    1.05
   3  -1   2    9.58    1.30
   3  -1   2   11.61    1.06
   3  -1   2   12.26    0.73
   3  -1   2   10.53    0.89
   3  -1   2   11.55    0.74
   3  -1   2   13.31    1.02
  -4   1  -2    0.85    1.10
  -4   1  -2    0.86    0.66
  -4   1  -2   -0.01    0.82
  -4   1  -2    0.05    0.36
  -4   1  -2   -0.16    0.41
   4  -1   2    1.47    0.34
   4  -1   2   -0.46    0.52
   4  -1   2    0.37    0.29
   4  -1   2   -0.33    0.42
   4  -1   2   -0.01    0.67
   4  -1   2    0.52    0.56
   4  -1   2    0.58    0.62
   4  -1   2   -0.18    0.40
  -5   1  -2    1.22    1.03
  -5   1  -2    1.63    0.53
  -5   1  -2    1.16    0.82
   5  -1   2    1.09    0.41
   5  -1   2    0.44    0.53
   5  -1   2    0.71    0.72
   5  -1   2    0.02    0.50
   5  -1   2    0.38    0.63
   5  -1   2    0.76    0.61
   5  -1   2    1.20    0.72
   5  -1   2    0.31    0.78
   5  -1   2    1.10    0.53
   5  -1   2    0.73    0.39
  -6   1  -2    2.13    1.28
  -6   1  -2    3.28    1.34
  -6   1  -2    3.41    0.70
   6  -1   2    4.07    0.83
   6  -1   2    2.51    0.53
   6  -1   2    2.62    0.75
   6  -1   2    2.37    1.00
   6  -1   2    2.94    0.88
   6  -1   2    2.68    0.56
   6  -1   2    3.05    0.66
  -7   1  -2    0.86    1.42
  -7   1  -2   -0.24    1.01
   7  -1   2   -0.53    0.50
   7  -1   2    1.06    0.94
   7  -1   2   -0.85    1.16
   7  -1   2    1.10    0.95
   7  -1   2    0.27    0.47
   7  -1   2    0.45    0.55
  -8   1  -2    3.25    1.39
  -8   1  -2    6.16    1.64
   8  -1   2    3.30    1.12
   8  -1   2    3.82    0.67
   8  -1   2    3.79    1.31
   8  -1   2    4.11    0.79
   8  -1   2    6.22    0.83
   8  -1   2    3.58    0.77
   8  -1   2    4.23    1.07
  -9   1  -2   11.31    2.14
  -9   1  -2    7.54    1.83
   9  -1   2    7.98    1.61
   9  -1   2    7.31    1.39
   9  -1   2    8.62    1.11
   9  -1   2    9.08    1.61
   9   0  -2   -1.09    0.85
   9   0  -2    0.42    1.11
   9   0  -2    0.26    1.09
   9   0  -2    0.22    1.05
   9   0  -2    0.23    0.73
  -9   0   2   -0.04    1.15
   8   0  -2    3.35    1.17
   8   0  -2    0.25    1.03
   8   0  -2    1.72    0.81
   8   0  -2    6.00    1.16
   8   0  -2    3.42    0.83
  -8   0   2    4.59    1.27
   7   0  -2    0.32    0.96
   7   0  -2   -0.63    0.53
   7   0  -2    1.89    1.18
   7   0  -2   -0.33    0.75
   7   0  -2   -0.12    0.78
   7   0  -2    0.68    0.55
   7   0  -2    1.23    0.86
  -7   0   2   -0.69    0.96
   6   0  -2    7.12    0.99
   6   0  -2    9.24    1.39
   6   0  -2    9.24    0.92
   6   0  -2    9.73    1.25
   6   0  -2   11.60    1.42
   6   0  -2    8.01    0.99
   6   0  -2    8.23    1.05
   6   0  -2    6.18    1.34
  -6   0   2    7.79    1.15
   5   0  -2   41.76    2.48
   5   0  -2   41.06    2.33
   5   0  -2   38.04    2.55
   5   0  -2   40.67    2.56
   5   0  -2   37.00    2.40
   5   0  -2   41.54    2.35
   5   0  -2   36.93    2.43
   5   0  -2   41.91    2.39
   5   0  -2   40.97    2.41
  -5   0   2   39.51    2.47
  -5   0   2   40.66    2.57
   4   0  -2   30.56    1.81
   4   0  -2   31.07    1.95
   4   0  -2   28.51    1.80
   4   0  -2   25.75    1.80
   4   0  -2   30.01    1.82
   4   0  -2   30.31    1.76
   4   0  -2   27.53    1.87
   4   0  -2   29.59    1.77
  -4   0   2   29.79    1.84
  -4   0   2   30.54    1.94
   3   0  -2   28.40    1.66
   3   0  -2   28.76    1.65
   3   0  -2   26.75    1.70
   3   0  -2   28.58    1.68
   3   0  -2   27.24    1.77
   3   0  -2   27.35    1.65
   3   0  -2   27.15    1.74
   3   0  -2   30.58    1.71
   3   0  -2   27.70    1.64
  -3   0   2   28.09    1.68
  -3   0   2   28.95    1.77
   0   0  -2    4.12    0.80
   0   0  -2    2.01    0.31
   0   0   2    1.90    0.24
   0   0   2    2.63    0.30
   0   0   2    2.51    0.40
  -1   0  -2  100.01    5.03
  -1   0  -2   97.72    4.99
  -1   0  -2   94.17    4.99
  -1   0  -2  101.15    5.18
  -1   0  -2   98.15    5.06
   1   0   2   83.59    5.09
   1   0   2  100.53    4.90
   1   0   2   92.20    5.01
   1   0   2   98.89    5.00
   1   0   2   98.29    4.96
   1   0   2   99.78    5.16
   1   0   2   97.73    5.06
  -2   0  -2  458.96   23.53
  -2   0  -2  448.00   23.78
  -2   0  -2  425.87   23.58
  -2   0  -2  475.09   23.78
   2   0   2  473.54   23.52
   2   0   2  483.15   23.61
   2   0   2  472.90   23.78
   2   0   2  488.45   23.53
  -3   0  -2    7.85    1.18
  -3   0  -2    6.00    0.64
  -3   0  -2    7.64    0.61
  -3   0  -2    6.24    0.55
  -3   0  -2    7.05    0.90
  -3   0  -2    8.34    0.96
   3   0   2    7.94    0.73
   3   0   2    7.12    0.88
   3   0   2    6.48    1.07
   3   0   2    7.90    0.57
   3   0   2    7.45    0.62
   3   0   2    7.10    0.89
  -4   0  -2   60.35    3.14
  -4   0  -2   63.35    4.02
  -4   0  -2   57.57    3.60
  -4   0  -2   58.99    3.27
   4   0   2   59.58    3.15
   4   0   2   69.50    3.52
   4   0   2   55.27    3.38
   4   0   2   55.80    3.55
   4   0   2   54.79    3.29
   4   0   2   54.48    3.43
   4   0   2   60.58    3.15
   4   0   2   58.69    3.15
  -5   0  -2    0.46    0.79
  -5   0  -2    1.57    0.59
   5   0   2    0.64    0.65
   5   0   2    0.62    0.78
   5   0   2    1.04    0.44
   5   0   2    1.10    0.69
   5   0   2    1.78    0.44
   5   0   2    0.98    0.47
   5   0   2    1.31    0.84
   5   0   2    1.90    0.60
  -6   0  -2   17.83    2.08
  -6   0  -2   18.69    2.28
   6   0   2   18.76    1.69
   6   0   2   21.28    1.31
   6   0   2   20.51    1.38
   6   0   2   20.08    1.60
   6   0   2   18.12    2.13
   6   0   2   19.89    1.35
   6   0   2   19.52    1.79
   6   0   2   20.57    1.38
  -7   0  -2    0.05    1.18
  -7   0  -2   -0.57    1.03
   7   0   2    1.43    0.83
   7   0   2    1.60    1.35
   7   0   2    0.77    0.50
   7   0   2    1.55    0.57
   7   0   2    0.64    0.46
   7   0   2    0.50    0.82
  -8   0  -2   -1.08    1.10
  -8   0  -2    0.09    1.22
   8   0   2    1.62    0.98
   8   0   2    1.04    1.10
   8   0   2    3.21    0.92
   8   0   2    1.36    0.49
   8   0   2    0.87    0.67
   8   0   2    2.75    1.13
   8   0   2    0.91    0.51
  -9   0  -2    0.89    1.34
  -9   0  -2    2.69    1.54
   9   0   2    2.18    1.69
   9   0   2   -1.73    0.93
   9   0   2    0.42    0.72
   9  -1  -2    4.59    1.49
   9  -1  -2    1.19    1.08
   9  -1  -2    1.33    0.91
   9  -1  -2    1.66    1.04
   9  -1  -2    1.31    0.92
   9  -1  -2    0.96    0.94
   8  -1  -2    5.49    0.92
   8  -1  -2    4.81    1.25
   8  -1  -2    5.56    1.00
   8  -1  -2    5.62    1.47
   8  -1  -2    7.02    1.31
   8  -1  -2    4.68    1.00
   8  -1  -2    5.18    1.20
  -8   1   2    6.22    1.39
   7  -1  -2   21.11    1.76
   7  -1  -2   27.50    1.92
   7  -1  -2   30.72    2.05
   7  -1  -2   21.37    1.83
   7  -1  -2   26.23    2.35
   7  -1  -2   30.85    2.11
   7  -1  -2   28.76    2.04
  -7   1   2   25.68    2.13
   6  -1  -2    0.60    0.58
   6  -1  -2    0.73    1.08
   6  -1  -2    0.56    0.53
   6  -1  -2    2.58    0.75
   6  -1  -2    0.83    0.65
   6  -1  -2    0.81    0.71
   6  -1  -2    1.50    0.93
   6  -1  -2    1.36    0.59
   6  -1  -2    1.39    0.85
  -6   1   2    0.99    0.93
   5  -1  -2   16.11    1.09
   5  -1  -2   13.40    1.52
   5  -1  -2   12.65    1.18
   5  -1  -2   12.43    1.16
   5  -1  -2   12.45    1.15
   5  -1  -2   11.74    1.27
   5  -1  -2   12.58    1.06
   5  -1  -2   12.87    1.07
   5  -1  -2   13.00    1.43
   5  -1  -2   14.63    1.15
  -5   1   2   13.09    1.29
   4  -1  -2  600.00   30.39
   4  -1  -2  578.93   30.53
   4  -1  -2  586.85   30.31
   4  -1  -2  598.12   30.36
   4  -1  -2  564.39   30.33
   4  -1  -2  662.44   30.36
   4  -1  -2  581.46   30.39
   4  -1  -2  599.48   30.40
   4  -1  -2  599.45   30.34
  -4   1   2  608.66   30.41
   3  -1  -2  230.37   11.25
   3  -1  -2  211.58   11.21
   3  -1  -2  219.49   11.56
   3  -1  -2  218.43   11.25
   3  -1  -2  240.02   11.28
   3  -1  -2  191.48   11.33
   3  -1  -2  224.31   11.26
   3  -1  -2  214.00   11.23
   3  -1  -2  191.15   11.72
  -3   1   2  225.46   11.26
  -3   1   2  223.73   11.24
  -3   1   2  238.57   11.27
   2  -1  -2    3.13    0.63
   2  -1  -2    3.36    0.48
   2  -1  -2    4.42    0.62
   2  -1  -2    3.63    0.50
   2  -1  -2    3.63    0.53
   2  -1  -2    3.55    0.43
  -2   1   2    2.40    0.41
  -2   1   2    3.78    0.43
  -2   1   2    2.80    0.47
   1  -1  -2  187.09   10.48
   1  -1  -2  188.91   10.48
   1  -1  -2  216.89   10.44
   1  -1  -2  183.19   10.48
   1  -1  -2  217.39   10.48
   1  -1  -2  211.62   10.39
   1  -1  -2  190.89   10.47
   1  -1  -2  233.77   10.63
  -1   1   2  223.76   10.50
  -1   1   2  216.63   10.48
  -1   1   2  192.43   10.57
  -1   1   2  207.60   10.48
   0  -1  -2    6.83    0.60
   0  -1  -2    8.21    0.59
   0  -1  -2    7.35    0.58
   0  -1  -2    9.50    0.86
   0   1   2    8.29    0.64
   0   1   2    7.50    0.86
   0   1   2    9.00    0.62
   0   1   2    8.70    0.68
  -2  -1  -2   32.06    1.93
  -2  -1  -2   32.88    1.76
  -2  -1  -2   31.64    2.05
  -2  -1  -2   29.00    1.83
  -2  -1  -2   28.75    1.88
   2   1   2   32.94    2.05
   2   1   2   32.16    1.90
   2   1   2   31.88    1.87
   2   1   2   32.26    1.84
   2   1   2   34.55    1.95
  -3  -1  -2    8.01    0.88
  -3  -1  -2   10.06    1.24
  -3  -1  -2    8.97    0.74
  -3  -1  -2    9.37    1.08
   3   1   2    8.42    1.01
   3   1   2   10.74    1.04
   3   1   2   10.13    0.93
   3   1   2   12.08    0.80
   3   1   2   10.71    1.21
   3   1   2    9.10    0.98
   3   1   2   10.70    0.55
  -4  -1  -2   47.88    2.57
  -4  -1  -2   39.59    2.79
  -4  -1  -2   39.70    2.38
  -4  -1  -2   46.30    2.77
   4   1   2   43.57    2.79
   4   1   2   43.52    2.66
   4   1   2   44.42    2.44
   4   1   2   45.09    2.68
   4   1   2   48.16    2.69
   4   1   2   39.97    2.24
   4   1   2   40.89    2.65
  -5  -1  -2   21.88    1.85
  -5  -1  -2   19.95    2.02
  -5  -1  -2   19.66    1.54
  -5  -1  -2   18.92    1.35
   5   1   2   21.47    1.87
   5   1   2   22.83    1.66
   5   1   2   24.14    1.79
   5   1   2   20.32    1.70
   5   1   2   23.13    1.48
   5   1   2   22.55    1.75
   5   1   2   21.38    1.18
  -6  -1  -2   40.83    2.90
  -6  -1  -2   32.57    2.58
   6   1   2   35.95    2.21
   6   1   2   31.27    1.87
   6   1   2   38.46    2.53
   6   1   2   30.27    2.63
   6   1   2   43.18    2.67
  -7  -1  -2    0.99    1.20
   7   1   2    4.15    1.25
   7   1   2    2.39    0.71
   7   1   2    1.64    0.96
  -8  -1  -2    5.10    1.48
  -8  -1  -2    4.21    1.54
   8   1   2    4.45    0.93
   8   1   2    7.63    1.58
   8   1   2    7.96    0.90
   8   1   2    5.19    1.32
   8   1   2    5.86    1.30
  -9  -1  -2    7.06    1.72
   9   1   2    4.75    1.35
   9   1   2    5.27    1.42
   9   1   2    2.98    0.90
   9   1   2    6.41    1.59
   9  -2  -2    1.69    1.14
   9  -2  -2    2.53    1.07
   9  -2  -2    0.89    0.94
   9  -2  -2    0.82    0.89
   9  -2  -2    3.14    1.56
   9  -2  -2    1.88    0.86
   9  -2  -2    1.05    0.92
   8  -2  -2   14.53    1.51
   8  -2  -2   12.78    1.29
   8  -2  -2   17.38    2.16
   8  -2  -2   12.42    1.42
   8  -2  -2   12.86    1.61
   8  -2  -2   13.11    1.65
   8  -2  -2   14.04    2.24
   7  -2  -2   40.69    2.78
   7  -2  -2   46.10    2.83
   7  -2  -2   44.73    3.33
   7  -2  -2   46.87    2.79
   7  -2  -2   48.76    2.89
   7  -2  -2   45.37    3.04
   7  -2  -2   44.54    2.85
   6  -2  -2   54.68    2.96
   6  -2  -2   44.28    3.33
   6  -2  -2   54.81    2.84
   6  -2  -2   43.36    2.91
   6  -2  -2   44.19    2.99
   6  -2  -2   41.75    2.91
   6  -2  -2   49.54    2.78
   6  -2  -2   37.94    3.29
   6  -2  -2   49.87    2.91
   6  -2  -2   51.60    2.91
   6  -2  -2   44.27    2.84
   5  -2  -2   13.81    1.14
   5  -2  -2   12.30    1.03
   5  -2  -2   13.26    1.18
   5  -2  -2   17.34    1.85
   5  -2  -2   13.50    1.18
   5  -2  -2   13.13    1.19
   5  -2  -2   13.22    1.16
   5  -2  -2   17.07    1.67
   5  -2  -2   13.79    1.12
   5  -2  -2   10.19    1.19
  -5   2   2   14.49    1.16
   4  -2  -2  243.66   13.10
   4  -2  -2  287.48   13.19
   4  -2  -2  243.91   13.15
   4  -2  -2  246.51   13.10
   4  -2  -2  257.51   13.13
   4  -2  -2  251.40   13.39
   4  -2  -2  261.23   13.13
   4  -2  -2  258.09   13.38
   4  -2  -2  243.23   13.17
  -4   2   2  255.35   13.16
  -4   2   2  259.30   13.11
  -4   2   2  251.52   13.11
   3  -2  -2  133.79    7.23
   3  -2  -2  145.91    7.29
   3  -2  -2  129.43    7.46
   3  -2  -2  150.63    7.40
   3  -2  -2  143.59    7.31
   3  -2  -2  138.21    7.52
   3  -2  -2  124.40    7.27
   3  -2  -2  145.65    7.23
   3  -2  -2  139.56    7.32
  -3   2   2  139.26    7.28
  -3   2   2  143.38    7.26
  -3   2   2  136.81    7.31
  -3   2   2  144.90    7.23
   2  -2  -2    2.26    0.54
   2  -2  -2    2.49    0.46
   2  -2  -2    2.21    0.47
   2  -2  -2    2.16    0.34
   2  -2  -2    2.85    0.76
   2  -2  -2    2.81    0.40
   2  -2  -2    2.35    0.48
  -2   2   2    2.70    0.50
  -2   2   2    2.50    0.45
  -2   2   2    2.61    0.35
  -2   2   2    2.45    0.36
  -2   2   2    2.64    0.49
  -2   2   2    2.53    0.45
   1  -2  -2   51.23    3.22
   1  -2  -2   57.07    3.02
   1  -2  -2   60.12    2.96
   1  -2  -2   61.12    3.10
   1  -2  -2   55.44    3.05
   1  -2  -2   55.76    3.03
  -1   2   2   58.08    2.96
  -1   2   2   50.43    3.19
  -1   2   2   57.28    2.90
  -1   2   2   60.20    3.04
  -1   2   2   55.86    3.05
  -1   2   2   56.10    3.06
  -1   2   2   55.58    3.03
   0  -2  -2   87.17    4.45
   0  -2  -2   70.95    4.23
   0  -2  -2   74.83    4.25
   0  -2  -2   82.54    4.23
   0  -2  -2   78.32    4.31
   0  -2  -2   91.51    4.19
   0  -2  -2   75.60    4.21
   0   2   2   76.31    4.26
   0   2   2   88.51    4.42
   0   2   2   84.54    4.29
   0   2   2   80.15    4.22
   0   2   2   79.57    4.31
   0   2   2   75.58    4.18
   0   2   2   87.41    4.27
  -1  -2  -2   69.20    3.59
  -1  -2  -2   71.51    3.88
  -1  -2  -2   67.83    3.68
  -1  -2  -2   76.24    3.74
  -1  -2  -2   70.42    3.81
   1   2   2   72.67    3.80
   1   2   2   62.73    3.68
   1   2   2   76.88    3.88
   1   2   2   72.70    3.74
   1   2   2   65.62    3.59
   1   2   2   69.93    3.75
   1   2   2   58.90    3.67
  -2  -2  -2   56.97    3.18
  -2  -2  -2   50.25    3.04
  -2  -2  -2   56.15    3.01
  -2  -2  -2   58.26    3.26
   2   2   2   54.58    3.08
   2   2   2   51.28    3.07
   2   2   2   59.89    3.02
   2   2   2   53.95    3.18
   2   2   2   54.06    3.09
   2   2   2   56.76    3.16
   2   2   2   53.49    3.06
  -3  -2  -2  357.01   18.19
  -3  -2  -2  375.49   18.10
  -3  -2  -2  361.73   18.32
  -3  -2  -2  345.68   18.27
   3   2   2  348.87   18.26
   3   2   2  360.48   18.10
   3   2   2  363.16   18.24
   3   2   2  320.99   18.17
   3   2   2  366.41   18.24
   3   2   2  350.06   18.28
  -4  -2  -2   20.59    1.77
  -4  -2  -2   21.37    1.73
  -4  -2  -2   16.72    1.47
  -4  -2  -2   22.75    1.42
   4   2   2   19.86    1.75
   4   2   2   24.88    1.70
   4   2   2   23.22    1.69
   4   2   2   20.68    1.44
   4   2   2   19.96    1.65
   4   2   2   20.08    2.18
  -5  -2  -2    2.50    0.94
  -5  -2  -2    2.13    0.61
  -5  -2  -2    2.97    1.04
   5   2   2    2.67    1.00
   5   2   2    2.25    1.13
   5   2   2    3.01    0.73
   5   2   2    1.28    0.96
  -6  -2  -2   29.93    2.09
  -6  -2  -2   28.38    3.00
  -6  -2  -2   31.36    2.49
   6   2   2   33.69    2.06
   6   2   2   34.60    2.33
   6   2   2   24.69    2.37
  -7  -2  -2    8.40    1.57
  -7  -2  -2    9.01    1.59
   7   2   2    5.89    1.03
   7   2   2    5.22    1.56
   7   2   2    8.13    1.52
   7   2   2    7.87    1.47
  -8  -2  -2    6.73    0.90
  -8  -2  -2    7.53    1.69
   8   2   2    8.23    1.15
   8   2   2    9.73    1.64
  -9  -2  -2    4.85    2.35
   9  -3  -2   12.04    2.12
   9  -3  -2    7.94    1.41
   9  -3  -2    7.69    1.42
   9  -3  -2    8.31    1.29
   9  -3  -2    9.67    1.52
   9  -3  -2    6.09    1.28
   9  -3  -2    9.29    1.96
   8  -3  -2    7.88    1.76
   8  -3  -2    5.62    1.92
   8  -3  -2    7.17    1.21
   8  -3  -2    3.81    1.09
   8  -3  -2    6.46    1.23
   8  -3  -2    6.30    0.97
   8  -3  -2    6.68    1.06
   7  -3  -2   19.47    1.78
   7  -3  -2   20.45    1.71
   7  -3  -2   19.28    1.84
   7  -3  -2   18.66    1.65
   7  -3  -2   22.03    1.79
   7  -3  -2   21.24    2.11
   7  -3  -2   23.16    2.40
   7  -3  -2   18.16    1.51
   6  -3  -2   14.76    1.34
   6  -3  -2   15.86    1.41
   6  -3  -2   16.50    1.38
   6  -3  -2   18.90    1.46
   6  -3  -2   13.88    2.02
   6  -3  -2   16.30    1.47
   6  -3  -2   16.45    1.29
   6  -3  -2   17.42    1.51
   6  -3  -2   16.92    1.52
   6  -3  -2   18.74    1.52
  -6   3   2   16.04    1.44
  -6   3   2   15.83    1.49
   5  -3  -2   18.11    1.99
   5  -3  -2   18.16    1.98
   5  -3  -2   17.83    1.49
   5  -3  -2   18.13    1.37
   5  -3  -2   18.06    1.39
   5  -3  -2   21.64    1.53
   5  -3  -2   17.05    1.37
   5  -3  -2   20.63    1.39
   5  -3  -2   18.36    1.53
  -5   3   2   20.32    1.54
  -5   3   2   18.70    1.41
  -5   3   2   20.10    1.42
   4  -3  -2   11.28    0.96
   4  -3  -2   10.24    1.01
   4  -3  -2   10.70    0.93
   4  -3  -2    9.96    0.90
   4  -3  -2   10.82    1.04
   4  -3  -2   10.02    0.87
   4  -3  -2   14.68    2.35
   4  -3  -2   11.21    1.51
   4  -3  -2   11.23    0.89
   4  -3  -2    9.88    1.05
  -4   3   2   10.44    0.96
  -4   3   2   10.76    0.92
  -4   3   2    9.94    1.16
   3  -3  -2  196.29    9.81
   3  -3  -2  202.73    9.72
   3  -3  -2  179.78    9.68
   3  -3  -2  170.73   10.10
   3  -3  -2  190.36    9.92
   3  -3  -2  193.16    9.86
   3  -3  -2  197.84    9.94
   3  -3  -2  193.76    9.82
   3  -3  -2  195.08   10.20
  -3   3   2  197.05    9.81
  -3   3   2  194.10    9.92
  -3   3   2  197.79    9.88
  -3   3   2  181.73    9.86
  -3   3   2  170.65    9.85
   2  -3  -2  219.37   10.49
   2  -3  -2  198.56   10.40
   2  -3  -2  179.01   10.60
   2  -3  -2  216.98   10.18
   2  -3  -2  197.42   10.65
   2  -3  -2  195.52   10.42
   2  -3  -2  196.34   10.34
   2  -3  -2  198.10   10.33
  -2   3   2  212.53   10.41
  -2   3   2  197.18   10.42
  -2   3   2  210.72   10.35
  -2   3   2  187.77   10.41
  -2   3   2  206.79   10.32
   1  -3  -2   30.29    1.90
   1  -3  -2   30.92    1.74
   1  -3  -2   28.12    1.80
   1  -3  -2   29.51    1.79
   1  -3  -2   29.39    2.10
   1  -3  -2   28.00    1.81
  -1   3   2   29.36    1.73
  -1   3   2   32.41    1.55
  -1   3   2   30.92    1.83
  -1   3   2   33.07    1.81
  -1   3   2   29.20    1.86
  -1   3   2   29.54    1.82
   0  -3  -2    2.69    0.50
   0  -3  -2    2.73    0.67
   0  -3  -2    2.49    0.51
   0  -3  -2    1.90    0.43
   0  -3  -2    2.86    0.88
   0  -3  -2    2.61    0.51
   0   3   2    2.40    0.36
   0   3   2    2.44    0.47
   0   3   2    2.76    0.58
   0   3   2    2.25    0.67
   0   3   2    2.30    0.49
   0   3   2    2.57    0.36
   0   3   2    2.38    0.55
   0   3   2    2.96    0.64
  -1  -3  -2   63.48    3.52
  -1  -3  -2   64.94    3.65
  -1  -3  -2   56.55    3.39
  -1  -3  -2   54.23    3.37
  -1  -3  -2   64.88    3.30
   1   3   2   57.84    3.45
   1   3   2   71.04    3.60
   1   3   2   64.69    3.46
   1   3   2   62.69    3.44
   1   3   2   57.72    3.34
   1   3   2   63.59    3.42
   1   3   2   62.00    3.53
  -2  -3  -2    5.27    0.50
  -2  -3  -2    5.42    0.92
  -2  -3  -2    5.34    0.69
  -2  -3  -2    5.31    0.72
   2   3   2    7.41    0.90
   2   3   2    6.15    0.84
   2   3   2    5.76    1.02
   2   3   2    6.36    0.92
   2   3   2    6.91    0.95
   2   3   2    5.75    0.76
   2   3   2    7.08    0.50
   2   3   2    5.56    0.76
  -3  -3  -2   19.99    1.70
  -3  -3  -2   23.53    1.77
  -3  -3  -2   24.12    1.57
  -3  -3  -2   23.18    1.48
   3   3   2   19.69    1.66
   3   3   2   22.53    1.51
   3   3   2   20.71    1.70
   3   3   2   21.21    1.62
   3   3   2   26.56    1.77
   3   3   2   18.97    1.55
   3   3   2   22.80    1.63
  -4  -3  -2    2.72    0.60
  -4  -3  -2    1.96    0.91
  -4  -3  -2    5.04    0.88
  -4  -3  -2    3.51    0.88
   4   3   2    2.34    0.88
   4   3   2    2.68    0.71
   4   3   2    2.17    0.76
   4   3   2    0.95    0.76
   4   3   2    2.04    0.74
   4   3   2    2.59    0.87
   4   3   2    3.98    0.99
  -5  -3  -2   14.12    1.62
  -5  -3  -2   14.28    1.61
  -5  -3  -2   10.97    1.14
   5   3   2   12.31    1.42
   5   3   2   11.17    1.55
   5   3   2   12.62    1.29
   5   3   2   12.99    1.50
  -6  -3  -2    8.51    1.61
  -6  -3  -2    6.87    0.98
  -6  -3  -2   10.41    1.65
   6   3   2    7.25    1.34
   6   3   2    3.66    1.83
   6   3   2    9.87    1.88
  -7  -3  -2   32.00    2.70
   7   3   2   30.32    2.20
   7   3   2   28.72    2.46
  -8  -3  -2   11.56    1.15
   8   3   2   17.04    1.60
   8   3   2   17.70    2.52
   8   3   2   16.48    2.05
   9  -4  -2    3.58    1.22
   9  -4  -2    0.71    1.01
   9  -4  -2    1.28    0.83
   9  -4  -2    1.25    1.09
   9  -4  -2    1.64    1.03
   9  -4  -2    3.90    1.59
   8  -4  -2    9.43    1.43
   8  -4  -2    9.06    1.09
   8  -4  -2   10.08    1.37
   8  -4  -2   10.17    1.14
   8  -4  -2   12.16    2.18
   8  -4  -2    7.99    2.08
   8  -4  -2    9.80    1.51
   7  -4  -2   29.16    1.97
   7  -4  -2   27.84    1.85
   7  -4  -2   22.97    2.69
   7  -4  -2   26.77    1.90
   7  -4  -2   24.81    2.13
   7  -4  -2   30.29    2.13
   7  -4  -2   26.23    1.96
  -7   4   2   27.71    2.20
  -7   4   2   28.56    2.15
   6  -4  -2    0.28    0.85
   6  -4  -2    1.28    0.60
   6  -4  -2   -0.72    0.69
   6  -4  -2    0.59    0.53
   6  -4  -2   -0.74    1.10
   6  -4  -2   -1.03    0.47
   6  -4  -2   -0.86    0.55
   6  -4  -2   -1.82    1.26
  -6   4   2   -0.70    0.59
  -6   4   2   -0.78    0.75
   5  -4  -2    1.69    0.54
   5  -4  -2    1.20    0.62
   5  -4  -2    0.64    0.73
   5  -4  -2    1.49    0.55
   5  -4  -2    1.19    0.48
   5  -4  -2    2.03    0.80
   5  -4  -2   -0.96    1.26
   5  -4  -2    0.73    1.55
   5  -4  -2    1.43    0.68
   5  -4  -2    1.23    0.68
  -5   4   2    1.28    0.82
  -5   4   2    1.67    0.64
  -5   4   2    1.24    0.59
   4  -4  -2   16.39    1.27
   4  -4  -2   13.22    0.94
   4  -4  -2   14.61    1.10
   4  -4  -2   13.76    1.78
   4  -4  -2   13.91    1.20
   4  -4  -2   14.90    1.34
   4  -4  -2   15.27    0.98
   4  -4  -2   15.11    1.21
  -4   4   2   13.33    1.31
  -4   4   2   11.32    1.19
  -4   4   2   15.35    1.22
  -4   4   2   13.13    1.07
  -4   4   2   14.47    1.10
   3  -4  -2  183.36    9.39
   3  -4  -2  187.16    9.68
   3  -4  -2  176.64    9.64
   3  -4  -2  178.02    9.21
   3  -4  -2  171.00    9.65
   3  -4  -2  179.84    9.26
   3  -4  -2  179.43    9.02
   3  -4  -2  178.70    9.32
  -3   4   2  168.53    9.21
  -3   4   2  180.38    9.21
  -3   4   2  171.44    9.33
  -3   4   2  180.81    9.37
   2  -4  -2   52.84    3.38
   2  -4  -2   52.15    2.93
   2  -4  -2   54.02    2.96
   2  -4  -2   51.01    3.06
   2  -4  -2   55.17    3.15
   2  -4  -2   49.47    2.99
   2  -4  -2   55.67    3.40
  -2   4   2   54.66    3.08
  -2   4   2   51.57    2.93
  -2   4   2   48.16    3.05
  -2   4   2   56.96    3.03
  -2   4   2   53.89    2.94
   1  -4  -2  161.83    8.70
   1  -4  -2  191.96    8.82
   1  -4  -2  166.48    8.88
   1  -4  -2  171.51    8.73
   1  -4  -2  170.81    9.03
   1  -4  -2  161.86    8.76
  -1   4   2  172.20    8.80
  -1   4   2  153.50    8.82
  -1   4   2  161.66    8.76
  -1   4   2  173.80    8.73
  -1   4   2  172.81    8.73
  -1   4   2  157.07    8.95
   0  -4  -2   66.83    3.58
   0  -4  -2   61.75    3.69
   0  -4  -2   64.06    3.54
   0  -4  -2   60.86    3.52
   0  -4  -2   63.39    3.57
   0   4   2   62.06    3.52
   0   4   2   64.24    3.39
   0   4   2   65.67    3.58
   0   4   2   61.94    3.63
   0   4   2   69.24    3.62
   0   4   2   65.36    3.56
   0   4   2   63.62    3.75
  -1  -4  -2   15.87    1.61
  -1  -4  -2   13.15    1.18
  -1  -4  -2   16.61    1.21
  -1  -4  -2   17.37    1.20
  -1  -4  -2   13.75    1.90
  -1  -4  -2   12.77    1.13
   1   4   2   14.57    1.39
   1   4   2   15.38    1.34
   1   4   2   15.31    1.06
   1   4   2   15.07    1.22
   1   4   2   14.73    1.09
   1   4   2   16.28    1.10
   1   4   2   14.36    1.22
   1   4   2   14.19    1.25
  -2  -4  -2    1.33    0.74
  -2  -4  -2    0.89    0.52
  -2  -4  -2    0.89    0.54
  -2  -4  -2    2.41    0.90
  -2  -4  -2    0.76    0.34
   2   4   2    1.06    0.62
   2   4   2    0.97    0.52
   2   4   2    0.89    0.56
   2   4   2    0.59    0.70
   2   4   2    0.32    0.63
   2   4   2    2.43    0.69
   2   4   2    1.45    0.62
   2   4   2    0.76    0.36
  -3  -4  -2   11.94    1.08
  -3  -4  -2    8.95    1.41
  -3  -4  -2    9.99    0.67
  -3  -4  -2   10.41    1.14
  -3  -4  -2   10.25    1.30
   3   4   2   12.91    1.37
   3   4   2   10.35    1.16
   3   4   2   10.86    1.21
   3   4   2   12.11    1.27
   3   4   2   10.39    1.21
   3   4   2    8.75    1.13
   3   4   2   10.56    1.25
  -4  -4  -2   -1.02    1.02
  -4  -4  -2   -0.06    0.64
  -4  -4  -2    0.26    0.73
   4   4   2   -0.02    0.70
   4   4   2   -0.60    0.69
   4   4   2    0.27    0.86
   4   4   2    0.44    0.87
  -5  -4  -2   77.39    4.84
  -5  -4  -2   78.40    5.07
   5   4   2   82.18    4.77
   5   4   2   95.11    5.00
   5   4   2   89.03    5.01
  -6  -4  -2    1.70    1.18
   6   4   2    0.10    0.71
   6   4   2    0.26    0.76
   6   4   2    0.32    1.03
   6   4   2    1.55    1.15
  -7  -4  -2   24.30    2.46
   7   4   2   26.56    2.39
   7   4   2   20.66    2.42
   7   4   2   23.93    2.10
   7   4   2   22.96    2.39
  -8  -4  -2    1.49    1.47
   8   4   2   -0.81    0.94
   8   4   2   -0.40    1.25
   8   4   2    0.16    1.31
   9  -5  -2   -1.09    0.73
   9  -5  -2   -0.03    0.90
   9  -5  -2    0.70    1.21
   9  -5  -2    1.25    1.44
   9  -5  -2    0.23    0.76
   9  -5  -2    0.87    1.03
   9  -5  -2    0.30    1.47
   8  -5  -2    7.51    1.49
   8  -5  -2    2.82    1.12
   8  -5  -2    3.72    1.19
   8  -5  -2    5.71    0.98
   8  -5  -2    4.63    1.69
   7  -5  -2    0.44    0.57
   7  -5  -2    0.35    0.60
   7  -5  -2    1.36    0.99
   7  -5  -2   -0.61    0.82
   7  -5  -2   -0.01    1.35
   7  -5  -2    1.91    0.87
   7  -5  -2    0.12    0.58
  -7   5   2   -0.34    0.76
  -7   5   2    0.45    0.91
   6  -5  -2   22.77    1.68
   6  -5  -2   26.36    2.74
   6  -5  -2   27.64    2.32
   6  -5  -2   22.44    1.63
   6  -5  -2   23.41    2.06
   6  -5  -2   24.73    1.66
  -6   5   2   26.75    2.60
  -6   5   2   25.65    2.05
   5  -5  -2   52.80    4.09
   5  -5  -2   56.14    3.50
   5  -5  -2   52.13    3.13
   5  -5  -2   52.87    2.98
   5  -5  -2   59.07    3.32
  -5   5   2   53.97    3.30
  -5   5   2   56.30    3.45
  -5   5   2   56.35    3.13
   4  -5  -2    2.70    0.75
   4  -5  -2    2.99    0.61
   4  -5  -2    2.53    0.70
   4  -5  -2    2.77    0.89
   4  -5  -2    2.66    1.21
   4  -5  -2    2.79    0.36
  -4   5   2    2.25    0.74
  -4   5   2    3.05    0.78
  -4   5   2    2.98    0.59
  -4   5   2    1.79    0.90
  -4   5   2    2.15    0.57
   3  -5  -2    0.40    0.57
   3  -5  -2    0.78    1.02
   3  -5  -2    1.12    0.73
   3  -5  -2    0.26    0.66
   3  -5  -2    0.94    0.58
   3  -5  -2    1.27    1.02
   3  -5  -2    1.29    0.49
  -3   5   2    1.77    0.68
  -3   5   2    0.78    0.60
  -3   5   2    0.81    0.47
  -3   5   2    1.27    0.46
  -3   5   2    0.95    0.74
   2  -5  -2    0.29    0.91
   2  -5  -2    0.35    0.64
   2  -5  -2   -0.15    0.76
   2  -5  -2    0.22    0.51
   2  -5  -2   -0.62    0.63
   2  -5  -2   -0.02    0.41
  -2   5   2   -0.27    0.63
  -2   5   2   -0.18    0.45
  -2   5   2    0.20    0.42
  -2   5   2    0.25    0.51
  -2   5   2    0.22    0.58
   1  -5  -2   18.63    1.45
   1  -5  -2   20.56    1.88
   1  -5  -2   21.02    1.42
   1  -5  -2   19.98    1.35
   1  -5  -2   20.97    1.65
   1  -5  -2   20.79    1.63
  -1   5   2   17.76    1.37
  -1   5   2   16.84    1.39
  -1   5   2   19.15    1.41
   0  -5  -2    0.33    0.50
   0  -5  -2   -0.55    0.43
   0  -5  -2    0.57    0.74
   0  -5  -2   -0.52    0.86
   0  -5  -2    0.46    0.95
   0  -5  -2    0.15    0.47
   0   5   2    0.04    0.30
   0   5   2   -0.47    0.77
   0   5   2   -0.01    0.30
   0   5   2    1.05    0.60
   0   5   2    0.31    0.53
   0   5   2    0.11    0.48
   0   5   2   -0.45    0.69
   0   5   2    0.48    0.59
  -1  -5  -2    1.00    0.52
  -1  -5  -2    0.66    1.04
  -1  -5  -2    0.25    0.60
  -1  -5  -2   -0.40    0.53
  -1  -5  -2    0.45    0.64
  -1  -5  -2   -0.10    0.50
   1   5   2    0.86    0.71
   1   5   2    0.20    0.49
   1   5   2    0.39    0.63
   1   5   2   -0.82    0.74
   1   5   2   -0.05    0.47
   1   5   2   -0.25    0.39
   1   5   2   -0.79    0.58
   1   5   2    1.00    0.62
  -2  -5  -2   14.91    1.32
  -2  -5  -2   14.00    1.29
  -2  -5  -2   15.53    1.12
  -2  -5  -2   14.51    1.43
   2   5   2   17.62    1.57
   2   5   2   15.53    1.54
   2   5   2   14.80    1.32
   2   5   2   16.17    1.44
   2   5   2   16.01    1.12
   2   5   2   14.51    1.44
   2   5   2   17.28    1.44
  -3  -5  -2   10.11    2.27
  -3  -5  -2   13.07    1.70
  -3  -5  -2   11.18    0.91
   3   5   2   12.94    1.37
   3   5   2   16.30    1.49
   3   5   2   10.94    1.36
   3   5   2   11.01    1.80
   3   5   2   14.14    1.48
  -4  -5  -2   41.98    3.08
  -4  -5  -2   37.14    2.88
   4   5   2   46.73    2.89
   4   5   2   45.44    2.98
   4   5   2   45.73    2.85
   4   5   2   41.53    2.90
  -5  -5  -2    6.06    0.76
  -5  -5  -2    8.34    1.58
   5   5   2    9.63    1.31
   5   5   2   11.51    2.16
   5   5   2    9.25    1.25
   5   5   2    9.66    1.53
  -6  -5  -2    0.83    1.19
   6   5   2    0.84    1.10
   6   5   2   -0.60    1.12
   6   5   2   -0.83    1.70
   6   5   2    1.63    0.72
  -7  -5  -2   -0.62    1.21
   7   5   2   -0.83    1.05
   7   5   2    0.11    0.90
   7   5   2    0.28    1.93
   8  -6  -2   -0.17    0.96
   8  -6  -2   -0.10    0.94
   8  -6  -2    0.01    1.48
   8  -6  -2    0.41    0.61
   8  -6  -2   -0.25    0.57
  -8   6   2    0.63    0.81
  -8   6   2   -0.19    1.00
   7  -6  -2    3.65    0.69
   7  -6  -2    0.23    0.54
   7  -6  -2    1.70    1.10
   7  -6  -2    0.62    0.90
   7  -6  -2    3.04    1.54
  -7   6   2   -0.04    0.98
  -7   6   2    1.21    1.31
   6  -6  -2    2.53    0.75
   6  -6  -2    0.59    0.89
   6  -6  -2    1.01    0.59
   6  -6  -2    2.11    1.33
  -6   6   2    4.88    1.13
  -6   6   2    0.79    0.74
   5  -6  -2   12.11    1.12
   5  -6  -2   14.54    1.64
   5  -6  -2   17.01    2.33
   5  -6  -2   11.73    0.74
   5  -6  -2   12.35    1.43
  -5   6   2   15.22    1.60
  -5   6   2   13.18    1.40
  -5   6   2   13.30    1.12
  -5   6   2   14.11    1.19
   4  -6  -2    0.03    0.68
   4  -6  -2    0.03    1.16
   4  -6  -2    0.54    0.50
   4  -6  -2    0.38    0.90
  -4   6   2    0.33    0.51
  -4   6   2    0.65    0.88
  -4   6   2    0.96    0.81
  -4   6   2    0.29    0.50
   3  -6  -2    6.88    1.13
   3  -6  -2    6.33    1.94
   3  -6  -2    4.56    0.74
  -3   6   2    3.68    0.92
  -3   6   2    4.95    0.74
  -3   6   2    4.92    0.75
   2  -6  -2   -0.29    0.45
   2  -6  -2   -0.41    0.78
   2  -6  -2   -0.85    0.84
   2  -6  -2    0.78    0.79
   2  -6  -2   -0.55    0.96
   2  -6  -2   -0.43    0.65
  -2   6   2    0.27    0.71
  -2   6   2    0.16    0.73
  -2   6   2   -0.71    0.48
  -2   6   2   -0.27    0.49
   1  -6  -2    2.05    0.62
   1  -6  -2    0.97    0.69
   1  -6  -2    0.88    1.06
   1  -6  -2    0.99    1.02
   1  -6  -2    1.87    0.67
   1  -6  -2    1.86    0.95
  -1   6   2    2.98    0.72
  -1   6   2    0.88    0.62
  -1   6   2    1.27    1.07
  -1   6   2    0.70    0.72
   0  -6  -2   20.40    2.22
   0  -6  -2   22.58    1.97
   0  -6  -2   21.23    1.65
   0  -6  -2   20.24    1.58
   0  -6  -2   22.82    1.73
   0   6   2   24.60    1.66
   0   6   2   18.23    1.31
   0   6   2   19.90    1.31
   0   6   2   23.23    1.81
   0   6   2   23.28    1.61
   0   6   2   20.42    1.72
  -1  -6  -2   47.31    3.86
  -1  -6  -2   50.88    3.50
  -1  -6  -2   49.42    2.98
  -1  -6  -2   45.17    2.89
  -1  -6  -2   48.95    3.15
   1   6   2   49.05    2.88
   1   6   2   53.28    3.08
   1   6   2   48.55    3.17
   1   6   2   48.01    3.60
   1   6   2   55.60    3.12
   1   6   2   48.67    3.31
  -2  -6  -2    3.88    1.25
  -2  -6  -2    6.42    0.85
  -2  -6  -2    4.40    1.83
   2   6   2    5.98    0.84
   2   6   2    5.94    1.13
   2   6   2    3.92    1.67
   2   6   2    5.22    0.92
   2   6   2    6.68    1.05
   2   6   2    5.64    1.22
  -3  -6  -2   -0.48    0.97
  -3  -6  -2    3.75    1.26
  -3  -6  -2    0.30    0.30
   3   6   2    1.03    0.47
   3   6   2    1.26    0.97
   3   6   2    0.30    0.90
   3   6   2    0.32    0.92
   3   6   2    1.91    0.75
  -4  -6  -2    1.52    0.49
  -4  -6  -2    2.26    1.15
   4   6   2    1.81    0.99
   4   6   2    2.37    1.12
   4   6   2    1.54    0.95
   4   6   2    1.77    0.87
  -5  -6  -2    0.02    1.12
   5   6   2    1.76    0.82
   5   6   2    0.34    1.11
   5   6   2    0.00    1.20
   5   6   2    3.82    1.15
  -6  -6  -2    5.29    1.54
   6   6   2    6.27    1.30
   6   6   2    2.03    1.49
   6   6   2    7.65    1.60
   8  -7  -2    1.82    2.27
   8  -7  -2    1.84    0.71
   8  -7  -2    3.90    1.65
   8  -7  -2   -1.45    0.97
  -8   7   2    1.11    0.86
   7  -7  -2   -0.34    1.04
   7  -7  -2   -0.94    0.45
   7  -7  -2   -1.23    1.43
   7  -7  -2    0.35    1.15
  -7   7   2   -0.03    0.73
  -7   7   2   -0.35    0.95
   6  -7  -2    0.41    1.47
   6  -7  -2   -0.43    0.48
   6  -7  -2   -0.54    0.88
   6  -7  -2    0.77    1.03
  -6   7   2    0.97    0.48
  -6   7   2    1.32    0.93
  -6   7   2   -0.35    0.99
   5  -7  -2    9.45    1.34
   5  -7  -2    8.68    1.57
   5  -7  -2    8.80    0.95
   5  -7  -2   10.86    1.97
  -5   7   2    9.68    1.37
  -5   7   2    9.44    1.56
   4  -7  -2    0.92    0.52
   4  -7  -2    1.91    1.73
   4  -7  -2    0.16    0.77
  -4   7   2    1.75    0.57
  -4   7   2    0.92    0.65
  -4   7   2    0.20    0.47
   3  -7  -2    6.07    0.84
   3  -7  -2    4.37    1.34
   3  -7  -2    5.57    1.03
   3  -7  -2    7.59    1.39
  -3   7   2    6.13    0.85
  -3   7   2    6.93    1.18
  -3   7   2    8.23    1.36
  -3   7   2    6.06    0.90
   2  -7  -2    0.65    0.59
   2  -7  -2    1.00    1.16
   2  -7  -2    2.99    1.15
   2  -7  -2    2.12    0.81
  -2   7   2    2.27    0.98
  -2   7   2    2.12    0.73
  -2   7   2    2.40    0.75
  -2   7   2    1.78    0.92
   1  -7  -2   46.69    3.06
   1  -7  -2   49.50    3.17
   1  -7  -2   47.87    3.44
  -1   7   2   54.65    3.23
  -1   7   2   57.88    3.34
  -1   7   2   53.62    3.13
  -1   7   2   49.20    3.37
   0  -7  -2   21.36    1.67
   0  -7  -2   18.58    2.41
   0  -7  -2   20.29    1.82
   0  -7  -2   20.06    2.32
   0  -7  -2   21.19    1.61
   0  -7  -2   23.18    2.12
   0   7   2   25.66    1.88
   0   7   2   18.74    1.31
   0   7   2   20.95    1.68
   0   7   2   20.68    1.77
   0   7   2   21.55    1.87
  -1  -7  -2   42.49    2.72
  -1  -7  -2   39.64    3.00
  -1  -7  -2   36.08    3.14
  -1  -7  -2   44.11    3.65
  -1  -7  -2   39.15    3.00
   1   7   2   32.78    2.34
   1   7   2   45.52    3.02
   1   7   2   40.36    2.78
   1   7   2   42.60    2.57
  -2  -7  -2    0.75    0.31
  -2  -7  -2   -0.01    1.25
  -2  -7  -2    1.40    1.20
   2   7   2    0.86    0.63
   2   7   2    0.63    0.90
   2   7   2    1.16    0.73
  -3  -7  -2    2.82    1.28
   3   7   2    3.94    0.69
   3   7   2    3.45    1.10
   3   7   2    4.09    1.64
   3   7   2    5.25    1.26
  -4  -7  -2    0.58    1.08
   4   7   2    1.05    1.15
   4   7   2    1.53    1.06
   4   7   2    2.81    1.19
  -5  -7  -2    3.04    1.40
   5   7   2    3.90    1.27
   5   7   2    3.07    1.55
   5   7   2    5.41    1.39
   6   7   2    2.16    1.18
   7  -8  -2    0.74    1.47
   7  -8  -2   -1.15    1.02
  -7   8   2    1.92    1.23
  -7   8   2    1.12    0.92
   6  -8  -2    0.25    1.09
   6  -8  -2   -0.98    1.28
   6  -8  -2   -1.15    0.86
  -6   8   2   -0.55    1.02
  -6   8   2   -0.23    0.82
   5  -8  -2    1.34    1.19
   5  -8  -2    1.29    1.37
   5  -8  -2   -0.66    0.83
   5  -8  -2    1.10    0.50
  -5   8   2    0.57    0.83
  -5   8   2    1.44    1.07
  -5   8   2    0.30    0.45
   4  -8  -2    1.54    1.24
   4  -8  -2    1.93    1.00
   4  -8  -2    3.20    0.63
   4  -8  -2    3.01    1.24
  -4   8   2    2.54    1.00
  -4   8   2    5.35    1.29
   3  -8  -2    2.20    1.45
   3  -8  -2    1.78    0.60
   3  -8  -2    1.91    1.11
   3  -8  -2    0.94    1.13
  -3   8   2    0.89    0.96
  -3   8   2    0.82    0.59
  -3   8   2    1.79    0.91
   2  -8  -2    6.06    0.91
   2  -8  -2    5.42    1.43
   2  -8  -2    3.58    1.80
   2  -8  -2    6.12    1.35
  -2   8   2    4.70    0.90
  -2   8   2    6.31    1.14
   1  -8  -2    3.05    0.88
   1  -8  -2    1.04    1.30
   1  -8  -2    3.18    0.87
   1  -8  -2    2.93    1.31
  -1   8   2    2.22    0.84
  -1   8   2    2.99    1.00
  -1   8   2    2.82    1.08
   0  -8  -2    4.64    1.31
   0  -8  -2    1.02    0.76
   0   8   2    0.68    0.18
   0   8   2    0.45    0.96
   0   8   2    1.28    0.79
   0   8   2   -0.06    0.79
  -1  -8  -2    0.51    1.09
  -1  -8  -2   -0.09    1.78
  -1  -8  -2    1.19    0.99
   1   8   2   -0.12    0.97
   1   8   2    0.84    0.87
   1   8   2    0.29    0.26
   1   8   2    0.31    0.96
  -2  -8  -2    5.62    1.42
  -2  -8  -2    7.75    1.63
   2   8   2    7.23    0.58
   2   8   2    5.88    1.35
   2   8   2    6.20    1.03
   2   8   2    6.04    1.28
   2   8   2    5.17    0.88
  -3  -8  -2   11.70    1.21
  -3  -8  -2   15.49    2.07
   3   8   2   17.18    1.69
   3   8   2   16.82    2.01
   3   8   2   19.60    1.65
  -4  -8  -2   -0.35    1.17
   4   8   2   -1.05    1.10
   4   8   2    0.07    1.07
   4   8   2    0.42    0.91
   6  -9  -2   -0.39    1.20
   6  -9  -2    0.29    1.45
  -6   9   2    2.48    1.23
  -6   9   2    0.41    0.93
   5  -9  -2   -0.50    1.13
   5  -9  -2   -0.47    1.59
   5  -9  -2   -2.29    1.50
  -5   9   2    0.34    1.30
  -5   9   2   -0.02    0.90
   4  -9  -2   12.78    2.03
   4  -9  -2   12.86    1.66
  -4   9   2   11.90    1.64
  -4   9   2   12.93    1.81
   3  -9  -2    3.26    0.69
   3  -9  -2    2.54    0.98
   3  -9  -2    2.19    1.55
   3  -9  -2    0.04    1.26
  -3   9   2    1.40    1.00
  -3   9   2    3.69    0.54
  -3   9   2    1.85    1.25
   2  -9  -2    2.36    1.43
   2  -9  -2    1.42    1.49
  -2   9   2    4.17    1.18
  -2   9   2    2.01    0.70
   1  -9  -2    5.64    1.11
   1  -9  -2    4.49    1.55
  -1   9   2    6.60    1.26
  -1   9   2    7.12    1.36
  -1   9   2    6.25    1.10
   0  -9  -2   -1.01    1.22
   0  -9  -2   -0.35    2.14
   0  -9  -2    1.15    0.87
   0   9   2    0.03    0.72
   0   9   2    1.45    0.96
  -1  -9  -2   -0.85    1.25
  -1  -9  -2    0.77    0.94
  -1  -9  -2   -1.73    1.31
   1   9   2   -0.29    0.81
   1   9   2    0.57    0.30
   1   9   2   -1.36    0.95
   1   9   2   -0.28    1.03
   1   9   2    0.30    0.28
  -2  -9  -2    3.27    1.50
   2   9   2    4.01    1.00
   2   9   2    3.60    1.32
   2   9   2    4.27    1.36
  -3  -9  -2    6.38    1.98
   3   9   2    5.48    1.71
   3   9   2    7.82    1.71
   4 -10  -2    7.39    1.98
  -4  10   2   11.66    1.76
  -4  10   2   12.20    1.87
   3 -10  -2    1.10    1.57
   3 -10  -2   -1.15    1.64
  -3  10   2    1.17    0.44
  -3  10   2    3.11    1.75
   2 -10  -2   -0.01    1.45
   2 -10  -2    2.18    0.93
   2 -10  -2    0.10    1.73
  -2  10   2    0.98    1.23
  -2  10   2    0.59    1.02
  -2  10   2    1.34    0.45
   1 -10  -2    2.18    1.87
   1 -10  -2    0.31    1.70
   1 -10  -2    8.35    1.37
  -1  10   2    4.73    1.30
  -1  10   2    4.35    1.40
   0 -10  -2    2.70    1.77
   0 -10  -2    2.32    1.61
   0 -10  -2    4.58    1.11
   0  10   2    1.75    1.23
   0  10   2    0.92    0.97
   0  10   2    3.85    1.15
  -1 -10  -2    3.31    1.66
   1  10   2    2.97    1.22
   1  10   2    4.81    1.18
   1  10   2    6.16    1.50
   1  10  -3    0.09    0.50
   1  10  -3    0.33    1.14
   1  10  -3    1.73    1.18
  -1 -10   3   -0.14    1.53
   0  10  -3    1.49    0.44
   0  10  -3   -0.03    0.48
   0 -10   3    0.68    1.51
   0 -10   3    1.94    1.08
  -1  10  -3    0.89    0.88
  -1  10  -3    0.33    0.58
  -1  10  -3    0.32    1.19
   1 -10   3    0.48    1.06
   1 -10   3    0.56    1.25
   1 -10   3    5.71    1.93
  -2  10  -3    0.66    1.01
   2 -10   3    1.49    1.19
   2 -10   3   -0.43    1.08
  -3  10  -3    2.86    1.14
  -3  10  -3    2.81    1.35
   3 -10   3    0.12    1.47
   3 -10   3    2.08    1.59
   3 -10   3    0.44    1.34
   4   9  -3    1.34    1.38
   4   9  -3    4.53    1.39
   4   9  -3    5.61    1.06
  -4  -9   3    1.71    1.38
   3   9  -3    3.09    1.22
   3   9  -3    1.86    0.86
   3   9  -3    1.66    1.17
  -3  -9   3    2.79    1.18
  -3  -9   3    0.92    1.46
   2   9  -3    4.66    1.47
   2   9  -3   -0.04    1.10
   2   9  -3    6.94    1.34
  -2  -9   3    2.65    1.65
   1   9  -3    2.90    0.93
   1   9  -3    1.60    1.14
   1   9  -3    2.06    1.05
   1   9  -3    1.44    0.40
  -1  -9   3    3.05    1.15
  -1  -9   3    1.61    1.37
  -1  -9   3   -0.25    0.96
   0   9  -3    0.20    0.39
   0   9  -3   -0.49    1.10
   0   9  -3    0.37    0.77
   0  -9   3    1.49    1.35
   0  -9   3   -0.03    0.94
   0  -9   3    0.86    1.00
  -1   9  -3    0.29    1.07
  -1   9  -3    0.23    0.26
  -1   9  -3    1.65    1.08
  -1   9  -3    1.24    0.32
   1  -9   3    1.74    1.23
   1  -9   3   -0.08    1.08
   1  -9   3    0.27    1.00
  -2   9  -3    0.88    0.97
  -2   9  -3    1.55    1.19
  -2   9  -3    0.70    0.29
   2  -9   3   -0.51    0.97
   2  -9   3   -0.78    1.14
   2  -9   3    0.23    1.13
  -3   9  -3    7.58    1.33
  -3   9  -3    9.26    1.71
   3  -9   3    5.42    1.49
   3  -9   3    7.70    1.91
   3  -9   3    6.75    1.61
  -4   9  -3    1.52    1.18
  -4   9  -3    0.21    0.80
   4  -9   3    1.66    1.57
   4  -9   3    0.08    1.16
   4  -9   3    1.19    1.19
  -5   9  -3   18.77    2.36
  -5   9  -3   21.33    1.92
   5  -9   3   12.38    2.16
   5  -9   3   17.65    2.62
   5  -9   3   26.69    4.14
   5   8  -3    1.26    1.37
   5   8  -3    3.25    0.83
   5   8  -3    1.66    1.29
   5   8  -3    2.19    1.23
  -5  -8   3    1.67    1.26
   4   8  -3   -0.48    1.17
   4   8  -3    0.02    1.13
   4   8  -3    1.77    0.99
   4   8  -3    1.10    1.22
  -4  -8   3    0.80    1.19
   3   8  -3    6.83    1.52
   3   8  -3    5.83    1.17
   3   8  -3    6.54    1.44
  -3  -8   3    6.82    1.46
  -3  -8   3    6.23    1.48
   2   8  -3    0.76    0.42
   2   8  -3    1.90    0.94
   2   8  -3    0.57    0.82
   2   8  -3    0.55    0.98
  -2  -8   3    1.11    1.34
  -2  -8   3   -0.06    0.92
  -2  -8   3    0.90    0.66
  -2  -8   3   -0.44    0.51
   1   8  -3    7.81    1.47
   1   8  -3    9.17    1.52
   1   8  -3    9.19    1.23
  -1  -8   3    8.39    1.47
  -1  -8   3    8.09    1.04
  -1  -8   3    9.55    1.99
  -1  -8   3   11.29    1.00
   0   8  -3    9.46    1.48
   0   8  -3   10.08    1.48
   0   8  -3    9.96    1.08
   0  -8   3   10.47    1.03
   0  -8   3    8.90    1.79
   0  -8   3   16.59    3.13
   0  -8   3   10.83    1.64
  -1   8  -3    3.21    1.39
   1  -8   3    2.61    1.26
   1  -8   3    1.76    0.47
   1  -8   3    2.83    1.22
  -2   8  -3   -0.86    0.95
  -2   8  -3    0.48    0.15
  -2   8  -3    0.65    0.90
   2  -8   3    0.01    0.98
   2  -8   3    0.30    1.30
   2  -8   3    0.17    0.33
  -3   8  -3    2.74    0.94
  -3   8  -3    1.32    1.14
   3  -8   3    1.87    1.16
   3  -8   3    2.78    1.47
   3  -8   3    1.31    1.20
  -4   8  -3    0.16    1.02
  -4   8  -3    0.46    0.79
   4  -8   3    1.18    1.08
   4  -8   3    0.13    1.13
   4  -8   3    1.15    1.44
   4  -8   3    2.02    0.56
  -5   8  -3    2.10    1.18
   5  -8   3    0.59    1.06
   5  -8   3    3.58    0.55
   5  -8   3    2.05    1.91
   5  -8   3    1.89    1.04
   5  -8   3    2.93    0.67
  -6   8  -3    2.60    1.28
  -6   8  -3    2.07    0.79
   6  -8   3    0.51    1.13
   6  -8   3    1.01    0.49
   6  -8   3    1.20    1.53
   6  -8   3    5.07    3.60
   6   7  -3    1.00    1.28
   6   7  -3   -0.59    1.21
   6   7  -3    1.65    1.30
  -6  -7   3    0.65    1.05
   5   7  -3    2.24    1.31
   5   7  -3    4.62    0.87
   5   7  -3    3.17    1.22
   5   7  -3    3.66    1.33
  -5  -7   3    2.65    1.28
  -5  -7   3    1.87    0.52
   4   7  -3   14.29    1.74
   4   7  -3   17.26    1.50
   4   7  -3   11.57    1.52
  -4  -7   3   12.48    2.03
  -4  -7   3   16.35    1.60
  -4  -7   3   12.62    1.79
   3   7  -3   -0.13    0.83
   3   7  -3   -0.23    0.90
   3   7  -3   -0.55    0.74
  -3  -7   3   -0.17    1.11
  -3  -7   3    1.23    0.96
  -3  -7   3    0.13    0.83
   2   7  -3    0.68    0.84
   2   7  -3    1.09    1.07
   2   7  -3    3.96    0.82
   2   7  -3    0.74    1.27
  -2  -7   3    1.68    0.91
  -2  -7   3    1.89    1.10
  -2  -7   3   -0.04    0.83
  -2  -7   3    1.84    0.74
  -2  -7   3    1.29    0.94
   1   7  -3    9.51    1.41
   1   7  -3    7.60    1.12
   1   7  -3    7.99    1.46
   1   7  -3    6.67    0.99
  -1  -7   3    7.67    1.43
  -1  -7   3    8.83    1.15
  -1  -7   3    8.09    1.32
  -1  -7   3    9.10    1.47
  -1  -7   3    8.16    1.43
   0   7  -3   16.82    1.61
   0   7  -3   14.37    1.21
   0   7  -3   13.12    1.73
   0   7  -3   12.39    1.19
   0  -7   3   10.74    1.63
   0  -7   3   13.53    1.20
   0  -7   3   15.73    1.75
   0  -7   3   13.02    1.85
   0  -7   3   16.02    1.12
  -1   7  -3   29.79    2.27
  -1   7  -3   32.29    2.42
  -1   7  -3   30.73    1.87
   1  -7   3   30.24    2.76
   1  -7   3   29.24    2.70
   1  -7   3   31.04    1.90
   1  -7   3   36.39    2.54
   1  -7   3   31.38    2.47
  -2   7  -3   41.39    2.79
  -2   7  -3   40.24    2.89
   2  -7   3   44.40    2.38
   2  -7   3   35.54    3.27
   2  -7   3   45.84    3.00
   2  -7   3   40.91    2.97
  -3   7  -3   -0.25    1.09
  -3   7  -3   -0.37    0.91
   3  -7   3    0.53    1.55
   3  -7   3    0.01    0.90
   3  -7   3    0.98    0.40
   3  -7   3   -0.04    0.90
  -4   7  -3   50.23    3.40
  -4   7  -3   50.99    3.44
   4  -7   3   48.27    3.42
   4  -7   3   48.30    2.86
   4  -7   3   57.36    3.60
  -5   7  -3   11.18    1.59
  -5   7  -3   10.36    1.15
   5  -7   3   10.24    0.97
   5  -7   3    9.24    1.64
   5  -7   3    8.81    1.51
   5  -7   3    7.73    1.00
  -6   7  -3    8.21    1.52
  -6   7  -3    5.05    0.96
   6  -7   3    4.02    0.85
   6  -7   3    7.95    1.59
   6  -7   3    5.35    1.30
  -7   7  -3    2.43    1.27
  -7   7  -3    1.37    0.44
   7  -7   3    5.21    3.47
   7  -7   3    0.64    0.75
   7  -7   3    1.60    1.18
   7   6  -3    0.12    1.95
   7   6  -3    0.68    1.40
   7   6  -3    0.29    1.14
  -7  -6   3    3.56    1.24
   6   6  -3   13.92    1.14
   6   6  -3   11.97    1.75
  -6  -6   3    9.50    1.59
   5   6  -3   -0.34    1.07
   5   6  -3    0.70    1.10
   5   6  -3    0.66    0.70
  -5  -6   3   -1.39    0.94
  -5  -6   3    0.92    0.31
   4   6  -3    0.38    0.99
   4   6  -3    0.35    0.83
  -4  -6   3   -1.02    0.77
  -4  -6   3    0.39    0.40
  -4  -6   3   -0.36    1.14
  -4  -6   3   -0.17    0.70
   3   6  -3   -0.30    0.65
   3   6  -3   -0.52    0.88
   3   6  -3   -0.49    0.71
   3   6  -3   -0.80    0.86
  -3  -6   3    0.21    0.72
  -3  -6   3    0.45    0.73
  -3  -6   3   -1.07    0.85
  -3  -6   3    0.96    1.19
   2   6  -3    7.94    1.12
   2   6  -3    9.30    1.15
   2   6  -3    9.69    1.21
   2   6  -3   10.60    1.20
   2   6  -3    8.76    1.18
  -2  -6   3   11.63    1.47
  -2  -6   3    8.66    1.15
  -2  -6   3    8.56    1.37
  -2  -6   3   10.16    1.28
  -2  -6   3    8.83    1.25
  -2  -6   3   12.77    1.06
   1   6  -3    4.24    0.79
   1   6  -3    5.17    1.09
   1   6  -3    4.23    0.95
   1   6  -3    4.96    0.90
   1   6  -3    4.44    1.00
  -1  -6   3    3.78    0.95
  -1  -6   3    4.96    0.77
  -1  -6   3    4.87    1.02
  -1  -6   3    4.18    0.94
  -1  -6   3    8.15    1.29
  -1  -6   3    3.10    0.65
  -1  -6   3    4.26    1.08
   0   6  -3    9.81    0.97
   0   6  -3    8.95    1.27
   0   6  -3    7.46    1.07
   0   6  -3    8.22    0.87
   0   6  -3    7.56    1.17
   0   6  -3    7.83    1.27
   0  -6   3    7.85    0.89
   0  -6   3    8.70    1.20
   0  -6   3   10.52    1.51
   0  -6   3    5.86    0.71
   0  -6   3   11.56    1.40
   0  -6   3    8.10    1.06
   0  -6   3    7.29    1.43
   0  -6   3    9.84    1.34
  -1   6  -3   35.51    2.16
  -1   6  -3   36.79    2.54
  -1   6  -3   38.19    2.44
  -1   6  -3   38.94    2.10
  -1   6  -3   35.22    2.49
  -1   6  -3   34.67    2.42
   1  -6   3   38.14    2.90
   1  -6   3   42.08    2.64
   1  -6   3   36.74    2.17
   1  -6   3   36.73    2.60
   1  -6   3   34.23    2.54
   1  -6   3   35.61    2.34
  -2   6  -3   42.14    2.65
  -2   6  -3   39.04    2.35
  -2   6  -3   40.29    2.96
   2  -6   3   46.13    2.89
   2  -6   3   42.58    2.84
   2  -6   3   39.25    3.13
   2  -6   3   41.04    2.57
   2  -6   3   43.99    2.41
  -3   6  -3   63.48    5.18
  -3   6  -3   56.15    3.27
  -3   6  -3   64.62    3.80
  -3   6  -3   63.74    3.55
   3  -6   3   61.99    3.36
   3  -6   3   60.78    3.81
   3  -6   3   58.93    3.87
   3  -6   3   55.63    3.47
  -4   6  -3    9.49    0.90
  -4   6  -3   11.50    1.54
  -4   6  -3   12.29    1.25
  -4   6  -3   15.78    2.29
   4  -6   3   10.29    1.08
   4  -6   3   13.71    1.55
   4  -6   3   13.46    1.55
   4  -6   3   10.92    1.17
  -5   6  -3   16.83    1.37
  -5   6  -3   14.44    2.30
   5  -6   3   16.60    1.77
   5  -6   3   12.89    1.29
   5  -6   3   15.22    1.71
  -6   6  -3    0.22    1.05
  -6   6  -3    0.16    0.57
  -6   6  -3    0.99    1.54
   6  -6   3    1.68    0.56
   6  -6   3   -0.19    1.03
   6  -6   3   -0.38    0.90
   6  -6   3   -0.10    0.54
   6  -6   3   -0.61    0.62
  -7   6  -3    3.51    1.20
  -7   6  -3    4.28    1.78
   7  -6   3    3.72    1.24
   7  -6   3    4.72    1.39
   7  -6   3    3.96    0.95
  -8   6  -3    4.56    1.28
   8  -6   3    5.65    1.44
   8  -6   3    0.23    1.15
   8  -6   3    2.06    1.20
   8   5  -3    4.73    1.49
   8   5  -3    4.65    1.46
   8   5  -3    4.66    1.41
  -8  -5   3    6.93    1.58
   7   5  -3   15.46    1.84
   7   5  -3   13.42    1.74
   7   5  -3    8.45    1.87
  -7  -5   3   14.40    1.95
   6   5  -3    2.87    0.64
   6   5  -3    1.02    1.06
   6   5  -3    0.53    1.17
   6   5  -3    1.66    1.11
  -6  -5   3    1.56    0.32
  -6  -5   3    1.57    1.10
   5   5  -3   20.38    1.91
   5   5  -3   22.90    1.63
   5   5  -3   24.22    2.03
  -5  -5   3   25.02    2.06
  -5  -5   3   20.31    2.25
   4   5  -3    0.77    0.64
   4   5  -3    0.07    0.69
   4   5  -3   -0.22    0.83
   4   5  -3    1.20    0.97
  -4  -5   3    0.52    0.58
  -4  -5   3   -0.16    0.76
  -4  -5   3    0.14    0.88
  -4  -5   3   -0.28    0.91
   3   5  -3    0.10    0.64
   3   5  -3    1.32    1.20
   3   5  -3    0.62    0.67
   3   5  -3    0.39    0.80
   3   5  -3    0.42    0.63
  -3  -5   3   -0.35    0.78
  -3  -5   3    0.99    0.64
  -3  -5   3    0.62    0.80
  -3  -5   3    1.13    0.66
  -3  -5   3    0.99    0.71
   2   5  -3    0.05    0.62
   2   5  -3   -0.57    0.68
   2   5  -3   -0.48    0.57
   2   5  -3    0.62    0.71
   2   5  -3   -0.59    0.51
   2   5  -3    0.36    0.66
  -2  -5   3    0.38    0.69
  -2  -5   3   -0.39    0.46
  -2  -5   3    0.13    0.54
  -2  -5   3   -0.74    0.99
  -2  -5   3    0.08    0.53
  -2  -5   3   -1.00    0.65
  -2  -5   3    0.30    0.50
  -2  -5   3   -0.23    0.45
   1   5  -3   10.50    1.10
   1   5  -3   10.49    1.02
   1   5  -3   10.51    1.19
   1   5  -3   11.14    1.05
   1   5  -3   11.22    1.26
  -1  -5   3   10.78    1.23
  -1  -5   3   11.40    1.00
  -1  -5   3   10.92    1.10
  -1  -5   3   12.38    1.25
  -1  -5   3   10.86    0.92
  -1  -5   3   13.35    1.32
  -1  -5   3   12.52    1.06
  -1  -5   3   11.93    1.24
   0   5  -3    6.80    0.89
   0   5  -3    6.61    1.03
   0   5  -3    6.46    0.97
   0   5  -3    7.05    0.82
   0   5  -3    6.61    0.82
   0   5  -3    7.01    0.70
   0  -5   3    7.44    0.78
   0  -5   3    7.78    0.66
   0  -5   3    9.23    1.13
   0  -5   3    6.60    0.99
   0  -5   3    6.92    1.18
   0  -5   3    7.50    0.95
   0  -5   3    6.88    0.86
  -1   5  -3   20.73    1.51
  -1   5  -3   21.02    1.51
  -1   5  -3   19.21    1.30
  -1   5  -3   19.84    2.01
  -1   5  -3   18.80    1.59
  -1   5  -3   18.54    1.53
  -1   5  -3   20.05    1.21
   1  -5   3   19.37    1.40
   1  -5   3   21.24    1.65
   1  -5   3   21.49    1.61
   1  -5   3   19.12    1.83
   1  -5   3   19.23    1.31
  -2   5  -3    5.55    1.04
  -2   5  -3    5.04    0.88
  -2   5  -3    5.46    0.63
  -2   5  -3    6.68    1.07
  -2   5  -3    7.37    1.33
  -2   5  -3    6.53    1.12
   2  -5   3    5.79    0.86
   2  -5   3    6.27    1.04
   2  -5   3    5.65    0.74
   2  -5   3    6.25    0.71
   2  -5   3    7.71    1.60
   2  -5   3    6.67    1.05
  -3   5  -3   30.24    2.59
  -3   5  -3   31.44    2.18
  -3   5  -3   26.77    2.03
  -3   5  -3   31.56    2.01
  -3   5  -3   26.70    1.77
   3  -5   3   31.51    2.49
   3  -5   3   28.87    1.84
   3  -5   3   29.62    1.91
   3  -5   3   33.01    2.20
   3  -5   3   29.35    2.10
   3  -5   3   29.15    2.15
   3  -5   3   30.46    2.08
  -4   5  -3  172.74    9.43
  -4   5  -3  165.08    9.14
  -4   5  -3  184.87   10.20
   4  -5   3  178.05    9.54
   4  -5   3  170.10    9.21
   4  -5   3  195.77    9.72
   4  -5   3  170.36    9.22
  -5   5  -3   13.21    2.40
  -5   5  -3   14.78    1.38
  -5   5  -3   14.69    1.70
   5  -5   3   13.34    1.57
   5  -5   3   12.40    1.32
   5  -5   3   12.92    1.15
   5  -5   3   18.60    1.69
  -6   5  -3    0.39    0.53
  -6   5  -3   -1.17    1.33
  -6   5  -3    1.41    1.04
   6  -5   3    0.23    0.31
   6  -5   3    0.44    0.52
   6  -5   3    0.54    1.69
   6  -5   3   -0.34    0.46
   6  -5   3    1.40    1.02
   6  -5   3    0.42    0.51
   6  -5   3    0.16    0.67
  -7   5  -3   -0.12    0.96
  -7   5  -3   -0.01    1.40
   7  -5   3    1.05    1.03
   7  -5   3    0.12    0.89
   7  -5   3    1.01    0.50
   7  -5   3   -0.39    0.73
   7  -5   3   -0.10    0.45
  -8   5  -3    2.33    1.14
  -8   5  -3    3.72    1.95
   8  -5   3    2.84    1.23
   8  -5   3    3.35    1.24
   8  -5   3    2.13    0.98
   8  -5   3    2.93    0.67
   8   4  -3   -0.63    1.09
   8   4  -3    1.01    1.14
   8   4  -3   -0.65    1.42
  -8  -4   3    1.46    1.25
   7   4  -3    1.09    0.48
   7   4  -3   -1.23    1.33
   7   4  -3    0.85    1.06
   7   4  -3   -0.24    1.03
  -7  -4   3    0.57    0.99
   6   4  -3   -0.11    0.70
   6   4  -3    0.34    0.95
   6   4  -3    1.68    0.60
  -6  -4   3    0.12    1.02
  -6  -4   3    0.27    1.10
   5   4  -3    0.30    0.87
   5   4  -3    0.10    0.83
   5   4  -3    0.26    0.58
   5   4  -3   -1.77    0.77
  -5  -4   3    1.55    0.48
  -5  -4   3   -0.72    0.77
   4   4  -3    0.46    0.61
   4   4  -3    0.61    0.68
   4   4  -3   -0.67    0.59
   4   4  -3   -0.54    0.74
   4   4  -3    0.33    0.78
   4   4  -3    0.48    0.71
  -4  -4   3    1.04    0.76
  -4  -4   3   -0.09    0.51
   3   4  -3  152.52    8.18
   3   4  -3  145.82    8.24
   3   4  -3  154.19    8.13
   3   4  -3  152.93    8.13
   3   4  -3  159.66    8.18
   3   4  -3  151.87    8.02
  -3  -4   3  134.64    8.03
  -3  -4   3  150.66    8.27
  -3  -4   3  159.95    8.20
  -3  -4   3  167.05    8.05
  -3  -4   3  141.22    8.09
  -3  -4   3  166.33    8.19
   2   4  -3    3.35    0.69
   2   4  -3    2.89    0.69
   2   4  -3    2.62    0.63
   2   4  -3    2.32    0.77
   2   4  -3    3.25    0.71
   2   4  -3    2.99    0.67
  -2  -4   3    3.14    0.51
  -2  -4   3    3.91    0.73
  -2  -4   3    4.00    0.63
  -2  -4   3    3.31    0.67
  -2  -4   3    3.70    0.75
  -2  -4   3    2.81    0.78
  -2  -4   3    3.29    0.68
   1   4  -3    7.32    0.83
   1   4  -3    6.82    0.92
   1   4  -3    8.69    0.82
   1   4  -3    6.76    0.75
   1   4  -3    7.35    0.86
   1   4  -3    9.41    1.03
  -1  -4   3    5.62    0.95
  -1  -4   3    7.20    0.87
  -1  -4   3    6.36    0.83
  -1  -4   3   10.05    0.98
  -1  -4   3    7.52    0.69
  -1  -4   3    7.19    1.03
  -1  -4   3    7.63    1.00
  -1  -4   3    7.21    0.73
   0   4  -3    0.95    0.62
   0   4  -3    0.67    0.36
   0   4  -3    1.18    0.59
   0   4  -3    2.08    0.51
   0   4  -3    0.40    0.69
   0   4  -3    0.34    0.47
   0   4  -3    0.83    0.66
   0  -4   3    0.47    0.56
   0  -4   3    1.77    0.56
   0  -4   3    0.64    0.63
   0  -4   3    0.04    0.60
   0  -4   3    0.31    0.40
   0  -4   3    0.93    0.46
  -1   4  -3    1.32    0.58
  -1   4  -3    0.91    0.87
  -1   4  -3    1.28    0.54
  -1   4  -3    1.83    0.39
  -1   4  -3    1.76    0.26
  -1   4  -3    1.94    0.63
  -1   4  -3    1.03    0.70
  -1   4  -3    1.28    0.52
   1  -4   3    1.80    0.58
   1  -4   3    1.65    0.62
   1  -4   3    2.00    0.49
   1  -4   3    1.75    0.44
   1  -4   3    0.51    0.67
   1  -4   3    1.54    0.60
  -2   4  -3   11.73    1.15
  -2   4  -3   13.30    0.95
  -2   4  -3   11.39    0.88
  -2   4  -3    9.53    1.76
  -2   4  -3   11.16    1.05
  -2   4  -3   11.23    1.02
   2  -4   3   10.76    1.59
   2  -4   3   11.54    1.36
   2  -4   3   10.08    1.10
   2  -4   3   11.24    0.93
   2  -4   3   10.99    0.89
  -3   4  -3   16.01    1.28
  -3   4  -3   15.15    1.08
  -3   4  -3   14.94    1.09
  -3   4  -3   13.31    1.86
  -3   4  -3   13.07    1.31
   3  -4   3   13.17    1.37
   3  -4   3   14.82    1.04
   3  -4   3   13.99    1.83
   3  -4   3   17.77    1.37
   3  -4   3   13.57    1.33
   3  -4   3   13.84    1.14
  -4   4  -3   27.73    1.99
  -4   4  -3   25.55    1.75
  -4   4  -3   27.56    2.55
  -4   4  -3   24.74    1.88
  -4   4  -3   28.08    1.71
   4  -4   3   31.22    2.08
   4  -4   3   26.44    2.00
   4  -4   3   25.69    2.34
   4  -4   3   28.09    1.70
   4  -4   3   27.77    1.97
   4  -4   3   27.58    1.84
   4  -4   3   27.54    1.46
   4  -4   3   30.09    2.07
  -5   4  -3   25.72    2.74
  -5   4  -3   19.81    1.73
  -5   4  -3   25.09    1.61
  -5   4  -3   26.64    2.04
   5  -4   3   24.41    1.83
   5  -4   3   25.53    2.88
   5  -4   3   25.45    1.50
   5  -4   3   25.84    2.01
   5  -4   3   25.05    1.62
   5  -4   3   27.16    1.50
  -6   4  -3    8.27    1.20
  -6   4  -3    8.10    1.91
   6  -4   3    6.67    0.77
   6  -4   3    7.42    0.78
   6  -4   3    6.83    1.27
   6  -4   3    6.12    1.18
   6  -4   3    5.69    1.22
   6  -4   3    8.37    1.16
   6  -4   3    5.72    0.77
  -7   4  -3    3.16    1.07
  -7   4  -3    1.77    1.55
   7  -4   3    1.62    0.91
   7  -4   3    2.83    0.60
   7  -4   3    3.56    1.16
   7  -4   3    2.00    0.71
   7  -4   3    1.28    0.52
   7  -4   3    2.82    1.07
   7  -4   3    4.60    0.74
  -8   4  -3   -0.64    0.83
  -8   4  -3   -1.05    1.58
   8  -4   3    1.15    1.06
   8  -4   3    0.40    1.01
   8  -4   3   -0.24    0.61
   8  -4   3    1.81    0.91
  -9   4  -3    1.39    0.89
   9  -4   3    0.99    0.95
   9  -4   3    0.31    0.75
   9  -4   3   -0.64    1.08
   9  -4   3    1.61    1.16
   9   3  -3    0.36    1.52
   9   3  -3    0.66    1.10
   9   3  -3   -0.50    1.32
  -9  -3   3    3.09    1.31
   8   3  -3    2.93    0.56
   8   3  -3    3.08    1.26
   8   3  -3    1.74    1.50
   8   3  -3    0.46    1.00
  -8  -3   3    4.36    2.22
   7   3  -3    1.61    0.99
   7   3  -3    2.85    0.56
   7   3  -3   -0.91    1.25
   7   3  -3    2.25    1.18
   7   3  -3    2.22    0.63
  -7  -3   3    3.84    1.10
   6   3  -3    5.36    1.18
   6   3  -3    3.82    0.96
   6   3  -3    5.04    1.10
   6   3  -3    4.98    0.76
  -6  -3   3    3.82    1.08
  -6  -3   3    6.10    1.24
   5   3  -3    8.21    1.21
   5   3  -3    8.84    1.20
   5   3  -3   11.19    2.10
   5   3  -3   10.49    1.00
  -5  -3   3    9.62    1.24
  -5  -3   3    8.78    1.45
  -5  -3   3    9.13    0.86
  -5  -3   3   10.49    1.20
   4   3  -3    3.31    0.66
   4   3  -3    2.64    0.69
   4   3  -3    3.69    0.83
   4   3  -3    3.80    0.80
   4   3  -3    2.30    0.76
   4   3  -3    4.28    0.85
   4   3  -3    3.76    0.73
  -4  -3   3    3.42    0.82
  -4  -3   3    3.85    0.82
  -4  -3   3    4.16    0.62
  -4  -3   3    2.75    0.71
   3   3  -3   34.02    2.12
   3   3  -3   34.94    2.25
   3   3  -3   34.59    2.24
   3   3  -3   34.00    2.26
   3   3  -3   32.16    2.14
   3   3  -3   37.16    2.11
  -3  -3   3   36.87    2.19
  -3  -3   3   33.97    2.29
  -3  -3   3   33.22    2.06
  -3  -3   3   37.85    2.37
  -3  -3   3   36.09    2.12
   2   3  -3   35.17    2.13
   2   3  -3   40.25    2.11
   2   3  -3   36.77    2.10
   2   3  -3   34.19    2.17
   2   3  -3   38.23    2.19
   2   3  -3   34.79    2.23
   2   3  -3   33.51    2.10
  -2  -3   3   35.67    2.15
  -2  -3   3   34.60    2.17
  -2  -3   3   34.21    2.08
  -2  -3   3   29.98    2.08
  -2  -3   3   36.50    2.26
   1   3  -3   49.18    2.75
   1   3  -3   48.11    2.70
   1   3  -3   47.66    2.66
   1   3  -3   41.11    2.54
   1   3  -3   50.33    2.68
   1   3  -3   48.31    2.67
   1   3  -3   41.94    2.64
   1   3  -3   49.03    2.67
  -1  -3   3   49.91    2.77
  -1  -3   3   41.37    2.62
  -1  -3   3   46.99    2.65
  -1  -3   3   49.66    2.68
  -1  -3   3   47.85    2.66
  -1  -3   3   42.89    2.59
   0   3  -3  292.89   14.84
   0   3  -3  289.67   14.67
   0   3  -3  292.82   14.87
   0   3  -3  293.01   14.66
   0   3  -3  282.11   14.90
   0   3  -3  286.53   14.75
   0   3  -3  297.09   14.78
   0   3  -3  266.20   14.77
   0  -3   3  293.74   14.91
   0  -3   3  303.14   14.83
   0  -3   3  274.56   14.81
   0  -3   3  279.31   14.76
   0  -3   3  298.92   14.77
   0  -3   3  296.92   14.87
  -1   3  -3   66.38    3.72
  -1   3  -3   70.17    3.60
  -1   3  -3   67.73    3.72
  -1   3  -3   65.57    3.93
  -1   3  -3   66.33    3.60
  -1   3  -3   60.18    3.63
   1  -3   3   68.37    3.91
   1  -3   3   68.97    3.82
   1  -3   3   70.11    3.76
   1  -3   3   68.56    3.60
   1  -3   3   64.21    3.68
   1  -3   3   67.52    3.70
  -2   3  -3    3.61    0.52
  -2   3  -3    1.86    0.69
  -2   3  -3    2.37    1.02
  -2   3  -3    4.11    0.61
  -2   3  -3    1.84    0.45
   2  -3   3    2.45    0.84
   2  -3   3    2.99    0.53
   2  -3   3    2.40    0.46
   2  -3   3    2.77    0.68
   2  -3   3    3.21    0.68
   2  -3   3    3.14    0.70
   2  -3   3    3.12    0.58
  -3   3  -3    3.32    0.77
  -3   3  -3    3.19    1.16
  -3   3  -3    2.71    0.55
  -3   3  -3    3.66    0.49
  -3   3  -3    3.44    0.66
   3  -3   3    3.77    0.34
   3  -3   3    4.17    0.77
   3  -3   3    3.98    0.99
   3  -3   3    1.90    0.79
   3  -3   3    3.68    0.49
   3  -3   3    4.12    1.18
   3  -3   3    4.87    0.81
   3  -3   3    3.05    0.61
  -4   3  -3   30.70    1.86
  -4   3  -3   27.79    1.93
  -4   3  -3   29.14    1.67
  -4   3  -3   29.09    2.48
   4  -3   3   28.28    1.63
   4  -3   3   27.01    1.89
   4  -3   3   27.55    2.32
   4  -3   3   32.27    2.03
   4  -3   3   27.37    2.02
   4  -3   3   26.47    1.90
   4  -3   3   30.71    2.05
   4  -3   3   29.13    1.65
  -5   3  -3   26.81    1.92
  -5   3  -3   28.77    2.61
  -5   3  -3   22.00    2.24
   5  -3   3   28.94    2.08
   5  -3   3   24.32    1.61
   5  -3   3   28.15    1.67
   5  -3   3   27.90    1.68
   5  -3   3   29.82    1.96
  -6   3  -3    5.84    1.02
  -6   3  -3    4.78    1.72
   6  -3   3    5.45    1.09
   6  -3   3    3.57    0.98
   6  -3   3    4.96    0.63
   6  -3   3    4.18    0.65
   6  -3   3    3.29    1.02
   6  -3   3    5.24    0.78
   6  -3   3    5.49    0.99
   6  -3   3    6.62    0.84
  -7   3  -3    1.05    0.84
  -7   3  -3   -0.44    1.93
   7  -3   3    0.02    0.43
   7  -3   3    1.41    0.99
   7  -3   3    1.78    0.84
   7  -3   3    1.12    0.95
   7  -3   3    0.75    0.66
   7  -3   3    1.40    0.50
  -8   3  -3    1.99    1.58
  -8   3  -3    1.01    0.82
   8  -3   3    1.50    1.05
   8  -3   3    2.01    0.52
   8  -3   3    2.03    0.96
   8  -3   3    2.38    1.07
   8  -3   3    1.39    0.54
   8  -3   3    3.94    1.27
  -9   3  -3    2.49    1.71
   9  -3   3    3.14    1.15
   9  -3   3    0.18    1.27
   9  -3   3    1.42    1.75
   9  -3   3   -0.65    1.00
   9  -3   3    0.38    0.84
   9   2  -3    0.10    0.96
   9   2  -3   -0.34    1.12
   9   2  -3   -0.88    0.98
  -9  -2   3   -0.04    1.12
   8   2  -3   -0.45    1.26
   8   2  -3    0.52    0.63
   8   2  -3    1.22    1.10
   8   2  -3    1.54    0.53
   8   2  -3    0.32    0.89
  -8  -2   3   -0.11    1.03
   7   2  -3   -0.93    0.59
   7   2  -3    0.99    0.51
   7   2  -3    0.33    0.98
   7   2  -3   -0.24    1.00
   7   2  -3    0.45    0.83
  -7  -2   3   -0.29    0.91
   6   2  -3   23.72    1.90
   6   2  -3   18.11    1.45
   6   2  -3   23.63    1.48
   6   2  -3   22.35    1.55
   6   2  -3   20.57    1.73
  -6  -2   3   23.51    1.87
  -6  -2   3   22.15    1.96
   5   2  -3   22.69    1.75
   5   2  -3   21.80    1.62
   5   2  -3   20.05    1.64
   5   2  -3   22.45    1.67
   5   2  -3   18.73    1.33
   5   2  -3   21.19    1.65
   5   2  -3   22.27    1.79
   5   2  -3   24.04    1.53
  -5  -2   3   20.97    1.42
  -5  -2   3   23.68    1.56
  -5  -2   3   25.46    1.91
  -5  -2   3   24.27    1.73
   4   2  -3   99.00    5.17
   4   2  -3   99.09    5.01
   4   2  -3   95.09    5.22
   4   2  -3   79.03    5.06
   4   2  -3   98.04    5.13
   4   2  -3   88.98    5.05
   4   2  -3   91.08    5.20
  -4  -2   3   98.89    5.24
  -4  -2   3  106.91    5.11
  -4  -2   3   92.47    5.08
  -4  -2   3   85.75    4.95
   3   2  -3   71.07    3.81
   3   2  -3   71.10    4.10
   3   2  -3   77.60    3.89
   3   2  -3   72.81    3.97
   3   2  -3   66.56    3.88
   3   2  -3   73.55    3.98
  -3  -2   3   73.45    3.97
  -3  -2   3   71.59    3.98
  -3  -2   3   69.11    3.87
  -3  -2   3   68.63    3.83
  -3  -2   3   62.10    3.81
   2   2  -3   98.62    5.47
   2   2  -3   99.34    5.35
   2   2  -3   99.68    5.46
   2   2  -3   96.11    5.40
   2   2  -3  108.06    5.40
   2   2  -3  100.93    5.39
   2   2  -3  115.53    5.44
  -2  -2   3  105.03    5.41
  -2  -2   3  101.94    5.49
  -2  -2   3  100.59    5.47
  -2  -2   3  110.61    5.49
  -2  -2   3   94.84    5.35
   1   2  -3   28.43    1.66
   1   2  -3   29.40    1.77
   1   2  -3   28.66    1.70
   1   2  -3   27.88    1.63
   1   2  -3   27.06    1.61
   1   2  -3   30.68    1.61
   1   2  -3   28.00    1.71
   1   2  -3   29.55    1.65
  -1  -2   3   28.31    1.74
  -1  -2   3   29.57    1.70
  -1  -2   3   27.66    1.66
  -1  -2   3   26.73    1.62
  -1  -2   3   27.37    1.76
  -1  -2   3   27.98    1.71
   0   2  -3   13.09    1.12
   0   2  -3   14.61    0.92
   0   2  -3   13.28    0.82
   0   2  -3   13.70    1.14
   0   2  -3   14.20    0.96
   0   2  -3   13.77    1.04
   0  -2   3   14.47    0.99
   0  -2   3   13.71    1.08
   0  -2   3   12.49    0.90
   0  -2   3   14.22    0.96
   0  -2   3   12.11    0.87
   0  -2   3   13.82    1.11
  -1   2  -3    3.55    0.44
  -1   2  -3    2.93    0.24
  -1   2  -3    4.07    0.65
  -1   2  -3    3.05    0.72
  -1   2  -3    3.46    0.56
  -1   2  -3    4.01    0.57
   1  -2   3    3.72    0.62
   1  -2   3    3.67    0.26
   1  -2   3    3.32    0.54
   1  -2   3    4.26    0.58
   1  -2   3    4.84    0.88
   1  -2   3    4.43    0.61
   1  -2   3    3.47    0.41
   1  -2   3    3.47    0.84
  -2   2  -3   97.92    5.36
  -2   2  -3   92.30    5.09
  -2   2  -3   84.72    4.85
  -2   2  -3   96.13    4.91
  -2   2  -3   90.04    5.02
  -2   2  -3  103.02    5.10
   2  -2   3   87.31    5.06
   2  -2   3   96.76    5.13
   2  -2   3   97.41    5.33
   2  -2   3   96.47    5.13
   2  -2   3  102.20    4.95
   2  -2   3   95.82    5.05
   2  -2   3   97.62    5.07
   2  -2   3   97.16    4.90
  -3   2  -3  258.91   14.77
  -3   2  -3  302.48   15.20
  -3   2  -3  294.92   14.65
  -3   2  -3  298.33   14.84
  -3   2  -3  262.65   14.65
  -3   2  -3  268.30   14.84
  -3   2  -3  306.84   14.97
   3  -2   3  277.63   14.90
   3  -2   3  298.08   14.83
   3  -2   3  300.52   14.85
   3  -2   3  290.85   14.87
   3  -2   3  295.47   15.17
   3  -2   3  294.73   14.65
   3  -2   3  295.08   14.94
  -4   2  -3    2.27    1.12
  -4   2  -3    2.40    0.85
  -4   2  -3    3.46    0.72
  -4   2  -3    4.82    0.81
   4  -2   3    4.37    0.44
   4  -2   3    4.21    0.80
   4  -2   3    2.35    0.63
   4  -2   3    3.43    0.86
   4  -2   3    3.87    0.73
   4  -2   3    2.89    0.52
   4  -2   3    2.92    0.43
   4  -2   3    3.51    1.05
  -5   2  -3   34.78    2.49
  -5   2  -3   36.99    2.22
  -5   2  -3   33.44    2.94
  -5   2  -3   37.42    2.28
   5  -2   3   34.84    1.93
   5  -2   3   34.11    2.38
   5  -2   3   35.38    2.37
   5  -2   3   34.50    2.09
   5  -2   3   32.67    1.95
   5  -2   3   34.24    2.09
   5  -2   3   32.70    2.71
   5  -2   3   32.50    2.16
   5  -2   3   33.52    2.35
  -6   2  -3   15.58    1.37
  -6   2  -3   17.17    2.87
  -6   2  -3   15.79    1.77
   6  -2   3   13.81    1.31
   6  -2   3   18.22    1.31
   6  -2   3   15.53    1.10
   6  -2   3   13.83    1.56
   6  -2   3   15.57    1.32
   6  -2   3   20.33    2.47
   6  -2   3   15.26    1.07
  -7   2  -3    0.17    0.67
  -7   2  -3    0.03    1.10
  -7   2  -3    0.93    1.42
   7  -2   3   -0.08    0.70
   7  -2   3   -0.17    0.45
   7  -2   3    0.26    0.45
   7  -2   3    1.42    0.66
   7  -2   3    0.61    0.64
   7  -2   3    1.23    0.98
   7  -2   3   -0.05    0.86
  -8   2  -3   -0.51    1.45
  -8   2  -3   -0.48    1.20
   8  -2   3    0.82    0.80
   8  -2   3   -0.45    1.02
   8  -2   3    0.34    0.42
   8  -2   3    1.26    0.68
   8  -2   3   -1.20    0.89
   8  -2   3   -0.34    0.49
   8  -2   3    1.75    0.80
  -9   2  -3    1.78    1.61
   9  -2   3    0.37    1.66
   9  -2   3    0.73    1.17
   9  -2   3   -0.20    0.85
   9  -2   3    2.54    1.67
   9   1  -3   -0.31    1.03
   9   1  -3    1.41    1.08
   9   1  -3   -1.14    0.72
   9   1  -3   -0.17    0.77
   9   1  -3    0.66    1.29
  -9  -1   3    0.51    1.17
   8   1  -3    0.96    0.76
   8   1  -3    0.45    0.79
   8   1  -3    1.51    1.07
   8   1  -3    0.35    0.76
   8   1  -3   -0.15    1.32
   8   1  -3    1.36    0.59
   8   1  -3    2.80    0.74
  -8  -1   3    0.80    1.06
   7   1  -3   13.42    1.38
   7   1  -3   12.11    1.43
   7   1  -3   14.10    1.17
   7   1  -3    9.00    1.54
   7   1  -3   13.04    1.32
   7   1  -3   14.03    1.37
   7   1  -3   15.38    1.40
   7   1  -3   12.52    1.21
  -7  -1   3   11.86    1.56
   6   1  -3    0.24    0.61
   6   1  -3   -0.88    0.53
   6   1  -3    1.09    0.56
   6   1  -3   -0.33    0.67
   6   1  -3    0.53    0.59
   6   1  -3   -0.23    0.64
   6   1  -3   -0.42    1.20
   6   1  -3    0.90    0.63
  -6  -1   3   -1.04    0.71
   5   1  -3    5.11    0.69
   5   1  -3    5.24    1.04
   5   1  -3    5.64    0.79
   5   1  -3    5.01    0.90
   5   1  -3    5.29    0.92
   5   1  -3    4.05    0.81
   5   1  -3    6.49    0.82
   5   1  -3    5.45    0.86
   5   1  -3    6.67    0.88
   5   1  -3    3.23    0.99
  -5  -1   3    6.62    0.79
  -5  -1   3    5.66    1.00
  -5  -1   3    5.72    0.89
   4   1  -3  124.90    6.22
   4   1  -3  119.63    6.33
   4   1  -3  115.20    6.17
   4   1  -3  117.24    6.46
   4   1  -3  121.23    6.28
   4   1  -3  124.91    6.40
   4   1  -3  100.52    6.12
   4   1  -3  118.56    6.23
   4   1  -3  121.73    6.36
  -4  -1   3  114.87    6.16
  -4  -1   3  117.78    6.55
  -4  -1   3  122.39    6.26
   3   1  -3    9.74    0.87
   3   1  -3    8.29    0.86
   3   1  -3    9.54    0.76
   3   1  -3   10.63    0.86
   3   1  -3    9.57    0.74
   3   1  -3    8.25    0.87
   3   1  -3    7.95    0.94
   3   1  -3    9.46    0.88
  -3  -1   3    9.76    0.74
  -3  -1   3    8.65    0.96
  -3  -1   3    8.44    0.77
   2   1  -3  122.50    6.57
   2   1  -3  128.68    6.58
   2   1  -3  124.43    6.48
   2   1  -3  128.44    6.61
   2   1  -3  126.93    6.66
   2   1  -3  122.54    6.69
  -2  -1   3  126.66    6.61
  -2  -1   3  127.25    6.49
  -2  -1   3  128.34    6.60
  -2  -1   3  118.82    6.47
  -2  -1   3  124.83    6.63
  -2  -1   3  129.09    6.57
  -2  -1   3  138.54    6.58
   1   1  -3   14.92    0.99
   1   1  -3   14.74    0.95
   1   1  -3   13.24    0.93
   1   1  -3   14.09    1.03
   1   1  -3   12.47    0.78
   1   1  -3   13.30    0.92
   1   1  -3   14.04    0.99
  -1  -1   3   15.97    1.25
  -1  -1   3   11.94    0.88
  -1  -1   3   14.43    1.01
  -1  -1   3   13.66    0.97
  -1  -1   3   13.95    1.01
  -1  -1   3   13.94    0.80
   0   1  -3   44.35    2.38
   0   1  -3   42.35    2.36
   0   1  -3   42.61    2.28
   0   1  -3   44.33    2.29
   0   1  -3   45.94    2.46
   0   1  -3   42.31    2.51
   0  -1   3   44.03    2.47
   0  -1   3   44.71    2.38
   0  -1   3   42.78    2.28
   0  -1   3   39.04    2.29
   0  -1   3   41.10    2.31
   0  -1   3   43.54    2.51
   0  -1   3   44.42    2.30
   0  -1   3   44.76    2.51
  -1   1  -3    1.30    0.38
  -1   1  -3    1.22    0.19
  -1   1  -3    0.64    0.40
  -1   1  -3    1.32    0.40
  -1   1  -3    0.92    0.44
  -1   1  -3    0.73    0.27
  -1   1  -3    0.51    0.62
   1  -1   3    1.36    0.36
   1  -1   3    0.55    0.55
   1  -1   3    1.48    0.42
   1  -1   3    1.46    0.18
   1  -1   3    1.40    0.28
   1  -1   3    0.84    0.39
   1  -1   3    0.78    0.40
  -2   1  -3  362.79   18.63
  -2   1  -3  352.16   18.46
  -2   1  -3  375.61   18.80
  -2   1  -3  372.58   18.58
  -2   1  -3  350.59   18.55
  -2   1  -3  370.80   18.53
   2  -1   3  362.81   18.52
   2  -1   3  373.48   18.63
   2  -1   3  347.42   18.49
   2  -1   3  367.95   18.36
   2  -1   3  365.57   18.58
   2  -1   3  375.21   18.79
   2  -1   3  360.94   18.60
  -3   1  -3   95.57    5.41
  -3   1  -3   88.91    5.09
  -3   1  -3   92.24    5.17
  -3   1  -3   96.80    5.23
  -3   1  -3   95.12    5.04
   3  -1   3   95.67    5.02
   3  -1   3   92.87    5.21
   3  -1   3   95.45    4.88
   3  -1   3   96.74    4.89
   3  -1   3  103.42    5.19
   3  -1   3   96.62    5.41
   3  -1   3   96.94    5.15
  -4   1  -3   10.36    2.17
  -4   1  -3   10.90    0.80
  -4   1  -3    8.08    0.83
  -4   1  -3    7.68    1.10
  -4   1  -3   10.13    1.10
   4  -1   3    9.34    0.68
   4  -1   3    7.47    0.79
   4  -1   3    8.64    1.09
   4  -1   3    8.82    0.65
   4  -1   3   10.65    1.03
   4  -1   3    9.62    0.85
   4  -1   3    7.69    1.32
   4  -1   3    8.53    1.06
  -5   1  -3   15.25    2.05
  -5   1  -3   16.42    1.63
  -5   1  -3   18.50    1.25
  -5   1  -3   15.71    1.23
   5  -1   3   19.03    1.52
   5  -1   3   16.63    1.08
   5  -1   3   17.26    1.47
   5  -1   3   15.69    1.24
   5  -1   3   16.70    1.55
   5  -1   3   15.63    2.02
   5  -1   3   17.73    1.57
   5  -1   3   18.08    1.11
   5  -1   3   19.77    1.58
  -6   1  -3    2.11    0.65
  -6   1  -3    1.36    1.26
  -6   1  -3    1.82    1.09
   6  -1   3    1.37    0.47
   6  -1   3    2.03    0.69
   6  -1   3    2.37    0.78
   6  -1   3    1.94    0.94
   6  -1   3    1.87    0.73
   6  -1   3    1.02    0.57
   6  -1   3    1.92    0.47
  -7   1  -3   43.96    3.31
  -7   1  -3   50.83    3.72
   7  -1   3   50.81    3.18
   7  -1   3   44.69    4.21
   7  -1   3   42.67    2.58
   7  -1   3   40.56    2.66
   7  -1   3   42.51    2.58
   7  -1   3   43.40    2.95
   7  -1   3   51.47    2.71
  -8   1  -3    1.26    1.19
  -8   1  -3    0.34    2.19
   8  -1   3    1.97    0.49
   8  -1   3    0.83    1.02
   8  -1   3    0.93    0.64
   8  -1   3    1.26    0.57
   8  -1   3    1.43    1.16
   8  -1   3    2.10    1.04
  -9   1  -3    3.03    1.57
  -9   1  -3   -0.49    1.40
   9  -1   3   -0.19    0.95
   9  -1   3    1.42    1.45
   9  -1   3    1.12    1.30
   9   0  -3    3.53    1.30
   9   0  -3    2.53    0.95
   9   0  -3    4.80    1.17
   9   0  -3    2.38    1.19
   9   0  -3    2.88    1.15
   9   0  -3    2.25    0.88
  -9   0   3    1.91    1.18
   8   0  -3    1.95    1.11
   8   0  -3    2.17    0.66
   8   0  -3    0.00    1.00
   8   0  -3    0.13    0.77
   8   0  -3    0.63    1.03
   8   0  -3   -0.26    0.71
  -8   0   3    0.04    1.12
   7   0  -3    4.09    0.85
   7   0  -3    3.62    0.86
   7   0  -3    7.05    1.34
   7   0  -3    7.12    1.34
   7   0  -3    4.43    1.01
   7   0  -3    4.67    0.85
   7   0  -3    3.75    0.94
   7   0  -3    6.59    1.17
  -7   0   3    3.90    1.07
   6   0  -3    0.30    0.67
   6   0  -3    0.87    0.56
   6   0  -3    0.93    0.64
   6   0  -3    0.53    0.65
   6   0  -3   -0.16    0.57
   6   0  -3    0.78    0.71
   6   0  -3    2.08    0.85
   6   0  -3   -0.49    0.70
   6   0  -3    1.69    0.85
   6   0  -3    0.71    0.80
   6   0  -3    1.17    0.56
  -6   0   3    0.26    0.78
  -6   0   3    0.76    0.80
   5   0  -3    7.72    1.01
   5   0  -3    7.48    0.87
   5   0  -3    5.72    0.86
   5   0  -3    6.36    0.75
   5   0  -3    7.21    1.09
   5   0  -3    7.50    0.88
   5   0  -3    7.01    0.85
   5   0  -3    8.94    0.92
   5   0  -3    8.27    1.13
   5   0  -3    6.90    1.00
  -5   0   3    7.40    1.05
  -5   0   3    6.61    0.95
   4   0  -3   73.35    3.92
   4   0  -3   72.64    3.92
   4   0  -3   75.47    4.00
   4   0  -3   76.89    4.01
   4   0  -3   71.74    3.90
   4   0  -3   63.81    3.89
   4   0  -3   72.56    3.98
   4   0  -3   67.75    3.91
   4   0  -3   65.38    3.91
   4   0  -3   77.93    4.06
  -4   0   3   69.44    3.91
  -4   0   3   76.81    4.05
   3   0  -3  663.28   32.49
   3   0  -3  658.30   32.27
   3   0  -3  639.28   32.27
   3   0  -3  656.95   32.25
   3   0  -3  632.53   32.16
   3   0  -3  595.09   32.19
  -3   0   3  589.30   32.24
  -3   0   3  646.50   32.27
  -3   0   3  641.06   32.25
   2   0  -3   26.09    1.44
   2   0  -3   24.45    1.51
   2   0  -3   23.44    1.43
   2   0  -3   23.88    1.58
   2   0  -3   27.56    1.55
   2   0  -3   23.93    1.48
   2   0  -3   26.95    1.54
   2   0  -3   26.47    1.37
  -2   0   3   21.75    1.51
  -2   0   3   22.70    1.47
  -2   0   3   25.99    1.52
  -2   0   3   26.87    1.55
   1   0  -3   11.33    0.78
   1   0  -3   11.33    0.76
   1   0  -3   14.39    1.12
   1   0  -3   11.92    0.65
   1   0  -3   11.93    0.88
   1   0  -3   12.16    0.84
   1   0  -3   12.99    0.76
  -1   0   3   11.26    1.08
  -1   0   3   11.36    0.90
  -1   0   3   10.61    0.85
  -1   0   3   11.64    1.05
  -1   0   3   12.24    0.78
   0   0  -3  315.04   15.72
   0   0  -3  312.80   15.69
   0   0  -3  262.69   15.64
   0   0  -3  318.64   15.69
   0   0  -3  328.72   15.86
   0   0   3  308.39   15.68
   0   0   3  310.65   15.81
   0   0   3  297.70   15.66
   0   0   3  317.92   15.72
   0   0   3  320.92   15.69
  -2   0  -3  573.01   30.26
  -2   0  -3  555.77   30.35
  -2   0  -3  638.77   30.58
  -2   0  -3  616.73   30.33
   2   0   3  624.72   30.40
   2   0   3  589.17   30.26
   2   0   3  598.07   30.34
   2   0   3  597.09   30.19
  -3   0  -3   -0.09    0.36
  -3   0  -3   -1.16    0.63
  -3   0  -3    0.08    0.41
  -3   0  -3    0.75    0.59
  -3   0  -3    0.30    0.61
   3   0   3   -0.29    0.46
   3   0   3    0.04    0.23
   3   0   3   -0.34    0.70
   3   0   3    0.37    0.48
   3   0   3   -0.12    0.55
   3   0   3    0.46    0.57
  -4   0  -3   -0.08    0.39
  -4   0  -3   -0.15    0.73
  -4   0  -3   -0.09    0.33
  -4   0  -3    0.07    0.53
  -4   0  -3    0.52    0.70
   4   0   3   -0.06    0.68
   4   0   3    0.51    0.29
   4   0   3    0.39    0.53
   4   0   3    0.25    0.29
   4   0   3    0.20    0.65
   4   0   3    0.05    0.47
   4   0   3   -0.08    0.56
   4   0   3   -0.56    0.31
  -5   0  -3   12.91    1.82
  -5   0  -3   11.89    1.41
  -5   0  -3   11.21    0.91
  -5   0  -3   11.73    1.24
   5   0   3    9.79    0.88
   5   0   3   14.41    1.12
   5   0   3   12.16    1.28
   5   0   3   11.66    1.30
   5   0   3   13.02    1.29
   5   0   3   13.93    1.39
   5   0   3   11.61    0.89
   5   0   3   12.46    1.21
   5   0   3   11.72    1.58
  -6   0  -3   10.99    2.10
  -6   0  -3   10.55    1.58
   6   0   3   14.38    1.59
   6   0   3   11.93    1.28
   6   0   3   13.35    0.99
   6   0   3   14.23    0.97
   6   0   3   14.55    1.46
   6   0   3   10.77    0.99
   6   0   3   12.09    1.71
  -7   0  -3   20.84    2.00
  -7   0  -3   15.96    2.56
   7   0   3   18.24    1.68
   7   0   3   15.76    1.26
   7   0   3   16.85    1.85
   7   0   3   14.93    1.13
   7   0   3   14.53    1.67
   7   0   3   16.01    1.22
  -8   0  -3    0.10    1.28
  -8   0  -3    1.45    1.40
   8   0   3    1.32    0.51
   8   0   3    1.03    0.46
   8   0   3    2.07    1.04
   8   0   3   -0.17    0.90
   8   0   3    1.11    0.74
   8   0   3    1.07    1.15
  -9   0  -3    2.57    1.71
   9   0   3    2.27    0.70
   9   0   3    1.72    1.01
   9   0   3    3.74    1.32
   9   0   3    3.42    1.36
  10  -1  -3    0.76    0.87
  10  -1  -3    3.50    1.09
  10  -1  -3   -0.53    1.03
  10  -1  -3    1.49    0.89
  10  -1  -3    1.28    1.10
  10  -1  -3    4.41    2.12
   9  -1  -3    8.15    1.45
   9  -1  -3    4.35    1.08
   9  -1  -3    6.58    1.15
   9  -1  -3    5.13    1.15
   9  -1  -3    9.02    1.35
   8  -1  -3   33.12    2.52
   8  -1  -3   24.49    2.42
   8  -1  -3   29.55    2.80
   8  -1  -3   31.07    2.12
   8  -1  -3   29.62    2.53
   8  -1  -3   26.88    2.14
   8  -1  -3   30.63    2.23
   7  -1  -3   20.28    1.57
   7  -1  -3   17.64    1.51
   7  -1  -3   17.65    1.64
   7  -1  -3   18.24    1.99
   7  -1  -3   19.17    2.08
   7  -1  -3   21.86    1.61
   7  -1  -3   17.86    1.60
   7  -1  -3   16.71    1.75
   7  -1  -3   19.70    1.56
   6  -1  -3   30.72    2.18
   6  -1  -3   27.15    2.18
   6  -1  -3   33.36    2.12
   6  -1  -3   31.83    2.10
   6  -1  -3   30.92    2.15
   6  -1  -3   31.52    2.15
   6  -1  -3   37.03    2.50
   6  -1  -3   34.16    2.55
   6  -1  -3   33.33    2.10
   6  -1  -3   32.00    2.22
   6  -1  -3   34.46    2.30
   5  -1  -3   25.24    2.03
   5  -1  -3   24.74    1.82
   5  -1  -3   23.70    1.73
   5  -1  -3   25.42    1.84
   5  -1  -3   26.09    1.73
   5  -1  -3   28.43    1.81
   5  -1  -3   33.41    1.95
   5  -1  -3   25.56    1.72
   5  -1  -3   24.72    1.71
  -5   1   3   29.59    2.15
   4  -1  -3  429.89   22.69
   4  -1  -3  496.12   22.51
   4  -1  -3  443.55   22.49
   4  -1  -3  429.08   22.56
   4  -1  -3  424.05   22.50
   4  -1  -3  410.01   22.63
   4  -1  -3  459.05   22.52
   4  -1  -3  450.19   22.57
   4  -1  -3  421.95   22.51
   4  -1  -3  425.31   22.52
  -4   1   3  459.10   22.58
  -4   1   3  455.18   22.57
   3  -1  -3   29.01    1.85
   3  -1  -3   34.87    1.83
   3  -1  -3   27.18    1.77
   3  -1  -3   30.57    1.86
   3  -1  -3   35.97    1.91
   3  -1  -3   26.71    2.00
   3  -1  -3   27.48    2.13
   3  -1  -3   34.85    2.02
  -3   1   3   33.66    1.91
  -3   1   3   32.57    1.87
  -3   1   3   31.83    1.87
   2  -1  -3   37.12    1.97
   2  -1  -3   35.53    2.01
   2  -1  -3   34.73    2.06
   2  -1  -3   37.23    2.00
   2  -1  -3   33.43    2.07
   2  -1  -3   31.81    2.13
   2  -1  -3   35.83    1.92
  -2   1   3   35.02    2.06
  -2   1   3   35.43    1.99
  -2   1   3   38.82    2.01
  -2   1   3   33.00    2.11
  -2   1   3   31.89    1.89
   1  -1  -3  119.37    6.14
   1  -1  -3  120.27    6.10
   1  -1  -3  116.12    6.12
   1  -1  -3  119.48    6.10
   1  -1  -3  113.33    6.13
   1  -1  -3  132.42    6.41
  -1   1   3  120.51    6.10
  -1   1   3  127.37    6.16
  -1   1   3  117.32    6.13
  -1   1   3  114.72    6.26
  -1   1   3  119.46    6.10
  -1   1   3  103.04    6.10
   0  -1  -3  286.94   15.19
   0  -1  -3  291.16   15.37
   0  -1  -3  297.30   15.22
   0  -1  -3  298.76   15.27
   0  -1  -3  303.60   15.25
   0  -1  -3  306.19   15.20
   0   1   3  291.09   15.22
   0   1   3  309.40   15.26
   0   1   3  303.74   15.25
   0   1   3  310.15   15.20
   0   1   3  298.28   15.38
  -1  -1  -3   15.30    0.88
  -1  -1  -3   13.27    0.98
  -1  -1  -3   13.78    1.01
  -1  -1  -3   16.75    1.40
  -1  -1  -3   15.31    1.08
  -1  -1  -3   14.66    0.86
   1   1   3   15.61    1.06
   1   1   3   14.99    1.30
   1   1   3   13.08    0.85
   1   1   3   12.88    0.99
   1   1   3   13.83    0.88
   1   1   3   13.63    1.02
  -2  -1  -3   32.26    2.17
  -2  -1  -3   39.30    2.44
  -2  -1  -3   33.36    2.12
  -2  -1  -3   39.03    2.24
  -2  -1  -3   37.76    1.97
  -2  -1  -3   36.24    2.01
   2   1   3   39.95    2.21
   2   1   3   38.76    2.22
   2   1   3   35.59    1.93
   2   1   3   39.10    2.25
   2   1   3   37.90    2.41
   2   1   3   37.07    2.03
  -3  -1  -3  186.13    9.96
  -3  -1  -3  209.14   10.05
  -3  -1  -3  184.51    9.70
  -3  -1  -3  190.06    9.82
  -3  -1  -3  195.35   10.12
  -3  -1  -3  187.97   10.18
   3   1   3  199.74    9.83
   3   1   3  190.59   10.00
   3   1   3  187.35    9.70
   3   1   3  191.37   10.02
   3   1   3  196.00   10.10
   3   1   3  187.54   10.16
  -4  -1  -3  376.18   18.78
  -4  -1  -3  373.74   18.51
  -4  -1  -3  324.71   18.32
  -4  -1  -3  395.06   18.74
   4   1   3  353.51   19.33
   4   1   3  357.24   18.22
   4   1   3  376.55   18.56
   4   1   3  352.81   18.73
   4   1   3  330.59   18.18
   4   1   3  365.26   18.35
   4   1   3  364.02   18.59
  -5  -1  -3    2.93    1.03
  -5  -1  -3    2.05    0.50
  -5  -1  -3    3.40    0.78
  -5  -1  -3    2.18    1.13
   5   1   3    3.02    1.08
   5   1   3    3.46    1.00
   5   1   3    3.58    0.59
   5   1   3    4.60    0.90
  -6  -1  -3   -0.38    0.99
  -6  -1  -3   -0.35    1.12
   6   1   3   -0.14    0.40
   6   1   3    1.13    0.54
   6   1   3    0.09    0.96
   6   1   3    0.22    0.82
  -7  -1  -3    0.51    1.16
  -7  -1  -3   -0.18    0.84
   7   1   3    0.75    0.60
   7   1   3    0.30    0.48
   7   1   3    0.89    1.08
  -8  -1  -3    2.09    1.33
  -8  -1  -3    2.05    1.29
   8   1   3    2.90    1.07
   8   1   3    1.18    1.16
   8   1   3    1.30    0.69
   8   1   3    2.22    1.24
   8   1   3    2.55    0.60
  -9  -1  -3    7.87    2.17
   9   1   3    4.13    1.30
   9   1   3    7.12    1.61
   9   1   3    7.97    1.11
   9   1   3    7.86    1.72
  10  -2  -3    0.68    1.02
  10  -2  -3    0.31    0.92
  10  -2  -3    1.09    0.99
  10  -2  -3    1.54    0.99
  10  -2  -3    1.10    0.96
  10  -2  -3    0.27    1.07
   9  -2  -3    6.04    1.15
   9  -2  -3    5.53    1.16
   9  -2  -3    7.64    1.29
   9  -2  -3    5.72    1.27
   9  -2  -3    8.55    1.77
   9  -2  -3    6.08    1.20
   9  -2  -3    3.79    1.07
   8  -2  -3   10.51    1.43
   8  -2  -3    9.62    1.40
   8  -2  -3   10.95    1.25
   8  -2  -3   12.15    1.52
   8  -2  -3   11.72    2.20
   8  -2  -3   10.14    1.42
   8  -2  -3   11.49    1.27
   7  -2  -3    3.30    1.61
   7  -2  -3    2.85    0.85
   7  -2  -3    4.75    1.03
   7  -2  -3    5.06    1.41
   7  -2  -3    1.76    0.79
   7  -2  -3    2.12    0.91
   7  -2  -3    2.78    0.85
   6  -2  -3   96.95    5.06
   6  -2  -3   86.04    4.94
   6  -2  -3  105.26    5.46
   6  -2  -3   81.31    5.03
   6  -2  -3   83.00    4.98
   6  -2  -3   85.04    5.00
   6  -2  -3  105.65    5.04
   6  -2  -3   90.27    5.54
   6  -2  -3   96.46    5.04
   6  -2  -3   78.87    5.23
   6  -2  -3   86.28    5.02
   5  -2  -3    3.70    1.17
   5  -2  -3    1.63    0.59
   5  -2  -3    1.55    0.90
   5  -2  -3    2.21    0.68
   5  -2  -3    3.11    0.66
   5  -2  -3    3.09    0.65
   5  -2  -3    2.35    0.84
   5  -2  -3    1.15    0.56
   5  -2  -3    1.95    0.66
   5  -2  -3    1.50    0.64
  -5   2   3    1.93    0.61
  -5   2   3    1.09    1.07
   4  -2  -3   16.58    1.40
   4  -2  -3   18.22    1.25
   4  -2  -3   16.23    1.30
   4  -2  -3   18.61    1.31
   4  -2  -3   19.11    1.30
   4  -2  -3   20.16    1.37
   4  -2  -3   17.85    1.71
   4  -2  -3   18.51    1.37
   4  -2  -3   16.15    1.68
   4  -2  -3   18.61    1.28
  -4   2   3   20.80    1.33
  -4   2   3   19.72    1.34
  -4   2   3   19.79    1.32
   3  -2  -3  154.48    7.81
   3  -2  -3  147.08    7.84
   3  -2  -3  142.65    8.00
   3  -2  -3  142.28    7.71
   3  -2  -3  137.57    8.03
   3  -2  -3  141.55    7.81
   3  -2  -3  163.88    7.82
   3  -2  -3  158.87    7.84
   3  -2  -3  157.54    7.75
  -3   2   3  157.85    7.82
  -3   2   3  133.27    7.74
  -3   2   3  154.79    7.75
  -3   2   3  156.06    7.81
   2  -2  -3   72.51    3.92
   2  -2  -3   71.31    3.76
   2  -2  -3   72.97    3.78
   2  -2  -3   67.12    4.08
   2  -2  -3   69.64    4.11
   2  -2  -3   70.41    3.88
   2  -2  -3   75.17    3.89
  -2   2   3   74.76    3.79
  -2   2   3   70.60    3.86
  -2   2   3   83.13    4.12
  -2   2   3   69.01    3.91
  -2   2   3   74.16    3.89
  -2   2   3   71.58    3.88
   1  -2  -3    1.32    0.43
   1  -2  -3    1.58    0.77
   1  -2  -3    1.07    0.27
   1  -2  -3    1.35    0.46
   1  -2  -3    0.93    0.55
   1  -2  -3    1.47    0.28
   1  -2  -3    0.92    0.43
  -1   2   3    1.16    0.28
  -1   2   3    1.30    0.35
  -1   2   3    0.95    0.21
  -1   2   3    0.66    0.41
  -1   2   3    1.37    0.46
  -1   2   3    1.24    0.69
   0  -2  -3  137.98    7.18
   0  -2  -3  128.09    6.96
   0  -2  -3  140.25    7.04
   0  -2  -3  132.86    6.92
   0  -2  -3  140.75    7.13
   0  -2  -3  134.96    6.96
   0  -2  -3  115.09    6.89
   0   2   3  139.37    6.91
   0   2   3  129.57    7.57
   0   2   3  147.09    6.93
   0   2   3  135.16    7.30
   0   2   3  139.68    7.01
   0   2   3  127.53    6.95
  -1  -2  -3   36.99    2.03
  -1  -2  -3   37.21    2.46
  -1  -2  -3   37.53    2.21
  -1  -2  -3   38.63    2.24
  -1  -2  -3   42.19    2.14
  -1  -2  -3   36.41    2.45
  -1  -2  -3   34.55    2.03
   1   2   3   41.56    2.18
   1   2   3   36.00    2.16
   1   2   3   39.26    2.13
   1   2   3   37.16    2.27
   1   2   3   38.15    2.22
  -2  -2  -3    0.81    0.39
  -2  -2  -3    0.51    0.82
  -2  -2  -3    0.87    0.51
  -2  -2  -3    1.75    0.22
  -2  -2  -3    2.59    0.72
  -2  -2  -3    0.94    0.54
   2   2   3    0.61    0.61
   2   2   3    1.42    0.60
   2   2   3    1.80    0.61
   2   2   3    2.60    0.81
   2   2   3    1.40    0.42
  -3  -2  -3   18.81    1.40
  -3  -2  -3   20.52    1.65
  -3  -2  -3   19.65    1.77
  -3  -2  -3   22.07    1.32
   3   2   3   19.81    1.53
   3   2   3   20.45    1.75
   3   2   3   20.10    1.33
   3   2   3   19.49    1.49
   3   2   3   20.19    1.56
  -4  -2  -3    7.75    1.23
  -4  -2  -3    5.48    1.12
  -4  -2  -3    5.94    0.74
  -4  -2  -3    6.72    0.86
   4   2   3    6.52    0.98
   4   2   3    7.98    1.26
   4   2   3    8.76    1.17
   4   2   3    6.83    1.10
   4   2   3    6.28    0.79
   4   2   3    6.19    1.03
  -5  -2  -3    9.32    0.94
   5   2   3   11.66    1.61
   5   2   3   10.80    1.42
   5   2   3   14.16    2.23
   5   2   3   11.15    1.05
  -6  -2  -3   10.59    0.95
  -6  -2  -3    8.87    1.63
  -6  -2  -3   11.21    1.74
   6   2   3   10.33    1.55
   6   2   3   12.92    1.13
   6   2   3    6.84    2.49
   6   2   3    9.18    1.44
  -7  -2  -3    5.27    1.46
   7   2   3    5.58    1.39
   7   2   3    5.33    1.38
   7   2   3    4.61    0.90
  -8  -2  -3   11.38    1.18
  -8  -2  -3    6.67    1.72
   8   2   3    9.93    1.78
   8   2   3    6.54    1.58
   8   2   3    9.89    1.42
   9  -3  -3    0.96    0.90
   9  -3  -3    1.22    0.96
   9  -3  -3    1.44    0.92
   9  -3  -3   -0.42    0.82
   9  -3  -3    0.52    0.84
   9  -3  -3    3.59    1.57
   9  -3  -3    0.30    0.96
   8  -3  -3   25.11    2.12
   8  -3  -3   26.65    1.90
   8  -3  -3   23.29    1.99
   8  -3  -3   23.51    1.82
   8  -3  -3   25.58    2.59
   8  -3  -3   23.06    1.95
   8  -3  -3   23.90    2.24
   7  -3  -3   22.17    1.96
   7  -3  -3   32.47    2.22
   7  -3  -3   31.70    2.17
   7  -3  -3   30.60    1.98
   7  -3  -3   25.91    2.15
   7  -3  -3   26.91    3.00
   7  -3  -3   27.55    2.50
   7  -3  -3   27.94    2.06
   6  -3  -3    5.32    0.93
   6  -3  -3    7.06    1.84
   6  -3  -3    6.73    1.57
   6  -3  -3    4.98    0.91
   6  -3  -3    3.29    0.81
   6  -3  -3    5.31    0.98
   6  -3  -3    5.43    1.11
   6  -3  -3    3.97    0.79
   6  -3  -3    4.59    0.93
  -6   3   3    4.83    0.90
   5  -3  -3   55.85    3.25
   5  -3  -3   53.74    3.71
   5  -3  -3   54.65    3.16
   5  -3  -3   53.96    3.27
   5  -3  -3   54.15    3.25
   5  -3  -3   56.41    3.27
   5  -3  -3   56.05    3.66
   5  -3  -3   52.44    3.17
   5  -3  -3   54.99    3.15
  -5   3   3   53.67    3.20
  -5   3   3   56.98    3.19
  -5   3   3   58.00    3.30
   4  -3  -3    9.98    1.03
   4  -3  -3    9.02    0.89
   4  -3  -3    7.87    1.46
   4  -3  -3    9.16    0.92
   4  -3  -3    9.39    0.92
   4  -3  -3    7.50    0.90
   4  -3  -3   10.38    1.66
   4  -3  -3    8.57    0.84
   4  -3  -3    8.10    0.93
  -4   3   3    8.31    0.88
  -4   3   3    9.60    1.03
   3  -3  -3   69.39    3.75
   3  -3  -3   66.06    4.10
   3  -3  -3   71.79    3.68
   3  -3  -3   69.57    3.83
   3  -3  -3   67.16    3.78
   3  -3  -3   69.44    3.61
   3  -3  -3   66.88    4.12
   3  -3  -3   71.01    3.84
  -3   3   3   68.33    3.61
  -3   3   3   65.44    3.62
  -3   3   3   73.19    3.82
  -3   3   3   68.68    3.75
  -3   3   3   66.48    3.82
  -3   3   3   65.89    3.76
   2  -3  -3   88.93    5.21
   2  -3  -3  100.40    5.03
   2  -3  -3   94.01    4.99
   2  -3  -3   92.21    4.96
   2  -3  -3   91.52    4.92
   2  -3  -3   95.86    4.74
   2  -3  -3   94.66    4.85
  -2   3   3   90.35    4.97
  -2   3   3   93.11    4.93
  -2   3   3   91.20    4.97
  -2   3   3   89.45    4.80
  -2   3   3   95.00    4.98
  -2   3   3   86.14    5.17
   1  -3  -3  227.17   11.32
   1  -3  -3  235.02   11.69
   1  -3  -3  221.02   11.42
   1  -3  -3  216.36   11.47
   1  -3  -3  212.60   11.39
   1  -3  -3  221.26   11.40
   1  -3  -3  230.06   11.22
  -1   3   3  236.35   11.43
  -1   3   3  216.94   11.40
  -1   3   3  204.76   11.58
  -1   3   3  222.13   11.31
  -1   3   3  216.48   11.41
  -1   3   3  211.72   11.45
  -1   3   3  228.81   11.24
   0  -3  -3   92.16    5.22
   0  -3  -3   88.99    4.95
   0  -3  -3   91.59    4.89
   0  -3  -3   94.57    4.93
   0  -3  -3   92.61    5.05
   0   3   3   91.30    4.93
   0   3   3   96.66    5.05
   0   3   3   96.84    4.98
   0   3   3   95.27    4.90
   0   3   3   87.07    4.88
   0   3   3   93.42    5.13
  -1  -3  -3    1.18    0.66
  -1  -3  -3    3.24    1.00
  -1  -3  -3    1.06    0.39
  -1  -3  -3    1.97    0.57
  -1  -3  -3    1.63    0.58
  -1  -3  -3    2.23    0.52
   1   3   3    1.35    0.52
   1   3   3    1.77    0.49
   1   3   3    1.73    0.58
   1   3   3    1.33    0.48
   1   3   3    1.35    0.60
   1   3   3    1.83    0.77
  -2  -3  -3    9.24    1.39
  -2  -3  -3    9.13    0.81
  -2  -3  -3    7.66    0.57
  -2  -3  -3   10.29    0.90
  -2  -3  -3    7.85    0.58
   2   3   3    7.73    0.96
   2   3   3    8.76    0.92
   2   3   3    6.88    0.88
   2   3   3    9.45    0.86
   2   3   3    8.59    0.95
   2   3   3    8.91    1.25
  -3  -3  -3   14.52    1.63
  -3  -3  -3   18.28    1.27
  -3  -3  -3   15.94    1.40
  -3  -3  -3   15.58    1.30
   3   3   3   15.90    1.40
   3   3   3   17.57    1.56
   3   3   3   19.36    1.44
   3   3   3   15.62    1.39
   3   3   3   17.74    1.41
   3   3   3   16.11    1.24
   3   3   3   17.10    1.60
  -4  -3  -3   58.15    3.92
  -4  -3  -3   60.70    3.59
  -4  -3  -3   67.03    4.00
   4   3   3   66.49    3.86
   4   3   3   70.69    3.87
   4   3   3   68.19    3.87
   4   3   3   61.70    3.91
   4   3   3   65.33    3.89
   4   3   3   62.76    3.93
  -5  -3  -3    1.58    1.40
  -5  -3  -3    2.59    1.17
  -5  -3  -3    1.71    0.97
   5   3   3    3.31    1.11
   5   3   3    3.12    0.82
   5   3   3    3.30    1.04
   5   3   3    4.18    1.14
  -6  -3  -3   36.10    2.65
  -6  -3  -3   29.17    2.01
  -6  -3  -3   27.96    2.86
   6   3   3   26.35    2.55
   6   3   3   33.84    2.18
   6   3   3   32.83    2.56
  -7  -3  -3   -0.19    1.17
   7   3   3    0.76    1.11
   7   3   3   -0.05    1.04
  -8  -3  -3    5.96    1.69
   8   3   3    5.19    1.06
   8   3   3    7.64    1.92
   8   3   3    4.92    1.92
   9  -4  -3   23.03    1.94
   9  -4  -3   23.91    1.97
   9  -4  -3   21.66    2.15
   9  -4  -3   27.50    2.12
   9  -4  -3   19.37    2.12
   9  -4  -3   28.10    2.31
   9  -4  -3   26.28    2.89
   8  -4  -3    3.34    1.03
   8  -4  -3    3.04    0.85
   8  -4  -3    2.46    0.97
   8  -4  -3    3.53    1.53
   8  -4  -3    3.41    1.17
   8  -4  -3    3.72    1.13
   8  -4  -3    3.43    0.93
   7  -4  -3   21.40    1.85
   7  -4  -3   26.88    1.84
   7  -4  -3   29.21    2.22
   7  -4  -3   23.84    1.87
   7  -4  -3   27.59    2.10
   7  -4  -3   28.51    2.73
   7  -4  -3   28.18    1.91
   7  -4  -3   27.41    2.13
  -7   4   3   25.98    2.02
   6  -4  -3   -0.84    1.22
   6  -4  -3    0.22    0.68
   6  -4  -3    0.09    0.60
   6  -4  -3   -0.14    0.70
   6  -4  -3    0.17    0.52
   6  -4  -3    1.12    0.64
  -6   4   3    0.07    0.63
  -6   4   3    0.08    0.81
  -6   4   3   -0.12    0.65
   5  -4  -3    5.41    1.43
   5  -4  -3    5.13    0.98
   5  -4  -3    5.81    0.84
   5  -4  -3    4.24    0.65
   5  -4  -3    6.08    0.77
   5  -4  -3    5.13    0.84
   5  -4  -3    4.37    0.85
   5  -4  -3    5.66    1.02
  -5   4   3    4.52    0.86
  -5   4   3    5.61    1.05
  -5   4   3    5.83    0.84
   4  -4  -3   74.02    4.28
   4  -4  -3   77.88    4.14
   4  -4  -3   84.22    4.88
   4  -4  -3   76.74    4.92
   4  -4  -3   76.00    4.44
   4  -4  -3   72.70    4.09
   4  -4  -3   78.49    4.85
   4  -4  -3   78.80    4.47
  -4   4   3   83.86    4.47
  -4   4   3   75.36    4.35
  -4   4   3   80.29    4.30
  -4   4   3   83.30    4.41
   3  -4  -3    0.21    0.80
   3  -4  -3   -0.04    0.44
   3  -4  -3    0.26    0.79
   3  -4  -3   -0.51    0.36
   3  -4  -3    0.58    0.59
   3  -4  -3   -0.12    0.16
   3  -4  -3    0.25    0.39
  -3   4   3    0.29    0.43
  -3   4   3   -0.44    0.50
  -3   4   3   -0.35    0.58
  -3   4   3    0.21    0.31
  -3   4   3    0.61    0.48
   2  -4  -3    4.81    0.79
   2  -4  -3    4.61    0.83
   2  -4  -3    4.78    0.69
   2  -4  -3    3.27    1.63
   2  -4  -3    3.72    0.57
   2  -4  -3    3.92    0.71
  -2   4   3    4.03    0.72
  -2   4   3    4.76    0.70
  -2   4   3    3.86    0.51
  -2   4   3    4.42    1.11
  -2   4   3    4.22    0.73
  -2   4   3    4.50    1.17
   1  -4  -3  138.95    7.09
   1  -4  -3  123.34    6.69
   1  -4  -3  127.14    6.61
   1  -4  -3  125.51    6.69
   1  -4  -3  121.75    6.80
   1  -4  -3  138.49    6.69
  -1   4   3  113.17    6.74
  -1   4   3  129.82    6.69
  -1   4   3  126.85    6.43
  -1   4   3  123.35    6.71
  -1   4   3  121.46    6.67
   0  -4  -3    2.14    0.58
   0  -4  -3    0.04    0.98
   0  -4  -3    2.41    0.52
   0  -4  -3    2.72    0.59
   0  -4  -3    1.66    0.75
   0  -4  -3    1.27    0.50
   0   4   3    2.15    0.68
   0   4   3    3.22    0.88
   0   4   3    1.48    0.51
   0   4   3    2.11    0.59
   0   4   3    2.20    0.40
   0   4   3    1.77    0.37
   0   4   3    2.88    0.66
  -1  -4  -3   12.47    1.07
  -1  -4  -3   13.29    1.66
  -1  -4  -3   15.82    1.20
  -1  -4  -3   15.17    1.36
  -1  -4  -3   14.22    1.13
   1   4   3   15.01    1.33
   1   4   3   14.42    1.19
   1   4   3   13.51    1.06
   1   4   3   10.69    0.96
   1   4   3   12.69    1.64
   1   4   3   12.97    1.36
   1   4   3   13.36    1.38
   1   4   3   16.17    1.10
  -2  -4  -3    5.51    1.15
  -2  -4  -3    4.48    0.53
  -2  -4  -3    4.69    0.95
  -2  -4  -3    5.48    0.77
  -2  -4  -3    3.46    0.78
   2   4   3    4.13    0.80
   2   4   3    4.29    0.98
   2   4   3    4.57    0.74
   2   4   3    3.40    0.83
   2   4   3    4.07    0.77
   2   4   3    7.52    0.95
   2   4   3    4.35    0.69
  -3  -4  -3    0.30    1.03
  -3  -4  -3    0.24    0.98
  -3  -4  -3   -0.47    0.81
  -3  -4  -3    0.87    0.57
   3   4   3    0.82    0.66
   3   4   3    0.45    0.76
   3   4   3    1.07    0.78
   3   4   3   -0.32    0.80
   3   4   3    0.48    0.74
   3   4   3    0.16    0.72
   3   4   3    0.93    0.65
  -4  -4  -3    0.45    1.00
  -4  -4  -3    1.11    0.92
  -4  -4  -3    0.86    0.57
   4   4   3    0.08    0.99
   4   4   3    0.64    0.70
   4   4   3    0.46    0.94
   4   4   3    0.39    0.87
  -5  -4  -3   27.45    2.41
   5   4   3   26.98    1.98
   5   4   3   27.49    2.27
   5   4   3   28.77    2.36
  -6  -4  -3    9.94    1.10
  -6  -4  -3    9.06    1.71
   6   4   3    7.86    1.53
   6   4   3   10.47    1.37
   6   4   3   13.38    1.66
   6   4   3   12.04    1.70
  -7  -4  -3   11.94    1.00
  -7  -4  -3    8.83    1.80
   7   4   3   11.18    1.86
   7   4   3    8.89    1.71
   7   4   3   10.07    1.32
   9  -5  -3    1.39    1.20
   9  -5  -3   -0.73    0.83
   9  -5  -3    1.32    1.00
   9  -5  -3    0.88    0.77
   9  -5  -3   -0.92    1.50
   9  -5  -3    1.17    0.93
   9  -5  -3    0.81    1.08
   8  -5  -3    0.97    0.99
   8  -5  -3    0.61    0.92
   8  -5  -3    0.58    0.69
   8  -5  -3    2.66    1.21
   8  -5  -3    1.07    0.68
   8  -5  -3    1.35    1.39
  -8   5   3    1.74    0.83
   7  -5  -3    0.66    1.25
   7  -5  -3    1.97    0.66
   7  -5  -3    2.75    1.24
   7  -5  -3    1.99    0.73
   7  -5  -3    1.64    0.70
   7  -5  -3    2.93    1.47
   7  -5  -3    3.43    0.64
  -7   5   3    0.81    0.76
   6  -5  -3    0.86    0.49
   6  -5  -3    0.40    0.62
   6  -5  -3    0.92    0.73
   6  -5  -3    0.82    1.23
   6  -5  -3    1.12    0.88
   6  -5  -3    1.43    0.49
  -6   5   3    0.60    0.86
  -6   5   3    1.03    0.73
  -6   5   3    0.63    0.64
   5  -5  -3    7.15    0.71
   5  -5  -3   10.10    1.83
   5  -5  -3    8.46    1.55
   5  -5  -3    5.87    0.88
   5  -5  -3    7.48    1.09
   5  -5  -3    7.81    0.73
  -5   5   3    7.78    1.08
  -5   5   3    7.46    1.15
  -5   5   3    9.21    1.36
   4  -5  -3   12.73    1.13
   4  -5  -3   13.91    1.42
   4  -5  -3   12.78    1.18
   4  -5  -3   10.90    1.92
   4  -5  -3   12.43    1.24
  -4   5   3   12.21    1.24
  -4   5   3   13.99    1.31
  -4   5   3   14.10    1.16
  -4   5   3   13.12    1.03
  -4   5   3   12.97    1.30
   3  -5  -3    0.87    0.69
   3  -5  -3    2.07    0.82
   3  -5  -3    2.28    1.03
   3  -5  -3    1.21    0.55
   3  -5  -3    0.74    0.61
   3  -5  -3    0.10    0.96
   3  -5  -3    0.66    0.51
  -3   5   3    1.33    0.56
  -3   5   3    2.27    0.80
  -3   5   3    1.99    0.70
  -3   5   3    2.20    0.70
  -3   5   3    1.43    0.46
   2  -5  -3   16.65    1.84
   2  -5  -3   14.91    1.27
   2  -5  -3   14.26    1.17
   2  -5  -3   14.27    1.43
   2  -5  -3   14.77    1.17
  -2   5   3   15.37    1.34
  -2   5   3   16.64    1.25
  -2   5   3   14.48    1.14
  -2   5   3   14.26    1.36
  -2   5   3   16.12    1.22
   1  -5  -3    3.60    0.62
   1  -5  -3    4.25    0.72
   1  -5  -3    4.73    0.80
   1  -5  -3    3.47    0.92
   1  -5  -3    4.44    0.80
   1  -5  -3    3.42    1.08
  -1   5   3    4.77    0.85
  -1   5   3    3.38    0.30
  -1   5   3    4.19    0.67
  -1   5   3    4.71    0.81
  -1   5   3    5.07    1.08
  -1   5   3    6.02    1.22
  -1   5   3    4.05    0.90
   0  -5  -3    0.64    0.51
   0  -5  -3    1.20    1.09
   0  -5  -3    0.98    0.58
   0  -5  -3    0.84    0.51
   0  -5  -3    0.87    0.58
   0  -5  -3    0.78    0.76
   0   5   3    0.12    0.33
   0   5   3    0.64    0.81
   0   5   3    0.72    0.67
   0   5   3    1.78    0.63
   0   5   3    0.79    0.60
   0   5   3    0.04    0.63
   0   5   3    1.20    0.54
   0   5   3    0.64    0.34
  -1  -5  -3   39.60    2.41
  -1  -5  -3   42.37    2.53
  -1  -5  -3   43.80    2.81
  -1  -5  -3   41.21    2.57
   1   5   3   41.96    2.59
   1   5   3   38.96    2.78
   1   5   3   39.28    2.72
   1   5   3   41.71    2.43
   1   5   3   42.05    2.44
   1   5   3   42.70    2.62
   1   5   3   39.96    2.42
   1   5   3   44.53    2.58
  -2  -5  -3    0.23    0.61
  -2  -5  -3    2.58    1.18
  -2  -5  -3    0.43    0.46
  -2  -5  -3   -0.60    0.88
  -2  -5  -3   -0.84    0.66
   2   5   3   -0.27    0.77
   2   5   3    0.04    0.43
   2   5   3   -0.32    0.78
   2   5   3   -0.79    0.69
   2   5   3   -0.70    0.51
   2   5   3    0.20    0.78
   2   5   3   -1.49    0.62
  -3  -5  -3   94.37    5.01
  -3  -5  -3   91.14    5.55
  -3  -5  -3   94.80    5.67
   3   5   3   85.85    5.27
   3   5   3  102.22    5.35
   3   5   3   92.19    5.42
   3   5   3  106.97    5.50
   3   5   3   88.87    5.31
  -4  -5  -3    9.34    1.58
   4   5   3    7.93    1.20
   4   5   3    8.79    1.45
   4   5   3   10.68    1.46
   4   5   3   11.24    1.56
  -5  -5  -3    6.65    1.58
  -5  -5  -3    5.05    1.43
   5   5   3    8.32    1.36
   5   5   3    7.68    1.20
   5   5   3    7.27    1.57
   5   5   3    8.12    1.52
  -6  -5  -3    1.53    1.23
   6   5   3    1.53    1.02
   6   5   3   -0.17    1.15
   6   5   3   -0.01    1.20
   7   5   3    0.86    1.63
   7   5   3   -0.45    2.05
   7   5   3    0.74    0.98
   8  -6  -3    3.36    1.25
   8  -6  -3    2.57    0.69
   8  -6  -3    2.67    1.61
   8  -6  -3    7.58    1.72
   8  -6  -3    2.78    1.75
  -8   6   3    4.19    1.03
   7  -6  -3    5.35    1.08
   7  -6  -3    5.28    0.94
   7  -6  -3    5.55    0.80
   7  -6  -3    7.75    1.45
   7  -6  -3    6.96    1.81
  -7   6   3    6.65    1.15
  -7   6   3    7.44    1.41
   6  -6  -3    3.53    0.99
   6  -6  -3    4.83    0.98
   6  -6  -3    4.22    1.52
   6  -6  -3    4.84    0.62
  -6   6   3    5.41    1.28
  -6   6   3    5.81    1.07
  -6   6   3    5.40    0.88
   5  -6  -3    1.37    0.98
   5  -6  -3    0.46    0.60
   5  -6  -3    0.17    0.71
   5  -6  -3    0.43    1.17
  -5   6   3    0.69    0.60
  -5   6   3    0.45    0.90
  -5   6   3    0.49    0.66
  -5   6   3    0.81    0.63
   4  -6  -3    0.56    1.07
   4  -6  -3    1.01    0.59
   4  -6  -3    0.22    1.07
   4  -6  -3   -0.03    0.86
  -4   6   3    0.15    0.58
  -4   6   3    0.05    0.88
  -4   6   3    0.89    0.50
  -4   6   3    1.19    0.63
   3  -6  -3    0.00    0.54
   3  -6  -3   -0.94    0.55
   3  -6  -3   -0.53    1.31
  -3   6   3    0.05    0.56
  -3   6   3   -0.06    0.42
  -3   6   3    0.20    0.92
   2  -6  -3    0.13    1.06
   2  -6  -3   -0.53    0.49
   2  -6  -3    0.80    0.88
   2  -6  -3    0.03    1.21
   2  -6  -3   -0.16    0.65
   2  -6  -3    0.47    0.58
  -2   6   3   -0.39    0.66
  -2   6   3    0.09    0.46
  -2   6   3    0.62    0.73
  -2   6   3   -0.68    0.70
   1  -6  -3    0.17    0.91
   1  -6  -3    0.16    0.71
   1  -6  -3    0.40    0.52
   1  -6  -3    0.03    1.16
   1  -6  -3    1.32    0.63
  -1   6   3    0.47    0.69
  -1   6   3    0.08    0.71
  -1   6   3    0.19    0.65
  -1   6   3    0.14    0.57
   0  -6  -3    1.37    0.97
   0  -6  -3   -0.83    1.32
   0  -6  -3    1.99    0.65
   0  -6  -3    0.86    0.69
   0  -6  -3    1.01    0.67
   0   6   3    0.25    0.37
   0   6   3    1.17    0.75
   0   6   3    0.75    0.98
   0   6   3    1.28    0.74
   0   6   3    1.12    0.83
   0   6   3   -0.79    1.06
   0   6   3    0.86    0.39
  -1  -6  -3    0.08    0.65
  -1  -6  -3    2.06    1.04
  -1  -6  -3    1.29    1.39
  -1  -6  -3    0.39    0.59
   1   6   3   -0.70    0.53
   1   6   3   -1.26    1.05
   1   6   3    0.12    0.51
   1   6   3   -0.51    0.77
   1   6   3   -0.98    0.84
   1   6   3   -0.10    0.64
   1   6   3    0.57    0.64
  -2  -6  -3   20.49    1.49
  -2  -6  -3   23.30    2.14
   2   6   3   22.41    1.72
   2   6   3   23.29    1.90
   2   6   3   23.68    1.53
   2   6   3   19.45    1.68
   2   6   3   23.51    1.89
  -3  -6  -3    8.58    1.51
  -3  -6  -3    6.27    1.46
   3   6   3    7.18    1.40
   3   6   3    6.05    1.20
   3   6   3    7.15    1.19
  -4  -6  -3    1.97    1.19
  -4  -6  -3    2.46    0.88
   4   6   3    3.92    1.12
   4   6   3    3.16    1.22
   4   6   3    3.04    1.04
  -5  -6  -3    0.11    1.12
   5   6   3    0.99    0.95
   5   6   3   -0.61    1.07
   5   6   3   -0.10    1.03
  -6  -6  -3   -0.20    1.22
   6   6   3    1.36    1.02
   6   6   3    0.96    1.19
   6   6   3   -1.46    1.84
   8  -7  -3    5.25    1.64
   8  -7  -3    3.70    1.90
   8  -7  -3    4.70    0.95
   8  -7  -3    2.44    2.33
  -8   7   3    3.91    1.09
   7  -7  -3    0.36    1.20
   7  -7  -3   -0.63    0.91
   7  -7  -3   -0.22    1.34
  -7   7   3   -0.32    1.03
  -7   7   3    0.32    0.77
   6  -7  -3    0.96    1.41
   6  -7  -3    2.52    1.20
  -6   7   3    0.79    0.34
  -6   7   3    0.44    0.81
  -6   7   3    0.66    1.01
   5  -7  -3   -0.60    0.74
   5  -7  -3   -0.30    1.17
   5  -7  -3    0.80    1.05
   5  -7  -3    1.03    0.60
  -5   7   3    1.77    1.01
  -5   7   3    0.24    0.55
  -5   7   3   -0.24    0.76
  -5   7   3    0.96    0.34
   4  -7  -3    1.58    2.05
   4  -7  -3    1.91    0.81
   4  -7  -3    3.09    1.38
   4  -7  -3    2.06    0.63
  -4   7   3    1.66    0.59
  -4   7   3    2.87    0.96
  -4   7   3    1.54    0.62
   3  -7  -3   11.62    2.13
   3  -7  -3   11.73    1.61
   3  -7  -3   10.00    1.27
   3  -7  -3   10.55    1.13
  -3   7   3   16.25    1.59
  -3   7   3   13.47    1.20
  -3   7   3   11.12    1.16
  -3   7   3   10.92    1.40
   2  -7  -3    0.05    1.27
   2  -7  -3    0.36    0.63
   2  -7  -3   -0.30    0.94
   2  -7  -3    0.95    0.66
  -2   7   3   -0.05    0.60
  -2   7   3   -0.54    0.61
  -2   7   3   -0.44    0.79
  -2   7   3   -0.08    0.51
   1  -7  -3    0.90    0.64
   1  -7  -3    1.64    0.73
   1  -7  -3    0.43    1.00
   1  -7  -3   -0.40    1.24
  -1   7   3    1.35    0.74
  -1   7   3    2.58    1.14
  -1   7   3    0.70    0.80
  -1   7   3    0.26    0.72
   0  -7  -3   10.96    1.23
   0  -7  -3   11.10    1.68
   0  -7  -3    8.22    1.26
   0  -7  -3    8.43    1.99
   0   7   3   10.03    1.19
   0   7   3   11.07    1.27
   0   7   3    9.66    1.35
   0   7   3   10.49    1.43
  -1  -7  -3    0.63    1.33
  -1  -7  -3   -1.21    1.29
   1   7   3    0.98    0.72
   1   7   3   -0.02    0.65
   1   7   3    0.26    0.84
   1   7   3   -0.64    0.51
  -2  -7  -3    3.42    1.29
  -2  -7  -3    4.93    1.42
   2   7   3    5.11    0.93
   2   7   3    5.92    0.72
   2   7   3    5.69    1.34
   2   7   3    4.08    1.37
  -3  -7  -3    7.31    1.53
  -3  -7  -3   11.64    1.76
   3   7   3   12.29    1.55
   3   7   3   10.13    1.50
   3   7   3   11.70    1.57
  -4  -7  -3    1.73    1.22
  -4  -7  -3    1.49    0.45
   4   7   3    1.93    0.89
   4   7   3    2.73    1.08
   4   7   3    4.73    2.01
   4   7   3    0.70    1.29
  -5  -7  -3    0.81    1.28
   5   7   3    0.12    1.02
   5   7   3    0.22    1.24
   5   7   3    0.11    0.98
   7  -8  -3    0.79    1.40
   7  -8  -3    0.18    1.59
   7  -8  -3   -0.24    1.09
  -7   8   3    0.05    1.01
  -7   8   3    0.55    1.18
   6  -8  -3   -0.26    1.30
   6  -8  -3   -0.24    1.08
  -6   8   3    0.13    0.99
  -6   8   3    0.56    0.33
  -6   8   3    0.63    0.87
   5  -8  -3    0.43    1.41
   5  -8  -3    0.29    1.13
   5  -8  -3   -0.95    0.91
  -5   8   3    0.88    0.33
  -5   8   3   -0.13    0.83
  -5   8   3   -0.11    0.99
   4  -8  -3    7.06    1.55
   4  -8  -3    4.91    1.09
   4  -8  -3    3.63    1.45
   4  -8  -3    7.23    1.07
  -4   8   3    8.36    1.47
  -4   8   3    6.91    1.30
   3  -8  -3   18.34    1.47
   3  -8  -3   17.52    2.05
   3  -8  -3   21.82    1.78
   3  -8  -3   18.26    2.62
  -3   8   3   18.79    1.69
  -3   8   3   18.53    1.53
  -3   8   3   18.19    1.88
   2  -8  -3    7.36    1.58
   2  -8  -3    7.37    1.05
   2  -8  -3    9.78    1.24
  -2   8   3    6.20    1.07
  -2   8   3    9.85    1.41
   1  -8  -3   -0.39    1.07
   1  -8  -3    1.08    0.99
   1  -8  -3   -1.13    1.52
  -1   8   3    0.66    0.98
  -1   8   3    0.59    0.86
  -1   8   3   -0.44    1.00
   0  -8  -3    1.58    1.59
   0  -8  -3    0.65    1.20
   0  -8  -3    0.85    0.83
   0   8   3    1.37    0.97
   0   8   3    1.34    0.93
   0   8   3    0.96    0.88
  -1  -8  -3    2.92    1.33
  -1  -8  -3    3.57    1.68
   1   8   3    4.56    0.99
   1   8   3    4.00    1.24
   1   8   3    2.01    1.87
   2   8   3   16.45    1.36
  -3  -8  -3    2.05    0.60
  -3  -8  -3    1.11    1.22
   3   8   3    1.37    0.82
   3   8   3    1.58    1.11
   3   8   3    0.64    1.23
  -4  -8  -3   11.18    2.36
   4   8   3    9.49    1.67
   4   8   3   13.41    2.20
   4   8   3   15.84    1.72
   6  -9  -3   -0.63    1.11
   6  -9  -3    2.78    1.79
  -6   9   3    3.55    1.39
  -6   9   3    5.26    1.44
  -6   9   3    1.50    0.47
   5  -9  -3   -1.35    1.19
   5  -9  -3    0.61    1.94
  -5   9   3    1.07    0.98
  -5   9   3    0.75    0.40
   4  -9  -3    0.40    1.31
   4  -9  -3    1.94    1.71
   4  -9  -3    1.12    0.87
  -4   9   3    1.15    1.10
  -4   9   3    1.47    0.95
  -4   9   3    1.17    0.38
   3  -9  -3    3.64    0.96
   3  -9  -3    0.50    1.35
   3  -9  -3    1.24    1.58
  -3   9   3    2.50    1.07
  -3   9   3    3.02    1.20
  -3   9   3    1.11    0.43
   2  -9  -3    1.64    0.79
   2  -9  -3   -1.33    1.25
   2  -9  -3    0.31    1.57
  -2   9   3    2.15    0.96
  -2   9   3    0.24    0.67
  -2   9   3   -0.10    0.91
   1  -9  -3   -0.48    1.59
   1  -9  -3   -1.55    1.25
   1  -9  -3    2.40    0.87
  -1   9   3    0.37    0.82
  -1   9   3    0.46    0.86
  -1   9   3    0.00    0.92
   0  -9  -3   10.37    1.76
   0  -9  -3    7.25    2.04
   0  -9  -3    8.62    1.82
   0   9   3   10.05    1.50
  -1  -9  -3    0.51    2.18
  -1  -9  -3    1.62    1.40
   1   9   3   -0.01    0.30
   1   9   3    0.12    1.10
   1   9   3    0.45    0.81
   1   9   3   -1.13    0.99
  -2  -9  -3    1.75    1.62
   2   9   3    2.20    1.26
   2   9   3    1.54    1.27
  -3  -9  -3    0.51    1.34
   3   9   3    1.23    1.14
   3   9   3   -0.46    1.79
   4 -10  -3   -1.39    1.40
   4 -10  -3    2.15    1.94
   4 -10  -3    2.76    0.91
  -4  10   3    0.81    1.09
  -4  10   3    1.17    1.03
   3 -10  -3    2.19    3.13
   3 -10  -3    4.97    1.80
  -3  10   3    7.19    2.43
  -3  10   3    4.59    1.29
   2 -10  -3    6.44    1.98
   2 -10  -3   11.28    1.43
  -2  10   3    8.71    1.62
  -2  10   3    9.53    1.60
   1 -10  -3    4.83    1.81
   1 -10  -3    6.64    1.22
  -1  10   3    3.96    1.10
  -1  10   3    5.47    1.43
  -1  10   3    5.51    1.39
   0 -10  -3    2.70    1.63
   0 -10  -3    4.81    1.08
   0  10   3    4.43    1.38
   0  10   3    5.24    1.25
   0  10   3    4.42    1.22
   1  10  -4    0.92    1.19
   1  10  -4    1.87    0.52
   1  10  -4    1.96    1.13
   1  10  -4    0.18    0.53
  -1 -10   4    0.10    1.19
  -1 -10   4    1.90    0.75
  -1 -10   4   -0.18    1.68
   0  10  -4    4.04    1.34
   0  10  -4    1.58    0.60
   0  10  -4    2.74    2.00
   0 -10   4    2.10    1.25
   0 -10   4    3.77    1.70
   0 -10   4    1.97    1.12
  -1  10  -4    2.36    1.27
  -1  10  -4    1.74    1.22
   1 -10   4    1.81    1.17
   1 -10   4    0.39    1.48
   1 -10   4    0.31    1.11
  -2  10  -4    1.81    1.05
   2 -10   4    2.43    1.37
   2 -10   4    2.09    1.42
   2 -10   4    2.29    2.63
  -3  10  -4   24.40    2.15
  -3  10  -4   24.35    2.46
   3 -10   4   19.01    2.47
   3 -10   4   22.34    3.40
   3 -10   4   19.98    3.91
   4   9  -4    2.35    1.37
  -4  -9   4    0.12    1.07
   3   9  -4   -0.31    1.00
   3   9  -4   -1.49    1.30
   3   9  -4    0.30    0.98
   3   9  -4    0.30    0.96
  -3  -9   4   -0.71    1.11
  -3  -9   4    0.11    1.26
   2   9  -4    0.26    1.07
   2   9  -4    1.04    1.15
   2   9  -4    2.53    0.90
  -2  -9   4    2.59    1.37
  -2  -9   4    0.31    0.65
  -2  -9   4   -0.76    0.90
  -2  -9   4   -0.06    0.53
   1   9  -4    1.13    0.89
   1   9  -4    0.07    1.12
   1   9  -4    1.11    0.90
  -1  -9   4   -0.09    0.84
  -1  -9   4    0.74    0.62
  -1  -9   4    1.59    1.34
  -1  -9   4    2.08    1.07
   0   9  -4   -0.71    0.31
   0   9  -4   -0.13    1.00
   0   9  -4    0.19    0.97
   0   9  -4   -0.51    0.32
   0  -9   4   -0.17    0.86
   0  -9   4   -0.36    0.99
   0  -9   4    0.52    0.85
   0  -9   4   -0.91    1.24
  -1   9  -4    4.58    1.35
  -1   9  -4    5.91    1.34
   1  -9   4    6.13    0.78
   1  -9   4    5.64    1.67
   1  -9   4    5.93    1.51
   1  -9   4    5.59    1.46
  -2   9  -4    1.13    1.13
  -2   9  -4   -0.04    0.89
   2  -9   4    1.57    1.22
   2  -9   4    1.65    0.39
   2  -9   4    1.42    1.34
   2  -9   4    1.66    1.21
  -3   9  -4    3.07    1.36
  -3   9  -4    2.07    1.02
   3  -9   4    3.50    1.39
   3  -9   4    2.52    1.31
   3  -9   4    2.56    1.45
  -4   9  -4    0.61    0.82
  -4   9  -4    1.69    1.43
   4  -9   4   -1.88    0.98
   4  -9   4    1.06    1.62
   4  -9   4    1.36    1.19
  -5   9  -4   31.41    2.39
   5  -9   4   32.72    2.92
   5  -9   4   26.64    2.74
   5   8  -4    1.14    1.32
   5   8  -4   -0.62    1.27
   5   8  -4    0.87    1.27
  -5  -8   4   -0.45    1.00
   4   8  -4    2.54    1.34
   4   8  -4    2.56    1.17
   4   8  -4    4.89    1.11
  -4  -8   4    4.16    1.03
  -4  -8   4    2.85    1.42
  -4  -8   4    3.75    1.33
   3   8  -4    4.54    1.18
   3   8  -4    3.22    1.33
  -3  -8   4    2.61    0.85
  -3  -8   4    2.95    1.28
  -3  -8   4    3.29    1.24
   2   8  -4    2.55    1.08
   2   8  -4    2.97    0.98
   2   8  -4    3.21    1.02
  -2  -8   4    2.68    1.31
  -2  -8   4    0.92    0.72
   1   8  -4    4.55    0.95
   1   8  -4    6.37    1.39
   1   8  -4    6.00    1.32
  -1  -8   4    3.40    1.04
  -1  -8   4    4.37    1.26
  -1  -8   4    5.35    0.85
   0   8  -4    0.32    0.98
   0  -8   4   -0.22    1.34
  -1   8  -4    4.16    1.37
  -1   8  -4    2.39    1.70
   1  -8   4    4.63    1.33
   1  -8   4    2.75    0.60
   1  -8   4    4.40    1.38
   1  -8   4    4.49    1.37
  -2   8  -4    1.69    0.94
  -2   8  -4    1.78    1.15
   2  -8   4    1.15    0.46
   2  -8   4    1.43    1.08
   2  -8   4    0.52    1.07
   2  -8   4    4.34    2.50
  -3   8  -4    6.15    1.44
  -3   8  -4    6.51    1.14
   3  -8   4    5.43    1.36
   3  -8   4    5.42    0.72
   3  -8   4    5.26    1.39
  -4   8  -4   21.70    1.83
  -4   8  -4   24.21    2.30
   4  -8   4   21.32    1.48
   4  -8   4   22.05    2.23
   4  -8   4   22.98    2.12
  -5   8  -4    1.07    1.20
  -5   8  -4    1.64    0.71
   5  -8   4    0.23    1.27
   5  -8   4    2.05    1.19
   5  -8   4    2.47    2.05
  -6   8  -4    0.93    0.76
   6  -8   4    0.08    0.61
   6  -8   4    2.29    2.41
   6  -8   4    0.01    1.88
   6  -8   4    0.00    1.16
   6   7  -4    2.04    1.34
   6   7  -4    3.91    1.73
   6   7  -4    1.82    1.28
   6   7  -4    4.31    0.91
  -6  -7   4    2.60    1.13
   5   7  -4    4.39    1.01
   5   7  -4    3.56    1.24
   5   7  -4    2.96    1.35
  -5  -7   4    3.21    1.03
  -5  -7   4    2.12    1.22
   4   7  -4    8.30    1.36
   4   7  -4    5.56    1.23
   4   7  -4    4.82    1.11
  -4  -7   4    3.90    1.26
  -4  -7   4    5.77    1.36
  -4  -7   4    6.50    1.31
   3   7  -4    0.01    0.91
   3   7  -4    0.92    0.92
   3   7  -4    0.26    0.83
  -3  -7   4    0.31    0.96
  -3  -7   4    0.36    0.94
  -3  -7   4    0.28    0.69
   2   7  -4    1.35    0.76
   2   7  -4    0.13    0.63
   2   7  -4    0.51    0.78
  -2  -7   4    2.26    1.04
  -2  -7   4   -0.33    1.07
  -2  -7   4    0.01    0.64
   1   7  -4    2.36    0.79
   1   7  -4    2.18    1.18
   1   7  -4    2.96    0.73
   1   7  -4    3.04    0.79
   1   7  -4    2.76    1.09
  -1  -7   4    2.12    0.70
  -1  -7   4    1.95    0.93
  -1  -7   4    1.73    1.07
  -1  -7   4    3.42    0.94
   0   7  -4    0.11    1.00
   0   7  -4    0.25    0.60
   0   7  -4    0.51    0.58
   0   7  -4    0.78    0.45
   0   7  -4    0.16    0.89
   0  -7   4    3.44    1.10
   0  -7   4    0.57    0.56
   0  -7   4    0.76    0.93
   0  -7   4    2.01    1.14
   0  -7   4    0.29    1.05
  -1   7  -4   96.87    5.04
  -1   7  -4   88.48    5.11
   1  -7   4   84.08    5.14
   1  -7   4   73.09    5.37
   1  -7   4   95.15    5.26
   1  -7   4   83.15    4.71
  -2   7  -4   46.36    3.16
  -2   7  -4   48.01    3.18
   2  -7   4   44.39    3.15
   2  -7   4   44.92    2.65
   2  -7   4   44.50    3.18
  -3   7  -4    8.76    1.81
   3  -7   4   10.51    1.64
   3  -7   4    9.07    1.74
   3  -7   4    9.18    0.96
  -4   7  -4   27.25    2.28
  -4   7  -4   29.89    2.39
  -4   7  -4   29.17    2.94
   4  -7   4   25.18    2.71
   4  -7   4   25.26    2.33
   4  -7   4   24.25    1.78
  -5   7  -4   33.28    2.62
  -5   7  -4   26.98    2.62
  -5   7  -4   37.32    3.43
   5  -7   4   29.09    2.08
   5  -7   4   29.78    2.60
   5  -7   4   33.72    2.57
  -6   7  -4    0.92    0.77
  -6   7  -4    3.83    1.29
   6  -7   4    1.55    0.74
   6  -7   4    2.15    1.22
   6  -7   4    1.87    1.21
  -7   7  -4    0.53    1.09
  -7   7  -4    1.40    0.41
   7  -7   4   -0.45    0.73
   7  -7   4    2.08    1.21
   7  -7   4   -0.37    1.14
   7   6  -4    1.66    1.47
   7   6  -4    1.45    1.29
   7   6  -4    6.89    2.19
  -7  -6   4    2.23    1.18
   6   6  -4   -1.45    1.07
   6   6  -4    1.15    1.22
   6   6  -4    1.18    1.19
  -6  -6   4   -0.29    0.99
  -6  -6   4    0.82    0.38
   5   6  -4   -0.62    0.93
   5   6  -4    0.32    0.78
   5   6  -4   -0.50    1.05
  -5  -6   4    0.45    0.38
  -5  -6   4   -0.46    0.90
  -5  -6   4    0.41    0.86
   4   6  -4   12.72    1.39
   4   6  -4   10.34    1.36
  -4  -6   4   11.15    1.47
  -4  -6   4    8.41    1.51
  -4  -6   4    6.69    1.88
   3   6  -4    1.57    0.96
   3   6  -4    1.11    0.80
   3   6  -4    0.11    0.83
   3   6  -4    0.04    0.85
  -3  -6   4    0.89    0.77
  -3  -6   4    0.23    0.75
  -3  -6   4   -0.10    0.90
  -3  -6   4    1.06    1.00
   2   6  -4    5.44    1.23
   2   6  -4    5.62    1.18
   2   6  -4    8.21    1.12
   2   6  -4    8.16    1.11
   2   6  -4    5.60    1.18
   2   6  -4    6.06    1.07
  -2  -6   4    5.07    1.18
  -2  -6   4    5.54    1.04
  -2  -6   4    6.60    1.19
  -2  -6   4    5.72    1.06
  -2  -6   4    5.10    0.95
  -2  -6   4    6.26    1.13
   1   6  -4   14.13    1.16
   1   6  -4   12.94    1.30
   1   6  -4   13.33    1.19
   1   6  -4   13.65    1.33
   1   6  -4   11.78    1.56
   1   6  -4   11.86    1.32
  -1  -6   4   11.10    1.44
  -1  -6   4   15.38    1.54
  -1  -6   4   11.78    1.52
  -1  -6   4   14.20    2.51
   0   6  -4    0.21    0.57
   0   6  -4   -0.80    0.85
   0   6  -4    0.45    0.49
   0   6  -4    0.61    0.46
   0   6  -4    1.01    0.77
   0   6  -4   -0.33    0.57
   0  -6   4    0.31    0.80
   0  -6   4    1.67    0.91
   0  -6   4    0.64    1.12
   0  -6   4    0.35    0.60
   0  -6   4    0.20    0.74
   0  -6   4    0.03    0.76
   0  -6   4   -0.29    0.52
  -1   6  -4   35.49    2.07
  -1   6  -4   40.95    2.50
  -1   6  -4   38.21    2.91
  -1   6  -4   36.53    2.63
  -1   6  -4   34.52    2.51
  -1   6  -4   37.35    2.28
   1  -6   4   39.97    2.71
   1  -6   4   37.30    2.61
   1  -6   4   40.27    2.31
   1  -6   4   35.35    2.38
   1  -6   4   43.00    3.50
  -2   6  -4  164.69    8.35
  -2   6  -4  136.93    7.53
  -2   6  -4  148.12    7.74
  -2   6  -4  155.36    8.13
   2  -6   4  143.19    8.30
   2  -6   4  137.63    7.67
   2  -6   4  144.87    7.59
   2  -6   4  137.57    7.99
   2  -6   4  129.78    8.22
  -3   6  -4  261.17   14.16
  -3   6  -4  279.21   14.99
  -3   6  -4  286.20   14.57
  -3   6  -4  286.18   14.34
   3  -6   4  262.09   14.28
   3  -6   4  271.55   14.60
   3  -6   4  276.70   14.23
   3  -6   4  286.73   14.64
  -4   6  -4   21.53    1.62
  -4   6  -4   23.57    2.02
  -4   6  -4   22.03    2.55
  -4   6  -4   19.62    1.43
   4  -6   4   22.41    1.61
   4  -6   4   23.64    2.05
   4  -6   4   19.45    1.59
   4  -6   4   21.29    1.98
  -5   6  -4    7.67    1.70
  -5   6  -4    7.67    0.96
  -5   6  -4    7.44    1.95
   5  -6   4    6.64    0.92
   5  -6   4    6.78    1.42
   5  -6   4    7.15    1.02
  -6   6  -4    0.01    1.47
  -6   6  -4    3.16    1.15
  -6   6  -4    0.88    0.44
   6  -6   4    1.28    0.79
   6  -6   4    0.95    1.17
   6  -6   4    1.26    1.12
   6  -6   4    3.27    0.91
   6  -6   4    1.09    0.60
  -7   6  -4    0.21    1.00
  -7   6  -4    0.00    1.58
  -7   6  -4    0.35    0.29
   7  -6   4    0.72    1.09
   7  -6   4   -0.56    0.75
   7  -6   4    0.05    1.05
  -8   6  -4   -0.22    1.46
  -8   6  -4    0.59    1.01
   8  -6   4    1.34    1.99
   8  -6   4   -0.24    0.82
   8  -6   4   -0.17    1.12
   8   5  -4    0.76    1.26
   8   5  -4    1.69    1.32
   8   5  -4    0.87    1.32
  -8  -5   4    2.03    1.11
   7   5  -4    1.81    1.26
   7   5  -4    2.56    1.20
   7   5  -4    1.80    1.24
   7   5  -4    2.20    0.65
  -7  -5   4    0.91    1.04
   6   5  -4    0.04    0.95
   6   5  -4    1.19    0.74
   6   5  -4   -0.25    1.03
  -6  -5   4   -0.34    0.91
  -6  -5   4    0.87    0.96
   5   5  -4    2.29    1.06
   5   5  -4    3.56    1.40
  -5  -5   4    1.18    0.87
  -5  -5   4    2.81    0.98
   4   5  -4    0.70    0.96
   4   5  -4    0.82    0.69
   4   5  -4    0.55    0.96
  -4  -5   4    1.28    0.67
  -4  -5   4    0.25    0.87
  -4  -5   4   -0.51    0.81
  -4  -5   4    0.05    0.93
   3   5  -4   31.63    2.11
   3   5  -4   29.41    2.09
   3   5  -4   27.16    2.43
   3   5  -4   26.82    1.99
   3   5  -4   29.96    2.17
   3   5  -4   28.60    2.16
  -3  -5   4   29.71    2.16
  -3  -5   4   30.89    2.14
  -3  -5   4   32.99    2.51
  -3  -5   4   29.40    2.02
   2   5  -4    5.45    1.07
   2   5  -4    5.03    0.81
   2   5  -4    6.77    1.08
   2   5  -4    6.20    0.99
   2   5  -4    6.59    0.99
   2   5  -4    5.08    0.88
   2   5  -4    4.33    0.85
  -2  -5   4    5.82    0.91
  -2  -5   4    4.60    0.89
  -2  -5   4    6.15    1.00
  -2  -5   4    8.47    1.20
  -2  -5   4    5.27    0.95
  -2  -5   4    5.61    0.87
  -2  -5   4    6.40    0.90
   1   5  -4   99.95    5.65
   1   5  -4  103.33    5.90
   1   5  -4  109.53    5.85
   1   5  -4  107.58    5.76
   1   5  -4  103.32    5.79
   1   5  -4  103.12    5.80
   1   5  -4  106.85    5.66
  -1  -5   4   96.82    5.74
  -1  -5   4  114.45    5.88
  -1  -5   4  105.62    5.80
  -1  -5   4  108.84    5.97
  -1  -5   4  110.27    5.84
  -1  -5   4  108.71    5.77
  -1  -5   4  111.80    6.11
   0   5  -4   30.45    2.02
   0   5  -4   33.09    2.02
   0   5  -4   34.24    2.31
   0   5  -4   29.29    2.10
   0   5  -4   30.80    1.78
   0   5  -4   29.55    1.91
   0   5  -4   27.28    2.08
   0  -5   4   28.86    2.23
   0  -5   4   30.59    2.07
   0  -5   4   31.68    2.18
   0  -5   4   31.82    1.93
   0  -5   4   25.56    1.85
  -1   5  -4    0.81    0.57
  -1   5  -4    1.52    0.65
  -1   5  -4    1.63    0.51
  -1   5  -4    1.33    0.28
  -1   5  -4    1.33    0.28
  -1   5  -4    0.63    1.11
  -1   5  -4    1.27    0.66
  -1   5  -4    1.55    0.63
   1  -5   4    1.32    0.49
   1  -5   4    1.04    0.50
   1  -5   4    1.48    0.71
   1  -5   4    1.82    0.79
   1  -5   4    1.55    0.84
   1  -5   4    1.61    0.71
  -2   5  -4   17.81    1.38
  -2   5  -4   21.37    2.18
  -2   5  -4   19.38    1.49
  -2   5  -4   19.66    1.56
  -2   5  -4   19.95    1.67
  -2   5  -4   18.63    1.31
   2  -5   4   18.81    1.93
   2  -5   4   18.52    1.37
   2  -5   4   18.33    1.57
   2  -5   4   16.93    1.62
   2  -5   4   19.48    1.39
   2  -5   4   20.50    1.54
  -3   5  -4   31.40    2.24
  -3   5  -4   29.14    1.88
  -3   5  -4   31.25    1.94
  -3   5  -4   31.08    2.73
  -3   5  -4   30.77    2.19
   3  -5   4   27.01    2.68
   3  -5   4   30.75    2.25
   3  -5   4   30.52    2.21
   3  -5   4   29.69    1.89
   3  -5   4   30.08    1.96
  -4   5  -4   47.81    3.72
  -4   5  -4   51.93    3.34
  -4   5  -4   47.38    2.82
  -4   5  -4   48.30    2.81
   4  -5   4   46.48    2.79
   4  -5   4   49.27    3.23
   4  -5   4   48.99    3.18
  -5   5  -4   22.94    1.72
  -5   5  -4   19.67    1.87
  -5   5  -4   19.72    1.43
  -5   5  -4   18.83    2.73
   5  -5   4   19.29    1.70
   5  -5   4   21.17    1.96
   5  -5   4   22.73    1.46
   5  -5   4   21.36    1.93
  -6   5  -4   19.00    2.87
  -6   5  -4   21.47    1.89
   6  -5   4   21.87    1.99
   6  -5   4   17.75    1.71
   6  -5   4   20.59    2.00
   6  -5   4   17.86    1.39
  -7   5  -4    0.89    1.02
  -7   5  -4   -0.79    1.50
   7  -5   4   -0.56    0.50
   7  -5   4    0.79    0.52
   7  -5   4    0.34    0.78
   7  -5   4    0.09    0.95
   7  -5   4    0.29    0.99
   7  -5   4   -0.89    0.43
  -8   5  -4    1.32    1.05
  -8   5  -4   -0.11    1.57
   8  -5   4    0.50    0.95
   8  -5   4   -0.08    1.02
   8   4  -4    9.74    0.91
   8   4  -4    7.02    1.71
   8   4  -4    6.88    1.48
  -8  -4   4    8.54    1.55
   7   4  -4    1.67    1.12
   7   4  -4    1.01    1.05
   7   4  -4    1.49    0.52
   7   4  -4    1.31    0.65
  -7  -4   4    0.57    1.00
   6   4  -4   31.56    2.29
   6   4  -4   28.90    2.31
   6   4  -4   23.97    2.46
   6   4  -4   28.51    1.95
  -6  -4   4   26.69    2.22
  -6  -4   4   30.28    2.49
   5   4  -4    0.17    0.67
   5   4  -4   -0.02    0.90
   5   4  -4   -0.35    0.85
   5   4  -4   -1.44    1.19
  -5  -4   4   -0.36    0.81
  -5  -4   4   -0.76    0.78
  -5  -4   4   -0.06    0.54
   4   4  -4    1.02    0.76
   4   4  -4    0.43    0.80
   4   4  -4    0.45    0.67
   4   4  -4   -0.92    0.61
   4   4  -4    0.74    0.84
   4   4  -4   -1.01    0.72
  -4  -4   4   -0.79    0.58
  -4  -4   4    0.88    0.59
  -4  -4   4    0.00    0.70
   3   4  -4    5.86    0.97
   3   4  -4    5.70    0.85
   3   4  -4    5.71    0.88
   3   4  -4    5.38    1.03
   3   4  -4    7.36    0.97
   3   4  -4    5.67    0.96
   3   4  -4    5.20    0.91
  -3  -4   4    5.93    0.93
  -3  -4   4    6.56    0.76
  -3  -4   4    5.12    0.99
  -3  -4   4    6.00    0.96
  -3  -4   4    5.68    0.88
   2   4  -4    1.70    0.61
   2   4  -4    1.58    0.61
   2   4  -4    0.95    0.69
   2   4  -4    1.66    0.58
   2   4  -4    1.88    0.74
   2   4  -4    2.04    0.57
   2   4  -4    2.00    0.71
  -2  -4   4    2.16    0.65
  -2  -4   4    1.35    0.71
  -2  -4   4    3.13    0.73
  -2  -4   4    1.90    0.46
  -2  -4   4    2.17    0.69
  -2  -4   4    1.91    0.49
   1   4  -4   55.17    3.19
   1   4  -4   51.72    3.19
   1   4  -4   52.72    3.11
   1   4  -4   51.08    3.02
   1   4  -4   51.76    3.02
   1   4  -4   57.79    3.15
   1   4  -4   50.90    3.16
   1   4  -4   57.35    3.24
  -1  -4   4   57.91    3.18
  -1  -4   4   57.73    3.35
  -1  -4   4   59.42    3.21
  -1  -4   4   55.00    3.13
  -1  -4   4   59.32    3.20
  -1  -4   4   50.56    3.09
   0   4  -4   -0.20    0.62
   0   4  -4    0.92    0.60
   0   4  -4    0.65    0.55
   0   4  -4    0.28    0.46
   0   4  -4    0.52    0.33
   0   4  -4    0.66    0.34
   0   4  -4    0.57    0.74
   0   4  -4    0.95    0.49
   0  -4   4    0.39    0.48
   0  -4   4    0.57    0.56
   0  -4   4    0.49    0.43
   0  -4   4    2.71    0.89
   0  -4   4    0.83    0.53
   0  -4   4    0.00    0.61
  -1   4  -4    5.72    0.72
  -1   4  -4    5.56    1.11
  -1   4  -4    4.61    0.75
  -1   4  -4    5.61    0.39
  -1   4  -4    6.02    0.84
  -1   4  -4    5.86    0.74
   1  -4   4    6.61    1.05
   1  -4   4    5.25    0.65
   1  -4   4    7.29    0.77
   1  -4   4    7.02    1.28
   1  -4   4    5.16    0.81
   1  -4   4    7.25    0.94
  -2   4  -4   10.50    1.14
  -2   4  -4    8.49    0.84
  -2   4  -4    7.65    1.49
  -2   4  -4    8.03    0.97
  -2   4  -4    9.39    0.85
   2  -4   4    8.92    1.41
   2  -4   4    9.91    0.92
   2  -4   4   10.17    1.03
   2  -4   4    8.05    0.75
   2  -4   4    9.06    1.00
   2  -4   4    8.52    1.08
  -3   4  -4   10.22    1.79
  -3   4  -4    8.20    0.88
  -3   4  -4    9.50    0.83
  -3   4  -4    7.38    0.99
   3  -4   4    9.20    0.97
   3  -4   4    9.19    1.14
   3  -4   4    9.07    0.78
   3  -4   4    7.85    0.93
   3  -4   4    9.63    1.10
   3  -4   4    9.12    1.50
   3  -4   4    8.88    1.19
  -4   4  -4   17.08    1.32
  -4   4  -4   14.29    1.48
  -4   4  -4   15.73    1.14
  -4   4  -4   16.26    2.11
  -4   4  -4   17.89    1.69
   4  -4   4   16.16    1.56
   4  -4   4   16.29    1.14
   4  -4   4   19.03    1.57
   4  -4   4   13.86    1.41
   4  -4   4   15.59    1.43
  -5   4  -4   21.00    1.45
  -5   4  -4   20.61    1.71
  -5   4  -4   23.89    2.61
  -5   4  -4   24.52    1.89
   5  -4   4   20.64    1.88
   5  -4   4   23.41    1.35
   5  -4   4   24.93    1.83
   5  -4   4   23.08    1.46
   5  -4   4   25.09    2.01
  -6   4  -4   57.24    3.43
   6  -4   4   51.82    3.86
   6  -4   4   51.02    2.94
   6  -4   4   55.99    2.93
   6  -4   4   59.68    3.58
   6  -4   4   50.72    2.95
   6  -4   4   48.60    2.94
  -7   4  -4    2.32    0.94
  -7   4  -4    1.74    1.70
   7  -4   4    1.18    1.06
   7  -4   4    2.55    0.56
   7  -4   4    3.08    0.60
   7  -4   4    2.75    0.66
   7  -4   4    2.95    0.55
   7  -4   4    2.53    1.01
   7  -4   4    3.93    1.03
  -8   4  -4    3.31    1.89
  -8   4  -4    0.50    0.88
   8  -4   4    3.19    1.10
   8  -4   4    1.45    0.67
   8  -4   4    2.08    1.16
   8  -4   4    2.82    1.22
   8  -4   4    1.40    0.48
   9   3  -4    0.51    1.09
   9   3  -4    5.25    1.62
   9   3  -4    1.60    1.29
  -9  -3   4    0.60    0.95
   8   3  -4    0.28    1.21
   8   3  -4    2.25    1.13
   8   3  -4    2.10    0.75
   8   3  -4   -0.83    1.41
  -8  -3   4    2.15    1.08
   7   3  -4   10.43    1.19
   7   3  -4   11.38    1.50
  -7  -3   4   11.27    1.50
  -7  -3   4   11.92    1.69
   6   3  -4   11.84    1.20
   6   3  -4   12.09    1.40
   6   3  -4    7.76    1.26
   6   3  -4   11.99    1.41
  -6  -3   4   12.64    1.47
  -6  -3   4   11.71    1.65
  -6  -3   4   10.63    0.95
   5   3  -4   51.58    2.93
   5   3  -4   52.47    3.11
   5   3  -4   48.29    3.00
  -5  -3   4   49.40    2.83
  -5  -3   4   46.34    3.09
   4   3  -4   35.40    2.36
   4   3  -4   30.99    2.16
   4   3  -4   33.78    2.29
   4   3  -4   34.02    2.31
   4   3  -4   33.09    2.24
   4   3  -4   36.99    2.26
   4   3  -4   34.76    2.16
  -4  -3   4   35.85    2.13
  -4  -3   4   32.56    2.19
  -4  -3   4   39.98    2.26
  -4  -3   4   38.14    2.40
   3   3  -4   47.77    2.97
   3   3  -4   53.30    3.09
   3   3  -4   55.30    3.32
   3   3  -4   51.69    2.92
   3   3  -4   48.37    3.09
   3   3  -4   54.00    3.01
   3   3  -4   53.13    2.98
  -3  -3   4   48.74    2.93
  -3  -3   4   51.16    2.95
  -3  -3   4   54.42    3.14
  -3  -3   4   51.17    3.13
   2   3  -4   61.57    3.33
   2   3  -4   57.68    3.44
   2   3  -4   57.46    3.40
   2   3  -4   54.94    3.34
   2   3  -4   63.42    3.35
   2   3  -4   62.41    3.20
   2   3  -4   68.90    3.34
   2   3  -4   54.82    3.36
  -2  -3   4   63.91    3.34
  -2  -3   4   59.49    3.36
  -2  -3   4   58.23    3.41
  -2  -3   4   56.39    3.46
  -2  -3   4   58.01    3.19
   1   3  -4  184.81    9.72
   1   3  -4  190.53    9.73
   1   3  -4  181.88    9.72
   1   3  -4  206.59    9.62
   1   3  -4  182.41    9.78
   1   3  -4  168.55    9.83
   1   3  -4  184.44    9.69
   1   3  -4  196.13    9.84
  -1  -3   4  192.73    9.81
  -1  -3   4  186.72    9.72
  -1  -3   4  183.73    9.67
  -1  -3   4  200.56    9.73
  -1  -3   4  186.50    9.72
  -1  -3   4  172.74    9.65
   0   3  -4   21.32    1.48
   0   3  -4   20.98    1.31
   0   3  -4   21.78    1.17
   0   3  -4   20.17    1.33
   0   3  -4   16.67    1.57
   0   3  -4   20.86    1.46
   0   3  -4   19.07    1.19
   0  -3   4   22.04    1.40
   0  -3   4   20.82    1.50
   0  -3   4   18.40    1.27
   0  -3   4   19.14    1.42
   0  -3   4   20.24    1.38
   0  -3   4   18.93    1.57
  -1   3  -4  140.29    7.50
  -1   3  -4  148.39    7.45
  -1   3  -4  142.33    7.59
  -1   3  -4  144.38    7.28
  -1   3  -4  147.72    7.79
  -1   3  -4  138.31    7.27
  -1   3  -4  150.18    7.61
   1  -3   4  142.36    7.65
   1  -3   4  142.18    7.56
   1  -3   4  140.40    7.54
   1  -3   4  144.11    7.77
   1  -3   4  148.03    7.64
   1  -3   4  144.25    7.51
   1  -3   4  140.12    7.56
  -2   3  -4   10.50    1.59
  -2   3  -4   12.16    0.99
  -2   3  -4   14.50    1.22
  -2   3  -4   12.75    0.89
  -2   3  -4   12.01    1.10
   2  -3   4   11.94    1.13
   2  -3   4   13.26    1.43
   2  -3   4   13.90    1.15
   2  -3   4   13.39    0.88
   2  -3   4   15.06    1.22
   2  -3   4   11.79    1.09
   2  -3   4   13.41    1.09
  -3   3  -4   72.27    4.10
  -3   3  -4   65.33    3.87
  -3   3  -4   69.32    3.65
  -3   3  -4   62.80    3.78
  -3   3  -4   68.88    4.36
   3  -3   4   68.22    3.64
   3  -3   4   70.98    3.98
   3  -3   4   69.74    3.55
   3  -3   4   67.81    3.88
   3  -3   4   69.96    3.97
   3  -3   4   69.63    3.86
   3  -3   4   71.03    3.93
   3  -3   4   71.48    4.30
  -4   3  -4   21.76    2.34
  -4   3  -4   23.81    1.35
  -4   3  -4   22.15    1.62
  -4   3  -4   23.66    1.69
  -4   3  -4   22.95    1.62
   4  -3   4   22.14    1.35
   4  -3   4   22.95    1.71
   4  -3   4   23.15    1.79
   4  -3   4   22.49    1.35
   4  -3   4   22.31    1.65
   4  -3   4   22.71    1.66
   4  -3   4   24.37    1.36
   4  -3   4   22.71    2.20
   4  -3   4   21.83    1.76
  -5   3  -4   -0.40    0.67
  -5   3  -4   -0.26    0.77
  -5   3  -4   -2.83    2.24
   5  -3   4   -0.44    0.32
   5  -3   4    0.54    0.70
   5  -3   4   -0.18    0.42
   5  -3   4   -1.10    0.52
   5  -3   4    0.55    0.32
   5  -3   4    0.04    0.42
   5  -3   4    0.02    0.89
   5  -3   4    0.65    0.77
  -6   3  -4    2.48    0.90
  -6   3  -4    3.55    1.54
   6  -3   4    3.67    1.12
   6  -3   4    3.49    0.97
   6  -3   4    5.46    0.93
   6  -3   4    2.15    0.66
   6  -3   4    4.16    1.04
   6  -3   4    3.21    0.68
   6  -3   4    3.22    0.48
  -7   3  -4    6.97    2.02
   7  -3   4    6.97    0.68
   7  -3   4    4.54    1.21
   7  -3   4    6.37    0.97
   7  -3   4    5.07    1.90
   7  -3   4    6.19    1.30
   7  -3   4    5.23    0.81
  -8   3  -4    1.06    0.79
  -8   3  -4    1.43    1.79
   8  -3   4    2.17    1.18
   8  -3   4    2.16    1.15
   8  -3   4    1.86    0.95
   8  -3   4    2.36    1.07
   8  -3   4    1.66    0.47
   9  -3   4    0.91    1.12
   9  -3   4    0.39    0.96
   9  -3   4    0.60    1.01
   9  -3   4    1.91    1.17
   9   2  -4    0.84    1.44
   9   2  -4    0.03    1.11
  -9  -2   4   -1.05    0.95
   8   2  -4    0.51    1.40
   8   2  -4    1.39    0.93
   8   2  -4    5.90    0.81
   8   2  -4    3.14    1.10
   8   2  -4    4.46    1.32
  -8  -2   4    3.06    1.09
   7   2  -4   29.76    1.86
   7   2  -4   32.03    2.35
   7   2  -4   28.20    2.16
   7   2  -4   22.41    1.97
  -7  -2   4   28.28    2.17
  -7  -2   4   30.56    2.43
   6   2  -4    0.67    0.68
   6   2  -4    2.20    0.75
   6   2  -4    1.62    0.94
   6   2  -4    0.61    0.36
   6   2  -4    2.27    0.60
  -6  -2   4    1.06    0.78
  -6  -2   4    0.23    0.89
   5   2  -4    5.59    0.89
   5   2  -4    8.62    0.98
   5   2  -4    7.86    1.14
   5   2  -4    8.20    1.09
   5   2  -4    9.04    1.11
   5   2  -4    6.71    1.07
   5   2  -4    7.90    1.18
  -5  -2   4    7.53    1.16
  -5  -2   4    7.84    0.90
  -5  -2   4    9.53    0.86
  -5  -2   4    7.38    1.01
   4   2  -4   60.87    3.32
   4   2  -4   59.24    3.21
   4   2  -4   59.81    3.37
   4   2  -4   49.90    3.21
   4   2  -4   54.26    3.16
   4   2  -4   56.50    3.37
   4   2  -4   61.31    3.30
  -4  -2   4   55.50    3.37
  -4  -2   4   52.67    3.19
  -4  -2   4   57.15    3.16
   3   2  -4   15.47    1.19
   3   2  -4   15.91    1.24
   3   2  -4   15.96    1.19
   3   2  -4   13.40    1.13
   3   2  -4   14.88    1.03
   3   2  -4   16.38    1.28
   3   2  -4   10.89    1.06
  -3  -2   4   13.68    1.23
  -3  -2   4   13.00    1.04
  -3  -2   4   13.45    1.04
  -3  -2   4   13.98    1.11
  -3  -2   4   16.66    1.30
   2   2  -4    5.21    0.56
   2   2  -4    4.91    0.62
   2   2  -4    5.28    0.76
   2   2  -4    5.39    0.67
   2   2  -4    5.30    0.76
   2   2  -4    4.69    0.62
   2   2  -4    6.08    0.82
  -2  -2   4    5.93    0.60
  -2  -2   4    5.52    0.59
  -2  -2   4    4.69    0.75
  -2  -2   4    6.92    0.61
  -2  -2   4    4.76    0.78
  -2  -2   4    4.97    0.72
   1   2  -4  289.23   14.92
   1   2  -4  278.12   14.89
   1   2  -4  268.32   14.78
   1   2  -4  292.01   14.91
   1   2  -4  291.10   14.84
   1   2  -4  285.59   14.91
   1   2  -4  302.60   14.87
  -1  -2   4  291.37   14.85
  -1  -2   4  290.08   14.84
  -1  -2   4  293.94   14.90
  -1  -2   4  289.45   14.81
  -1  -2   4  309.51   14.94
  -1  -2   4  298.92   14.94
  -1  -2   4  297.61   14.91
   0   2  -4   10.77    0.80
   0   2  -4   10.17    0.88
   0   2  -4    9.30    1.07
   0   2  -4   10.73    0.96
   0   2  -4    9.94    0.69
   0  -2   4   11.09    0.88
   0  -2   4   10.98    1.07
   0  -2   4    8.61    0.73
   0  -2   4   10.18    0.90
   0  -2   4   10.24    0.72
   0  -2   4   10.04    0.91
   0  -2   4   10.09    0.70
  -1   2  -4    0.66    0.56
  -1   2  -4    0.68    0.23
  -1   2  -4    0.52    0.45
  -1   2  -4    0.25    0.69
  -1   2  -4    0.28    0.42
  -1   2  -4    0.69    0.30
   1  -2   4    0.27    0.38
   1  -2   4    0.54    0.42
   1  -2   4    1.26    0.46
   1  -2   4    0.52    0.63
   1  -2   4    1.10    0.50
   1  -2   4    0.71    0.23
   1  -2   4    0.45    0.25
   1  -2   4    0.18    0.47
  -2   2  -4  142.25    7.43
  -2   2  -4  134.70    7.15
  -2   2  -4  143.82    7.38
  -2   2  -4  142.01    7.16
  -2   2  -4  141.49    7.68
  -2   2  -4  135.17    7.38
  -2   2  -4  132.29    7.33
   2  -2   4  140.30    7.65
   2  -2   4  143.76    7.43
   2  -2   4  138.83    7.15
   2  -2   4  146.32    7.17
   2  -2   4  141.28    7.36
   2  -2   4  139.79    7.37
   2  -2   4  143.25    7.42
  -3   2  -4    2.83    1.58
  -3   2  -4    2.60    0.32
  -3   2  -4    2.91    0.61
  -3   2  -4    2.93    0.96
  -3   2  -4    4.06    0.68
  -3   2  -4    2.63    0.39
  -3   2  -4    3.85    0.76
   3  -2   4    3.41    0.74
   3  -2   4    3.67    0.70
   3  -2   4    2.90    0.31
   3  -2   4    2.89    0.65
   3  -2   4    3.69    0.94
   3  -2   4    4.86    1.31
   3  -2   4    3.00    0.45
  -4   2  -4    1.03    1.06
  -4   2  -4    1.03    0.56
  -4   2  -4    1.23    0.60
  -4   2  -4   -0.07    0.75
  -4   2  -4    1.06    0.36
   4  -2   4    0.63    0.42
   4  -2   4    0.85    0.63
   4  -2   4    0.76    0.24
   4  -2   4    0.61    0.63
   4  -2   4    0.20    0.64
   4  -2   4    0.66    1.04
   4  -2   4    0.58    0.55
   4  -2   4    0.94    0.23
  -5   2  -4    3.54    1.13
  -5   2  -4    3.80    1.49
  -5   2  -4    7.31    1.14
   5  -2   4    5.12    1.03
   5  -2   4    4.89    1.63
   5  -2   4    4.01    0.80
   5  -2   4    3.69    0.46
   5  -2   4    4.48    0.73
   5  -2   4    4.16    0.97
  -6   2  -4    0.47    1.06
  -6   2  -4    0.76    0.67
  -6   2  -4    0.06    1.35
   6  -2   4    1.32    0.90
   6  -2   4    0.59    0.65
   6  -2   4    1.73    0.89
   6  -2   4    1.58    0.63
   6  -2   4    0.62    0.33
   6  -2   4    0.69    0.33
   6  -2   4    1.15    0.65
  -7   2  -4    3.51    1.31
  -7   2  -4    3.84    2.79
  -7   2  -4    3.85    0.86
   7  -2   4    3.27    0.85
   7  -2   4    2.39    0.46
   7  -2   4    2.37    0.74
   7  -2   4    2.52    0.75
   7  -2   4    1.89    1.03
   7  -2   4    2.48    1.16
  -8   2  -4    2.17    1.35
  -8   2  -4    0.70    1.49
   8  -2   4   -0.11    0.92
   8  -2   4    0.84    0.69
   8  -2   4    0.82    1.14
   8  -2   4   -0.31    0.79
   8  -2   4    0.45    0.39
  -9   2  -4    1.95    1.71
   9  -2   4    2.60    1.15
   9  -2   4    1.53    0.95
   9  -2   4    0.33    1.08
   9   1  -4    2.84    1.41
   9   1  -4    1.49    0.86
   9   1  -4    5.60    1.21
   9   1  -4    2.78    0.95
   9   1  -4    3.62    1.37
   8   1  -4    1.60    0.74
   8   1  -4    0.80    1.11
   8   1  -4    0.67    0.79
   8   1  -4    0.33    1.34
  -8  -1   4    2.43    1.06
   7   1  -4    1.33    0.76
   7   1  -4    1.80    0.63
   7   1  -4    1.47    0.94
   7   1  -4    1.84    0.72
   7   1  -4    0.82    0.66
   7   1  -4   -0.35    0.78
   7   1  -4    2.49    0.73
  -7  -1   4    0.89    0.87
  -7  -1   4    1.57    1.00
   6   1  -4   13.06    1.33
   6   1  -4   15.02    1.41
   6   1  -4   12.22    1.30
   6   1  -4   10.96    1.18
   6   1  -4   12.98    1.20
   6   1  -4   14.28    1.50
   6   1  -4   11.37    1.43
   6   1  -4   13.22    1.22
   6   1  -4   12.86    1.11
  -6  -1   4   11.38    1.55
   5   1  -4    7.24    0.79
   5   1  -4    5.59    0.89
   5   1  -4    6.25    0.88
   5   1  -4    5.76    0.97
   5   1  -4    5.51    0.96
   5   1  -4    6.05    0.87
   5   1  -4    5.19    0.88
   5   1  -4    5.25    0.92
  -5  -1   4    5.02    0.83
  -5  -1   4    6.28    1.06
  -5  -1   4    5.96    1.02
  -5  -1   4    4.94    0.78
   4   1  -4   94.47    4.89
   4   1  -4   87.73    4.77
   4   1  -4   83.26    4.63
   4   1  -4   76.55    4.58
   4   1  -4   76.78    4.58
   4   1  -4   90.49    4.78
   4   1  -4   87.32    4.68
   4   1  -4   86.87    4.81
   4   1  -4   92.88    4.75
  -4  -1   4   85.72    4.66
  -4  -1   4   89.42    4.62
  -4  -1   4   82.61    4.61
  -4  -1   4   96.74    5.47
   3   1  -4    8.22    0.92
   3   1  -4    5.75    0.75
   3   1  -4    7.47    0.89
   3   1  -4    7.25    0.80
   3   1  -4    5.74    0.68
   3   1  -4    7.43    0.80
   3   1  -4    6.72    0.58
  -3  -1   4    8.52    0.83
  -3  -1   4    6.67    0.74
  -3  -1   4    6.10    0.89
  -3  -1   4    6.62    0.62
  -3  -1   4    5.48    0.71
  -3  -1   4    6.15    0.80
   2   1  -4   88.08    4.66
   2   1  -4   84.77    4.60
   2   1  -4   90.67    4.65
   2   1  -4   80.83    4.62
   2   1  -4   89.68    4.66
   2   1  -4   86.56    4.47
   2   1  -4   90.28    4.70
  -2  -1   4   91.13    4.67
  -2  -1   4   91.48    4.49
  -2  -1   4   88.06    4.70
  -2  -1   4   81.83    4.70
  -2  -1   4   88.53    4.65
  -2  -1   4   84.86    4.60
   1   1  -4   55.97    2.97
   1   1  -4   54.10    2.91
   1   1  -4   53.99    2.90
   1   1  -4   55.36    2.96
   1   1  -4   55.52    3.02
   1   1  -4   49.66    2.87
  -1  -1   4   53.82    2.90
  -1  -1   4   52.59    2.98
  -1  -1   4   56.05    2.92
  -1  -1   4   56.79    2.98
  -1  -1   4   51.27    2.77
  -1  -1   4   48.23    2.85
  -1  -1   4   54.01    2.77
  -1  -1   4   55.12    2.95
   0   1  -4  129.39    6.65
   0   1  -4  128.28    6.72
   0   1  -4  127.74    6.69
   0   1  -4  129.25    6.64
   0   1  -4  137.22    6.74
   0   1  -4  130.29    6.85
   0   1  -4  123.45    6.61
   0  -1   4  128.37    6.84
   0  -1   4  126.32    6.70
   0  -1   4  129.09    6.73
   0  -1   4  131.20    6.64
   0  -1   4  129.58    6.71
   0  -1   4  129.26    6.65
  -1   1  -4    2.29    0.50
  -1   1  -4    2.59    0.29
  -1   1  -4    3.56    0.81
  -1   1  -4    3.05    0.54
  -1   1  -4    2.83    0.40
  -1   1  -4    3.13    0.54
  -1   1  -4    2.63    0.58
   1  -1   4    3.33    0.53
   1  -1   4    3.16    0.56
   1  -1   4    3.18    0.53
   1  -1   4    2.48    0.25
   1  -1   4    2.87    0.47
   1  -1   4    2.80    0.42
   1  -1   4    3.47    0.77
  -2   1  -4  115.69    6.34
  -2   1  -4  114.51    6.09
  -2   1  -4  114.96    5.98
  -2   1  -4  102.33    6.00
  -2   1  -4  121.05    6.05
  -2   1  -4  115.28    5.91
   2  -1   4  111.52    6.05
   2  -1   4  118.69    5.93
   2  -1   4  113.35    6.07
   2  -1   4  114.44    6.10
   2  -1   4  115.13    6.30
  -3   1  -4    0.50    0.64
  -3   1  -4    0.92    0.50
  -3   1  -4   -0.49    0.77
  -3   1  -4    0.76    0.50
  -3   1  -4    0.30    0.38
   3  -1   4    1.34    0.46
   3  -1   4    0.77    0.76
   3  -1   4    0.73    0.45
   3  -1   4    0.52    0.42
   3  -1   4    1.11    0.58
   3  -1   4    0.18    0.57
  -4   1  -4    7.23    0.73
  -4   1  -4    7.66    1.07
  -4   1  -4    8.02    0.86
  -4   1  -4    6.86    1.09
  -4   1  -4    8.51    1.55
   4  -1   4    8.17    1.39
   4  -1   4    8.26    0.51
   4  -1   4    8.17    1.06
   4  -1   4    8.26    1.33
   4  -1   4    8.58    0.86
   4  -1   4    7.11    0.77
   4  -1   4    6.60    0.96
  -5   1  -4   34.08    2.01
  -5   1  -4   32.61    2.02
  -5   1  -4   33.00    2.35
  -5   1  -4   32.36    2.31
  -5   1  -4   34.13    2.90
   5  -1   4   33.06    1.80
   5  -1   4   35.41    2.18
   5  -1   4   31.09    2.01
   5  -1   4   32.80    2.29
   5  -1   4   30.63    2.61
   5  -1   4   32.13    2.33
  -6   1  -4    6.96    3.38
  -6   1  -4    8.80    0.91
  -6   1  -4    5.34    1.34
  -6   1  -4    6.53    0.89
   6  -1   4    7.62    1.20
   6  -1   4    6.63    1.06
   6  -1   4    6.41    0.63
   6  -1   4    5.36    0.85
   6  -1   4    6.87    0.65
   6  -1   4    8.25    1.34
  -7   1  -4    0.32    1.15
  -7   1  -4   -0.91    1.21
   7  -1   4   -0.05    0.85
   7  -1   4    0.09    1.02
   7  -1   4    0.24    0.53
   7  -1   4    1.10    0.78
   7  -1   4    0.61    0.42
  -8   1  -4   -0.77    1.18
  -8   1  -4    0.49    1.54
   8  -1   4    1.27    0.38
   8  -1   4    1.82    1.22
   8  -1   4    0.35    0.97
   8  -1   4   -0.93    0.40
  -9   1  -4    0.40    1.41
  -9   1  -4    0.66    1.59
   9  -1   4   -1.26    0.93
   9  -1   4    0.18    1.03
   9  -1   4    1.10    1.34
   9   0  -4   27.51    2.08
   9   0  -4   23.90    2.16
   9   0  -4   21.96    2.23
   9   0  -4   22.23    2.42
   9   0  -4   26.62    2.19
   8   0  -4    0.02    0.77
   8   0  -4    0.46    1.30
   8   0  -4    0.15    0.85
   8   0  -4    2.49    1.07
   8   0  -4    0.96    0.64
  -8   0   4   -0.21    0.93
   7   0  -4    8.25    1.18
   7   0  -4   11.26    1.47
   7   0  -4    9.17    1.38
   7   0  -4   11.11    1.24
   7   0  -4    8.00    1.20
   7   0  -4    9.88    1.16
  -7   0   4    9.55    1.36
   6   0  -4   -0.19    0.69
   6   0  -4   -0.20    0.56
   6   0  -4    0.90    0.74
   6   0  -4    0.57    0.56
   6   0  -4    0.25    0.60
   6   0  -4    1.39    0.81
   6   0  -4    0.31    0.63
   6   0  -4    0.09    0.76
   6   0  -4    0.22    0.67
  -6   0   4    0.45    0.80
  -6   0   4   -0.24    0.72
   5   0  -4    2.08    0.56
   5   0  -4    0.32    0.57
   5   0  -4    1.66    0.72
   5   0  -4    1.56    0.62
   5   0  -4    1.70    0.70
   5   0  -4    2.98    0.70
   5   0  -4    1.80    0.66
   5   0  -4    1.38    0.52
   5   0  -4    1.09    0.60
   5   0  -4    1.55    0.58
  -5   0   4    3.65    0.69
  -5   0   4    1.56    0.71
   4   0  -4    1.31    0.44
   4   0  -4    1.71    0.61
   4   0  -4    0.62    0.57
   4   0  -4    0.61    0.57
   4   0  -4    1.10    0.56
   4   0  -4    1.19    0.53
   4   0  -4    0.67    0.55
   4   0  -4    0.78    0.48
  -4   0   4    1.00    0.58
  -4   0   4    1.44    0.61
  -4   0   4    2.03    0.61
  -4   0   4    1.00    0.46
   3   0  -4   73.39    3.69
   3   0  -4   69.79    3.76
   3   0  -4   66.99    3.77
   3   0  -4   66.54    3.70
   3   0  -4   66.59    3.69
   3   0  -4   67.40    3.65
   3   0  -4   69.98    3.57
   3   0  -4   68.60    3.74
  -3   0   4   69.29    3.76
  -3   0   4   63.27    3.65
  -3   0   4   70.18    3.74
  -3   0   4   62.13    3.70
   2   0  -4  470.66   23.67
   2   0  -4  459.18   23.56
   2   0  -4  474.54   24.06
   2   0  -4  478.44   23.75
   2   0  -4  490.72   23.74
  -2   0   4  472.27   23.75
  -2   0   4  426.63   23.74
  -2   0   4  475.14   23.75
  -2   0   4  452.93   23.80
  -2   0   4  474.28   23.67
   1   0  -4   81.37    4.05
   1   0  -4   77.69    4.20
   1   0  -4   81.65    4.15
   1   0  -4   78.68    4.20
   1   0  -4   73.03    4.12
   1   0  -4   79.98    4.10
   1   0  -4   80.38    4.20
  -1   0   4   78.14    4.31
  -1   0   4   80.74    4.05
  -1   0   4   83.75    4.20
  -1   0   4   75.88    4.18
  -1   0   4   80.12    4.11
  -1   0   4   78.97    4.21
   0   0  -4   36.19    1.99
   0   0  -4   36.02    2.30
   0   0  -4   36.92    2.02
   0   0  -4   35.92    1.91
   0   0  -4   36.06    2.05
   0   0  -4   32.28    1.93
   0   0  -4   36.66    1.98
   0   0   4   37.03    1.98
   0   0   4   34.48    2.22
   0   0   4   36.10    2.00
   0   0   4   35.66    2.00
   0   0   4   34.45    1.90
   0   0   4   37.49    2.07
   0   0   4   34.74    1.95
  -1   0  -4   51.64    2.67
  -1   0  -4   49.81    2.87
  -1   0  -4   51.79    3.13
  -1   0  -4   49.90    2.81
  -1   0  -4   53.39    2.89
   1   0   4   52.34    2.88
   1   0   4   55.16    3.15
   1   0   4   50.55    2.78
   1   0   4   52.45    2.81
   1   0   4   52.25    2.82
   1   0   4   54.04    2.69
   1   0   4   48.31    2.87
  -2   0  -4    9.63    0.91
  -2   0  -4    8.19    0.98
  -2   0  -4    9.79    0.81
  -2   0  -4    8.19    1.35
  -2   0  -4   10.02    0.54
   2   0   4   11.58    1.00
   2   0   4   10.92    0.88
   2   0   4    9.49    0.54
   2   0   4    8.79    0.86
   2   0   4   10.39    0.86
   2   0   4    9.05    0.76
   2   0   4    9.60    1.37
  -3   0  -4    3.97    0.57
  -3   0  -4    5.35    0.83
  -3   0  -4    7.11    0.72
  -3   0  -4    5.28    1.08
  -3   0  -4    5.17    0.90
   3   0   4    5.30    0.69
   3   0   4    5.20    0.52
   3   0   4    7.76    1.19
   3   0   4    4.29    0.57
   3   0   4    5.63    0.89
   3   0   4    6.95    0.91
   3   0   4    7.00    0.80
  -4   0  -4  176.06    8.92
  -4   0  -4  179.28    9.07
  -4   0  -4  173.80    9.36
  -4   0  -4  189.44    9.66
  -4   0  -4  171.72    9.28
   4   0   4  182.63    9.39
   4   0   4  168.48    8.84
   4   0   4  178.36    9.12
   4   0   4  170.85    9.21
   4   0   4  163.36    9.17
   4   0   4  164.88    9.42
   4   0   4  165.34    8.91
   4   0   4  174.07    8.85
  -5   0  -4   12.51    1.55
  -5   0  -4   14.11    1.99
  -5   0  -4   12.01    1.19
  -5   0  -4   14.33    1.00
   5   0   4   14.20    1.51
   5   0   4   13.83    0.94
   5   0   4   14.62    1.28
   5   0   4   14.88    0.94
   5   0   4   14.39    1.38
   5   0   4   14.42    1.80
   5   0   4   15.69    1.47
  -6   0  -4   -1.61    1.13
  -6   0  -4   -0.51    1.02
   6   0   4   -0.09    0.85
   6   0   4   -0.07    0.41
   6   0   4   -0.29    0.70
   6   0   4    0.21    0.70
   6   0   4   -0.12    0.39
  -7   0  -4    1.09    1.38
  -7   0  -4   -0.27    1.10
   7   0   4    0.95    0.44
   7   0   4    0.95    1.06
   7   0   4    0.17    0.90
   7   0   4    0.91    0.48
   7   0   4    1.14    0.87
   7   0   4    1.40    0.44
  -8   0  -4    1.13    1.31
  -8   0  -4    1.44    1.56
   8   0   4    1.23    0.53
   8   0   4    2.44    0.77
   8   0   4    1.46    1.05
   8   0   4    0.93    0.98
   8   0   4    2.82    1.31
  -9   0  -4    1.32    1.45
   9   0   4    2.42    1.42
   9   0   4    1.99    1.25
   9   0   4    2.18    1.17
  10  -1  -4    0.74    1.04
  10  -1  -4    0.25    0.96
  10  -1  -4   -0.24    0.90
  10  -1  -4    0.27    0.92
   9  -1  -4   45.58    2.91
   9  -1  -4   47.14    3.07
   9  -1  -4   40.79    2.97
   9  -1  -4   44.93    3.11
   9  -1  -4   39.91    3.29
   9  -1  -4   37.98    2.84
   8  -1  -4   17.88    1.64
   8  -1  -4   16.20    1.55
   8  -1  -4   17.52    2.25
   8  -1  -4   19.92    1.70
   8  -1  -4   19.77    2.07
   7  -1  -4    7.43    1.02
   7  -1  -4    9.35    1.16
   7  -1  -4    8.50    1.60
   7  -1  -4   10.88    1.44
   7  -1  -4   10.55    1.27
   7  -1  -4    6.53    1.26
   7  -1  -4    9.91    1.20
   7  -1  -4   11.70    1.21
   7  -1  -4    8.38    1.67
   6  -1  -4   56.12    3.63
   6  -1  -4   69.62    3.66
   6  -1  -4   56.63    3.62
   6  -1  -4   51.63    3.65
   6  -1  -4   69.00    3.67
   6  -1  -4   64.87    3.89
   6  -1  -4   67.28    3.72
   6  -1  -4   58.07    3.74
   6  -1  -4   63.07    3.95
   6  -1  -4   71.87    4.00
  -6   1   4   66.33    3.81
   5  -1  -4  154.56    8.59
   5  -1  -4  161.29    8.39
   5  -1  -4  157.54    8.34
   5  -1  -4  157.67    8.47
   5  -1  -4  158.45    8.48
   5  -1  -4  156.48    8.40
   5  -1  -4  153.66    8.41
   5  -1  -4  160.66    8.38
   5  -1  -4  172.47    8.61
  -5   1   4  167.87    8.55
  -5   1   4  155.80    8.45
   4  -1  -4    5.81    0.87
   4  -1  -4    7.12    1.10
   4  -1  -4    6.19    0.79
   4  -1  -4    5.12    0.78
   4  -1  -4    5.55    0.79
   4  -1  -4    6.00    0.68
   4  -1  -4    6.35    1.01
   4  -1  -4    6.83    0.84
   4  -1  -4    6.68    0.72
   4  -1  -4    6.97    0.88
  -4   1   4    5.66    0.91
  -4   1   4    7.47    0.91
   3  -1  -4   35.17    2.09
   3  -1  -4   35.16    1.98
   3  -1  -4   34.69    2.27
   3  -1  -4   37.56    2.13
   3  -1  -4   34.72    2.08
   3  -1  -4   33.00    1.97
   3  -1  -4   35.76    2.13
   3  -1  -4   33.98    2.07
  -3   1   4   33.78    2.07
  -3   1   4   36.03    2.26
  -3   1   4   35.90    2.11
  -3   1   4   36.59    2.10
   2  -1  -4   50.06    2.83
   2  -1  -4   52.60    2.65
   2  -1  -4   49.80    2.71
   2  -1  -4   51.30    2.78
   2  -1  -4   51.12    3.03
   2  -1  -4   48.66    2.77
   2  -1  -4   50.99    2.84
  -2   1   4   53.25    2.99
  -2   1   4   51.93    2.80
  -2   1   4   50.79    2.78
  -2   1   4   49.46    2.69
  -2   1   4   47.53    2.78
  -2   1   4   53.14    2.83
   1  -1  -4   12.56    0.88
   1  -1  -4   12.25    0.93
   1  -1  -4   13.44    1.36
   1  -1  -4   11.52    0.89
   1  -1  -4   12.84    0.82
   1  -1  -4   11.63    0.81
  -1   1   4   12.26    0.81
  -1   1   4   12.24    0.91
  -1   1   4   11.43    0.80
  -1   1   4   12.25    1.22
  -1   1   4   11.83    0.87
  -1   1   4   11.73    0.89
  -1   1   4   10.53    0.64
   0  -1  -4   25.81    1.89
   0  -1  -4   26.45    1.61
   0  -1  -4   27.38    1.61
   0  -1  -4   28.79    1.66
   0  -1  -4   27.69    1.61
   0  -1  -4   25.25    1.52
   0   1   4   27.18    1.54
   0   1   4   28.04    1.64
   0   1   4   27.92    1.61
   0   1   4   26.37    1.62
   0   1   4   28.01    2.08
   0   1   4   28.34    1.64
   0   1   4   25.54    1.48
  -1  -1  -4  133.09    7.96
  -1  -1  -4  156.33    7.89
  -1  -1  -4  161.23    8.24
  -1  -1  -4  156.87    7.88
  -1  -1  -4  158.63    8.05
  -1  -1  -4  152.09    7.99
   1   1   4  153.82    8.00
   1   1   4  148.24    7.87
   1   1   4  151.16    8.19
   1   1   4  154.23    7.87
   1   1   4  161.97    8.01
   1   1   4  161.99    8.05
  -2  -1  -4  932.16   47.74
  -2  -1  -4  951.42   47.58
  -2  -1  -4 1000.00   47.77
  -2  -1  -4  938.93   47.59
   2   1   4  944.64   47.79
   2   1   4  925.40   47.61
   2   1   4  912.98   47.75
  -3  -1  -4  159.63    8.61
  -3  -1  -4  180.79    8.40
  -3  -1  -4  146.95    8.29
  -3  -1  -4  143.54    8.12
  -3  -1  -4  162.76    8.15
  -3  -1  -4  169.03    9.20
   3   1   4  159.00    8.59
   3   1   4  160.44    8.46
   3   1   4  153.15    8.06
   3   1   4  159.82    8.14
   3   1   4  140.47    8.81
   3   1   4  169.65    8.37
  -4  -1  -4    1.72    1.43
  -4  -1  -4    0.77    0.54
  -4  -1  -4    0.87    0.78
  -4  -1  -4    1.39    0.59
  -4  -1  -4    1.52    0.84
   4   1   4   -0.40    0.87
   4   1   4    1.61    0.77
   4   1   4    1.89    0.75
   4   1   4    1.81    0.42
   4   1   4    1.06    0.22
   4   1   4    1.09    0.77
  -5  -1  -4   -0.31    1.00
  -5  -1  -4   -0.34    0.53
  -5  -1  -4   -2.03    1.44
  -5  -1  -4    0.63    0.37
   5   1   4    0.37    0.89
   5   1   4    1.07    0.87
   5   1   4    0.42    0.42
  -6  -1  -4    2.34    1.33
  -6  -1  -4    2.22    1.17
   6   1   4    0.01    1.03
   6   1   4    2.25    0.59
   6   1   4    4.24    1.19
   6   1   4    2.39    0.56
   6   1   4    2.70    1.04
  -7  -1  -4   -0.03    1.27
  -7  -1  -4   -0.62    1.08
   7   1   4    0.70    0.46
   7   1   4   -0.16    0.83
   7   1   4   -0.62    0.87
   7   1   4    0.77    0.55
   7   1   4    1.64    1.11
  -8  -1  -4    1.22    1.33
  -8  -1  -4   -0.63    1.18
   8   1   4    3.18    1.34
   8   1   4    0.62    0.97
   8   1   4    2.08    0.69
   8   1   4    1.10    1.19
  10  -2  -4    0.96    1.01
  10  -2  -4    0.96    1.04
  10  -2  -4    0.09    0.98
  10  -2  -4    2.59    1.11
  10  -2  -4    0.88    0.98
  10  -2  -4    1.22    1.01
   9  -2  -4   -0.16    0.83
   9  -2  -4    0.44    0.95
   9  -2  -4    0.99    1.17
   9  -2  -4    0.79    0.99
   9  -2  -4    0.57    0.80
   9  -2  -4    0.85    0.93
   8  -2  -4   28.32    3.59
   8  -2  -4   28.23    2.16
   8  -2  -4   29.92    2.24
   8  -2  -4   30.14    2.24
   8  -2  -4   31.43    2.30
   8  -2  -4   30.09    2.36
   8  -2  -4   37.49    2.34
   7  -2  -4   53.76    3.53
   7  -2  -4   65.14    3.79
   7  -2  -4   57.29    3.52
   7  -2  -4   65.12    4.63
   7  -2  -4   53.55    3.48
   7  -2  -4   56.24    3.48
   7  -2  -4   58.41    4.02
   7  -2  -4   59.12    4.01
   7  -2  -4   59.31    3.50
   6  -2  -4  115.72    6.50
   6  -2  -4  118.27    6.46
   6  -2  -4  135.69    6.46
   6  -2  -4  125.46    6.83
   6  -2  -4  119.86    6.94
   6  -2  -4  119.98    6.51
   6  -2  -4  109.67    6.73
   6  -2  -4  114.76    6.48
   6  -2  -4  114.76    6.53
   5  -2  -4   42.34    2.97
   5  -2  -4   41.63    3.25
   5  -2  -4   44.90    2.66
   5  -2  -4   42.47    2.60
   5  -2  -4   43.58    2.57
   5  -2  -4   42.49    2.51
   5  -2  -4   43.38    2.62
   5  -2  -4   38.68    2.59
   5  -2  -4   45.37    2.65
   5  -2  -4   43.76    2.61
  -5   2   4   45.56    2.61
  -5   2   4   41.61    2.60
  -5   2   4   43.11    2.61
   4  -2  -4   16.18    1.19
   4  -2  -4   13.39    1.60
   4  -2  -4   19.53    1.27
   4  -2  -4   17.86    1.26
   4  -2  -4   15.74    1.12
   4  -2  -4   16.74    1.22
   4  -2  -4   14.77    1.57
   4  -2  -4   17.88    1.29
   4  -2  -4   13.70    1.42
   4  -2  -4   15.03    1.28
  -4   2   4   17.28    1.25
  -4   2   4   17.22    1.30
  -4   2   4   17.64    1.31
   3  -2  -4    0.56    0.52
   3  -2  -4    0.26    0.30
   3  -2  -4    0.06    0.59
   3  -2  -4   -0.37    0.50
   3  -2  -4   -0.61    0.34
   3  -2  -4   -0.76    0.68
   3  -2  -4    0.13    0.51
   3  -2  -4   -0.15    0.43
  -3   2   4   -0.44    0.35
  -3   2   4   -0.24    0.36
  -3   2   4    0.26    0.46
  -3   2   4    0.18    0.47
  -3   2   4    0.07    0.80
   2  -2  -4    0.47    0.17
   2  -2  -4   -0.50    0.52
   2  -2  -4    0.40    0.33
   2  -2  -4    0.35    0.42
   2  -2  -4    0.21    0.34
   2  -2  -4    0.26    0.43
   2  -2  -4    0.04    0.75
   2  -2  -4   -0.32    0.36
  -2   2   4   -0.02    0.47
  -2   2   4    0.41    0.63
  -2   2   4   -0.28    0.55
  -2   2   4   -0.21    0.43
  -2   2   4   -0.02    0.36
   1  -2  -4   25.77    1.59
   1  -2  -4   25.88    1.50
   1  -2  -4   26.53    1.58
   1  -2  -4   24.27    1.57
   1  -2  -4   29.12    1.99
   1  -2  -4   25.38    1.59
   1  -2  -4   22.83    1.56
  -1   2   4   26.51    1.53
  -1   2   4   26.64    1.59
  -1   2   4   23.89    1.80
  -1   2   4   26.02    1.59
  -1   2   4   27.61    1.62
  -1   2   4   26.94    1.37
   0  -2  -4  502.34   25.40
   0  -2  -4  482.23   25.13
   0  -2  -4  471.98   25.12
   0  -2  -4  500.04   25.27
   0  -2  -4  515.85   25.23
   0  -2  -4  501.72   25.24
   0   2   4  483.69   25.15
   0   2   4  505.87   25.40
   0   2   4  519.64   25.23
   0   2   4  492.22   25.15
   0   2   4  481.05   25.22
  -1  -2  -4  219.65   10.85
  -1  -2  -4  182.51   10.42
  -1  -2  -4  196.51   10.44
  -1  -2  -4  214.90   10.67
  -1  -2  -4  193.75   10.59
  -1  -2  -4  194.66   10.52
   1   2   4  212.94   10.62
   1   2   4  209.90   10.57
   1   2   4  210.59   10.66
   1   2   4  212.14   10.51
   1   2   4  206.02   10.79
  -2  -2  -4  213.68   11.04
  -2  -2  -4  197.66   10.90
  -2  -2  -4  206.96   10.80
  -2  -2  -4  207.61   10.89
  -2  -2  -4  206.94   10.66
  -2  -2  -4  220.09   11.18
   2   2   4  216.45   10.97
   2   2   4  203.59   10.92
   2   2   4  211.45   11.02
   2   2   4  217.77   10.81
   2   2   4  212.93   11.12
  -3  -2  -4    0.92    0.88
  -3  -2  -4    0.10    0.70
  -3  -2  -4    0.38    0.33
  -3  -2  -4    0.68    0.53
  -3  -2  -4    0.27    0.75
   3   2   4    1.31    0.83
   3   2   4   -0.01    0.60
   3   2   4    0.29    0.60
   3   2   4    0.81    0.45
   3   2   4    0.67    0.65
  -4  -2  -4   31.58    2.23
  -4  -2  -4   34.35    3.16
  -4  -2  -4   29.99    1.82
  -4  -2  -4   31.87    2.03
   4   2   4   29.95    2.17
   4   2   4   27.01    2.35
   4   2   4   32.17    1.86
   4   2   4   29.00    2.10
   4   2   4   30.63    2.12
   4   2   4   27.61    2.15
  -5  -2  -4   76.17    4.61
  -5  -2  -4   90.22    5.20
  -5  -2  -4   88.71    5.27
   5   2   4   95.66    5.10
   5   2   4   86.90    4.68
   5   2   4   89.74    5.04
   5   2   4   79.48    5.63
  -6  -2  -4    1.61    0.30
  -6  -2  -4    3.25    1.19
   6   2   4    2.72    1.20
   6   2   4    2.73    1.14
   6   2   4    1.16    1.14
  -7  -2  -4    7.00    1.57
  -7  -2  -4    9.46    2.55
   7   2   4    7.61    1.04
   7   2   4    9.28    1.65
   7   2   4    8.99    1.61
  -8  -2  -4    2.66    1.41
   8   2   4    1.00    0.73
   8   2   4    1.75    1.25
   8   2   4    2.31    2.04
   8   2   4    0.99    1.25
   9  -3  -4   17.75    2.34
   9  -3  -4   12.18    1.66
   9  -3  -4   13.56    1.48
   9  -3  -4   13.55    1.59
   9  -3  -4   11.35    1.70
   9  -3  -4   14.09    1.51
   8  -3  -4   25.94    2.10
   8  -3  -4   20.27    2.09
   8  -3  -4   21.96    2.00
   8  -3  -4   21.94    1.80
   8  -3  -4   21.55    1.94
   8  -3  -4   24.82    2.55
   8  -3  -4   22.39    1.88
   7  -3  -4   39.92    2.71
   7  -3  -4   37.38    2.53
   7  -3  -4   35.55    3.94
   7  -3  -4   41.03    2.99
   7  -3  -4   40.75    2.52
   7  -3  -4   34.73    2.60
   6  -3  -4    2.58    0.94
   6  -3  -4    2.22    0.80
   6  -3  -4    1.69    0.78
   6  -3  -4    1.39    0.92
   6  -3  -4    3.51    1.54
   6  -3  -4    1.34    0.66
   6  -3  -4    2.26    0.88
   6  -3  -4    1.45    1.25
   6  -3  -4    2.03    0.73
   6  -3  -4    1.84    0.79
  -6   3   4    1.90    0.77
  -6   3   4    2.09    0.81
   5  -3  -4    6.75    0.90
   5  -3  -4    7.09    1.36
   5  -3  -4    6.15    0.93
   5  -3  -4    7.61    0.96
   5  -3  -4    9.13    1.49
   5  -3  -4    5.87    0.84
   5  -3  -4    9.97    1.24
   5  -3  -4    7.21    0.85
   5  -3  -4    7.28    1.01
   5  -3  -4    6.66    0.93
  -5   3   4    7.05    0.97
  -5   3   4    5.88    0.87
   4  -3  -4   26.70    1.88
   4  -3  -4   28.36    1.85
   4  -3  -4   28.59    1.87
   4  -3  -4   26.45    1.65
   4  -3  -4   26.84    2.20
   4  -3  -4   26.24    1.74
   4  -3  -4   27.52    1.66
   4  -3  -4   24.58    2.22
   4  -3  -4   26.65    1.77
  -4   3   4   28.90    1.81
  -4   3   4   26.30    1.65
  -4   3   4   27.64    1.80
  -4   3   4   26.30    1.74
   3  -3  -4    0.08    0.46
   3  -3  -4   -0.46    0.28
   3  -3  -4   -0.58    0.73
   3  -3  -4   -0.04    0.52
   3  -3  -4   -1.06    0.49
   3  -3  -4   -0.50    0.46
   3  -3  -4   -0.70    0.51
  -3   3   4   -0.82    0.45
  -3   3   4    0.22    0.40
  -3   3   4   -1.16    0.90
  -3   3   4   -0.38    0.35
  -3   3   4   -0.03    0.42
  -3   3   4   -0.51    0.46
   2  -3  -4  196.43   10.09
   2  -3  -4  198.50    9.90
   2  -3  -4  197.56   10.08
   2  -3  -4  200.21    9.91
   2  -3  -4  190.31   10.10
   2  -3  -4  200.25   10.13
  -2   3   4  204.08   10.12
  -2   3   4  193.83   10.10
  -2   3   4  192.10    9.90
  -2   3   4  200.88   10.10
  -2   3   4  177.81    9.87
  -2   3   4  180.56   10.07
   1  -3  -4  180.26    9.80
   1  -3  -4  170.06    9.65
   1  -3  -4  178.17    9.77
   1  -3  -4  201.18    9.68
   1  -3  -4  182.22    9.81
   1  -3  -4  203.10    9.91
   1  -3  -4  200.40   10.15
   1  -3  -4  184.78    9.80
  -1   3   4  176.23   10.02
  -1   3   4  198.76    9.86
  -1   3   4  201.65    9.68
  -1   3   4  181.09    9.85
  -1   3   4  198.71    9.84
  -1   3   4  194.58    9.68
   0  -3  -4   30.05    1.91
   0  -3  -4   31.07    1.84
   0  -3  -4   31.58    2.03
   0  -3  -4   29.63    1.83
   0  -3  -4   35.78    1.81
   0  -3  -4   30.39    2.42
   0  -3  -4   26.22    1.84
   0   3   4   28.17    1.79
   0   3   4   32.92    1.87
   0   3   4   32.11    1.81
   0   3   4   32.00    2.22
   0   3   4   30.91    2.02
   0   3   4   30.73    1.94
  -1  -3  -4    2.30    0.46
  -1  -3  -4    5.00    1.13
  -1  -3  -4    3.12    0.77
  -1  -3  -4    3.62    0.59
  -1  -3  -4    2.52    0.46
  -1  -3  -4    3.43    0.66
  -1  -3  -4    2.81    0.66
   1   3   4    3.23    0.61
   1   3   4    3.01    0.71
   1   3   4    2.79    0.59
   1   3   4    2.69    0.89
   1   3   4    4.86    0.76
   1   3   4    2.76    0.59
  -2  -3  -4   14.82    1.28
  -2  -3  -4   13.06    1.18
  -2  -3  -4   16.60    0.91
  -2  -3  -4   14.78    0.90
  -2  -3  -4   14.43    1.10
  -2  -3  -4   17.04    1.76
  -2  -3  -4   17.83    1.43
   2   3   4   14.90    1.13
   2   3   4   13.10    1.53
   2   3   4   13.20    1.26
   2   3   4   15.75    1.22
   2   3   4   14.66    1.29
   2   3   4   14.26    1.37
  -3  -3  -4   26.19    1.92
  -3  -3  -4   27.57    2.14
  -3  -3  -4   30.77    1.85
  -3  -3  -4   27.20    2.33
   3   3   4   32.13    2.05
   3   3   4   31.64    1.85
   3   3   4   29.55    2.26
   3   3   4   29.91    2.05
   3   3   4   27.85    2.20
   3   3   4   27.13    2.10
  -4  -3  -4   93.39    5.24
  -4  -3  -4   93.59    6.38
   4   3   4  113.57    6.33
   4   3   4   89.13    5.63
   4   3   4  104.21    5.74
  -5  -3  -4   38.47    2.86
  -5  -3  -4   35.97    2.29
  -5  -3  -4   37.65    2.97
   5   3   4   38.87    2.74
   5   3   4   34.46    3.12
   5   3   4   37.87    2.36
  -6  -3  -4   44.58    3.32
  -6  -3  -4   47.04    3.38
   6   3   4   45.04    3.22
   6   3   4   42.83    2.77
   6   3   4   46.54    3.22
  -7  -3  -4    2.19    1.53
   7   3   4    2.33    1.28
   7   3   4    5.00    1.40
   7   3   4    2.57    0.89
  -8  -3  -4    0.85    2.12
   8   3   4   -0.27    0.75
   8   3   4    0.64    1.22
   8   3   4    1.48    2.08
   9  -4  -4    1.95    0.86
   9  -4  -4    1.99    1.31
   9  -4  -4    1.27    0.95
   9  -4  -4    2.02    1.10
   9  -4  -4    2.16    0.90
   9  -4  -4    1.71    1.01
   9  -4  -4    2.29    1.03
   8  -4  -4    2.78    1.58
   8  -4  -4    4.92    1.09
   8  -4  -4    4.46    0.94
   8  -4  -4    5.32    1.57
   8  -4  -4    4.00    1.06
   8  -4  -4    6.20    1.04
   7  -4  -4    3.90    1.04
   7  -4  -4    6.17    1.31
   7  -4  -4    3.07    1.38
   7  -4  -4    5.49    0.93
   7  -4  -4    6.35    0.96
   7  -4  -4    4.64    1.01
  -7   4   4    5.61    1.03
   6  -4  -4    0.58    0.64
   6  -4  -4    0.52    0.65
   6  -4  -4    0.50    0.85
   6  -4  -4    0.25    0.52
   6  -4  -4   -0.18    1.00
   6  -4  -4   -0.75    1.11
   6  -4  -4    0.62    0.63
  -6   4   4    0.78    1.17
  -6   4   4    0.34    0.68
   5  -4  -4    0.43    0.69
   5  -4  -4    0.58    0.59
   5  -4  -4    0.74    0.61
   5  -4  -4    0.58    0.63
   5  -4  -4    0.10    0.54
   5  -4  -4    1.61    1.10
   5  -4  -4   -0.34    0.42
   5  -4  -4    0.38    0.56
  -5   4   4   -0.75    0.58
  -5   4   4    0.81    0.64
  -5   4   4   -0.48    0.72
   4  -4  -4   -0.29    0.91
   4  -4  -4    0.70    0.65
   4  -4  -4   -0.08    0.56
   4  -4  -4   -0.27    0.31
   4  -4  -4    0.73    0.66
   4  -4  -4   -0.02    0.44
   4  -4  -4   -0.32    0.84
   4  -4  -4   -0.12    0.52
  -4   4   4   -0.13    0.56
  -4   4   4    0.79    0.59
  -4   4   4    0.34    0.70
  -4   4   4   -0.13    0.52
   3  -4  -4    3.29    0.71
   3  -4  -4    3.01    0.67
   3  -4  -4    3.62    0.40
   3  -4  -4    3.99    1.12
   3  -4  -4    3.36    0.54
   3  -4  -4    3.59    0.87
  -3   4   4    4.18    0.86
  -3   4   4    4.80    0.74
  -3   4   4    4.08    0.47
  -3   4   4    3.60    0.66
  -3   4   4    3.21    0.66
   2  -4  -4    2.34    0.66
   2  -4  -4    1.92    0.94
   2  -4  -4    2.69    0.45
   2  -4  -4    1.74    0.60
   2  -4  -4    3.19    0.66
   2  -4  -4    3.32    0.28
   2  -4  -4    3.18    0.78
  -2   4   4    1.78    0.28
  -2   4   4    2.78    0.67
  -2   4   4    2.52    0.66
  -2   4   4    1.96    0.63
  -2   4   4    2.75    0.99
  -2   4   4    2.59    0.41
   1  -4  -4    5.03    0.77
   1  -4  -4    5.10    0.77
   1  -4  -4    6.26    0.65
   1  -4  -4    6.52    1.49
   1  -4  -4    5.39    0.53
   1  -4  -4    5.93    0.94
   1  -4  -4    5.90    0.74
  -1   4   4    6.54    1.13
  -1   4   4    5.23    0.77
  -1   4   4    5.81    0.62
  -1   4   4    5.85    0.82
  -1   4   4    6.41    1.34
  -1   4   4    5.88    0.54
  -1   4   4    5.03    0.84
   0  -4  -4   44.50    2.71
   0  -4  -4   43.63    2.80
   0  -4  -4   43.28    2.73
   0  -4  -4   50.17    3.22
   0  -4  -4   45.49    2.65
   0   4   4   42.93    2.63
   0   4   4   48.62    2.67
   0   4   4   44.62    2.76
   0   4   4   49.26    3.02
   0   4   4   49.53    2.59
   0   4   4   47.99    2.86
  -1  -4  -4   12.68    1.08
  -1  -4  -4   14.56    1.35
  -1  -4  -4   13.43    0.96
  -1  -4  -4   13.30    1.70
  -1  -4  -4   12.23    0.94
  -1  -4  -4   11.37    1.08
   1   4   4   13.59    1.21
   1   4   4   12.78    1.31
   1   4   4   11.78    1.32
   1   4   4   12.51    1.13
   1   4   4   11.96    1.07
   1   4   4   12.89    1.44
   1   4   4   13.26    1.04
  -2  -4  -4   10.52    1.05
  -2  -4  -4   12.81    1.15
  -2  -4  -4   13.02    1.40
  -2  -4  -4   11.85    0.87
  -2  -4  -4   15.56    1.81
   2   4   4   13.04    1.59
   2   4   4   11.88    1.39
   2   4   4   12.52    1.54
   2   4   4   10.84    1.13
   2   4   4   14.20    1.16
   2   4   4   12.27    1.11
   2   4   4   10.98    1.23
  -3  -4  -4  104.91    5.73
  -3  -4  -4   95.12    6.54
  -3  -4  -4   99.66    5.88
   3   4   4  109.64    5.70
   3   4   4   93.57    5.78
   3   4   4  106.67    5.58
   3   4   4  118.49    5.72
   3   4   4   98.87    5.85
   3   4   4   91.23    5.67
  -4  -4  -4   44.14    3.56
  -4  -4  -4   53.44    3.56
  -4  -4  -4   50.58    3.08
   4   4   4   62.20    3.54
   4   4   4   52.59    3.54
   4   4   4   55.29    3.20
  -5  -4  -4   12.20    1.86
  -5  -4  -4   13.37    1.79
   5   4   4   13.70    1.54
   5   4   4   17.01    1.73
   5   4   4    8.47    2.03
  -6  -4  -4   30.74    2.58
  -6  -4  -4   36.00    2.92
   6   4   4   42.07    2.88
   6   4   4   35.47    2.43
   6   4   4   33.68    2.72
  -7  -4  -4    6.22    1.61
   7   4   4    3.90    1.02
   7   4   4    5.68    1.53
   7   4   4    6.44    1.56
   9  -5  -4    1.55    1.14
   9  -5  -4   -0.64    1.35
   9  -5  -4    0.19    0.77
   9  -5  -4    0.11    0.82
   9  -5  -4   -0.08    0.93
   9  -5  -4    1.63    0.83
   9  -5  -4    0.50    0.99
   8  -5  -4    1.14    1.26
   8  -5  -4   -0.50    1.06
   8  -5  -4   -0.30    0.88
   8  -5  -4    0.67    0.70
   8  -5  -4   -1.22    0.71
   8  -5  -4   -0.05    0.68
  -8   5   4    0.94    0.86
   7  -5  -4    1.10    0.59
   7  -5  -4    1.76    0.53
   7  -5  -4    0.44    0.75
   7  -5  -4    0.82    0.93
   7  -5  -4    0.46    1.17
   7  -5  -4    0.39    1.09
  -7   5   4    0.92    0.73
  -7   5   4    0.14    0.78
   6  -5  -4   18.93    1.38
   6  -5  -4   19.19    1.84
   6  -5  -4   24.81    2.54
   6  -5  -4   22.43    1.98
   6  -5  -4   18.23    1.64
   6  -5  -4   17.31    1.54
   6  -5  -4   19.24    1.39
  -6   5   4   20.54    1.62
  -6   5   4   21.17    1.71
  -6   5   4   20.33    1.85
   5  -5  -4    2.93    0.42
   5  -5  -4    2.36    0.93
   5  -5  -4    1.69    1.21
   5  -5  -4    1.94    0.72
   5  -5  -4    1.39    0.41
   5  -5  -4    1.97    0.73
  -5   5   4    2.10    0.82
  -5   5   4    2.16    0.72
  -5   5   4    2.96    1.01
   4  -5  -4    3.44    0.95
   4  -5  -4    2.84    0.68
   4  -5  -4    2.40    1.21
   4  -5  -4    3.00    0.74
  -4   5   4    3.43    0.54
  -4   5   4    4.20    0.84
  -4   5   4    3.02    0.87
  -4   5   4    1.60    1.05
  -4   5   4    3.42    0.93
   3  -5  -4   26.02    2.40
   3  -5  -4   25.71    1.83
   3  -5  -4   26.67    1.97
   3  -5  -4   23.46    1.86
   3  -5  -4   24.19    1.72
   3  -5  -4   26.34    1.65
   3  -5  -4   24.34    2.42
  -3   5   4   23.61    1.56
  -3   5   4   24.00    1.81
  -3   5   4   27.03    1.92
  -3   5   4   27.05    1.88
  -3   5   4   26.94    1.83
   2  -5  -4   33.99    2.84
   2  -5  -4   35.48    2.13
   2  -5  -4   36.34    2.30
   2  -5  -4   33.89    2.22
   2  -5  -4   36.89    2.45
  -2   5   4   35.92    2.32
  -2   5   4   35.18    2.35
  -2   5   4   34.99    2.10
  -2   5   4   37.74    2.34
  -2   5   4   37.03    2.51
   1  -5  -4    0.58    0.52
   1  -5  -4    1.38    0.51
   1  -5  -4    0.97    1.11
   1  -5  -4    1.13    0.79
   1  -5  -4    2.55    0.59
   1  -5  -4    1.06    0.58
  -1   5   4    1.38    0.69
  -1   5   4    1.77    0.68
  -1   5   4    1.64    0.69
  -1   5   4    2.60    1.37
  -1   5   4    1.41    0.71
  -1   5   4    1.54    0.30
  -1   5   4    0.99    0.50
  -1   5   4    1.18    0.26
   0  -5  -4   71.32    3.86
   0  -5  -4   60.85    4.03
   0  -5  -4   57.69    3.51
   0  -5  -4   59.54    3.59
   0  -5  -4   67.11    3.57
   0  -5  -4   65.34    4.11
   0   5   4   59.36    3.73
   0   5   4   63.02    3.40
   0   5   4   58.57    3.61
   0   5   4   64.11    3.56
   0   5   4   61.05    3.52
   0   5   4   63.43    4.16
   0   5   4   60.63    3.63
  -1  -5  -4   56.17    3.77
  -1  -5  -4   62.00    3.28
  -1  -5  -4   47.79    3.06
  -1  -5  -4   54.11    3.47
  -1  -5  -4   52.16    3.23
   1   5   4   54.23    3.32
   1   5   4   49.25    3.45
   1   5   4   56.81    3.29
   1   5   4   64.37    3.63
   1   5   4   56.10    3.14
   1   5   4   50.35    3.24
   1   5   4   54.60    3.13
  -2  -5  -4    3.26    1.28
  -2  -5  -4    1.56    1.63
  -2  -5  -4    0.23    0.49
  -2  -5  -4    0.87    0.66
   2   5   4    0.75    0.91
   2   5   4    0.72    0.75
   2   5   4    0.98    0.90
   2   5   4    0.64    0.71
   2   5   4    1.18    0.62
   2   5   4    1.74    0.79
  -3  -5  -4   78.33    5.04
  -3  -5  -4   86.05    5.30
   3   5   4   93.84    4.94
   3   5   4   81.41    4.84
   3   5   4   81.42    4.87
   3   5   4   93.45    5.07
  -4  -5  -4    9.35    1.79
   4   5   4   11.97    1.29
   4   5   4    9.19    1.41
   4   5   4    9.98    1.66
  -5  -5  -4   -0.29    1.03
  -5  -5  -4   -0.26    0.79
   5   5   4   -1.05    0.97
   5   5   4    0.23    0.82
   5   5   4    0.28    0.98
   5   5   4   -0.38    0.84
  -6  -5  -4    1.38    1.31
   6   5   4    4.49    1.33
   6   5   4    2.64    1.63
   6   5   4    2.19    1.26
  -7  -5  -4    2.96    1.51
   7   5   4    3.86    1.15
   7   5   4    7.21    1.74
   8  -6  -4    0.77    1.34
   8  -6  -4    1.26    1.08
   8  -6  -4    0.67    0.59
   8  -6  -4    0.49    0.91
   8  -6  -4   -0.54    1.36
  -8   6   4    1.57    0.87
   7  -6  -4   11.70    1.81
   7  -6  -4    5.83    1.35
   7  -6  -4    6.18    1.40
   7  -6  -4    8.43    0.82
   7  -6  -4    5.65    1.70
   7  -6  -4    6.84    0.83
  -7   6   4    8.90    1.29
  -7   6   4    5.96    1.03
   6  -6  -4   13.65    1.32
   6  -6  -4   18.33    2.47
   6  -6  -4   15.82    2.66
   6  -6  -4   12.01    0.95
  -6   6   4   13.27    1.30
  -6   6   4   15.22    1.68
   5  -6  -4    5.72    1.43
   5  -6  -4    3.21    1.36
   5  -6  -4    7.59    1.37
   5  -6  -4    5.21    0.97
  -5   6   4    7.68    1.47
  -5   6   4    7.99    1.19
  -5   6   4    6.03    0.94
   4  -6  -4    0.89    0.91
   4  -6  -4   -0.21    0.59
   4  -6  -4   -0.15    0.59
   4  -6  -4   -0.10    1.06
  -4   6   4   -1.09    0.80
  -4   6   4   -0.23    0.57
  -4   6   4   -0.81    0.68
  -4   6   4   -0.22    0.39
   3  -6  -4   -0.77    0.53
   3  -6  -4    0.08    0.61
   3  -6  -4    1.07    1.45
   3  -6  -4    0.02    1.13
  -3   6   4    0.35    0.56
  -3   6   4   -0.10    0.87
  -3   6   4    0.08    0.59
  -3   6   4    0.51    0.43
   2  -6  -4    4.57    0.76
   2  -6  -4    2.59    1.27
   2  -6  -4    4.35    1.04
   2  -6  -4    6.42    0.92
  -2   6   4    3.65    0.97
  -2   6   4    4.59    1.17
  -2   6   4    4.50    0.71
  -2   6   4    4.02    0.89
   1  -6  -4   -1.11    1.46
   1  -6  -4    0.23    0.60
   1  -6  -4   -0.60    0.69
   1  -6  -4    0.29    0.55
  -1   6   4   -1.29    1.53
  -1   6   4   -0.63    0.66
  -1   6   4    0.30    0.55
  -1   6   4   -0.53    1.24
  -1   6   4    0.64    0.73
  -1   6   4    0.12    0.18
   0  -6  -4    6.13    1.00
   0  -6  -4    5.70    0.90
   0  -6  -4    4.54    1.23
   0  -6  -4    5.60    0.91
   0  -6  -4    6.48    1.79
   0   6   4    4.37    0.70
   0   6   4    5.48    0.94
   0   6   4    6.43    1.33
   0   6   4    5.40    1.05
   0   6   4    2.72    1.24
   0   6   4    5.44    0.96
  -1  -6  -4   91.57    5.49
  -1  -6  -4   80.68    4.79
  -1  -6  -4   87.45    5.19
   1   6   4   90.70    5.05
   1   6   4   86.98    4.81
   1   6   4   82.43    5.00
   1   6   4   90.34    4.82
   1   6   4   92.84    4.85
   1   6   4   88.71    5.30
  -2  -6  -4   39.63    2.17
  -2  -6  -4   40.54    3.15
  -2  -6  -4   32.74    2.71
   2   6   4   34.14    2.47
   2   6   4   34.71    2.35
   2   6   4   32.80    2.70
   2   6   4   34.94    2.63
  -3  -6  -4    4.43    1.31
  -3  -6  -4    6.24    1.54
   3   6   4    5.93    1.24
   3   6   4    6.05    1.20
   3   6   4    7.58    1.38
   3   6   4    9.28    1.81
  -4  -6  -4    3.57    1.30
  -4  -6  -4    4.71    1.20
   4   6   4    7.15    1.37
   4   6   4    7.35    1.44
   4   6   4    6.32    1.24
   4   6   4    5.70    1.47
  -5  -6  -4    2.57    1.27
   5   6   4    1.26    1.08
   5   6   4    2.55    0.95
   5   6   4    0.80    1.18
   5   6   4    1.05    0.93
   6   6   4    1.05    0.91
   6   6   4   -0.85    1.37
   8  -7  -4    2.59    1.73
   8  -7  -4    2.29    2.18
   8  -7  -4    1.58    1.22
   8  -7  -4    2.42    0.72
  -8   7   4    2.59    1.05
   7  -7  -4   -0.57    1.36
   7  -7  -4    0.62    1.08
   7  -7  -4    0.94    1.39
   7  -7  -4    0.06    0.87
  -7   7   4    0.55    0.39
  -7   7   4    1.24    0.90
   6  -7  -4   -0.23    1.27
   6  -7  -4    0.85    0.77
   6  -7  -4    2.22    1.28
   6  -7  -4    0.96    0.68
  -6   7   4    1.29    0.59
  -6   7   4    1.03    0.89
  -6   7   4    1.12    1.06
   5  -7  -4    0.31    0.97
   5  -7  -4   -1.31    1.17
   5  -7  -4   -1.16    0.64
   5  -7  -4    0.12    0.64
  -5   7   4    1.12    0.36
  -5   7   4   -0.07    0.60
  -5   7   4    0.00    0.96
  -5   7   4    0.37    0.77
   4  -7  -4   12.68    2.75
   4  -7  -4    8.51    1.06
   4  -7  -4    7.59    1.08
   4  -7  -4    5.64    1.64
  -4   7   4   11.23    2.19
  -4   7   4   10.79    1.76
  -4   7   4    8.42    1.02
   3  -7  -4    5.46    1.35
   3  -7  -4    1.17    1.40
   3  -7  -4    3.13    0.83
   3  -7  -4    4.46    0.86
  -3   7   4    4.50    0.89
  -3   7   4    5.37    1.17
  -3   7   4    4.77    0.71
  -3   7   4    3.74    1.05
   2  -7  -4    1.33    1.08
   2  -7  -4    2.17    0.69
   2  -7  -4    2.07    0.73
   2  -7  -4    0.20    1.28
  -2   7   4    1.31    0.91
  -2   7   4    2.06    0.91
  -2   7   4    2.08    0.62
  -2   7   4    1.93    0.84
   1  -7  -4    1.01    0.64
   1  -7  -4    0.05    1.51
   1  -7  -4    0.82    1.10
  -1   7   4   -0.80    0.80
  -1   7   4    0.07    0.70
  -1   7   4    0.07    0.81
   0  -7  -4    8.55    1.16
   0  -7  -4    9.35    1.60
   0  -7  -4    6.76    2.12
   0  -7  -4    8.58    1.22
   0   7   4    7.91    1.22
   0   7   4    9.68    2.06
   0   7   4    9.02    1.27
   0   7   4    9.60    1.36
  -1  -7  -4    6.99    1.45
   1   7   4    4.38    0.46
   1   7   4    7.27    1.10
   1   7   4    7.22    0.93
   1   7   4    7.24    1.37
   1   7   4    6.87    1.49
  -2  -7  -4    2.28    0.58
  -2  -7  -4    0.37    1.08
  -2  -7  -4    3.29    1.43
   2   7   4    1.72    1.03
   2   7   4    1.34    0.79
   2   7   4    2.38    0.82
  -3  -7  -4    0.04    1.24
  -3  -7  -4    0.27    0.23
  -3  -7  -4   -0.92    1.04
   3   7   4   -0.57    0.88
   3   7   4    1.08    0.84
   3   7   4    1.74    1.12
  -4  -7  -4    1.24    0.47
  -4  -7  -4    0.03    1.12
   4   7   4    2.73    1.07
   4   7   4    1.35    1.22
   4   7   4    1.23    1.01
   5   7   4    3.81    1.16
   5   7   4    4.40    1.24
   5   7   4    4.83    2.25
   7  -8  -4    2.38    1.04
   7  -8  -4    0.10    1.50
  -7   8   4    0.66    0.56
  -7   8   4    0.56    0.91
  -7   8   4    0.51    1.14
   6  -8  -4    0.69    0.90
   6  -8  -4    2.38    1.29
   6  -8  -4    0.32    1.50
  -6   8   4    3.13    1.28
  -6   8   4    4.07    1.15
   5  -8  -4    1.63    0.69
   5  -8  -4    1.08    1.20
   5  -8  -4   -1.07    1.41
   5  -8  -4   -1.47    0.77
  -5   8   4    1.00    0.42
  -5   8   4    0.21    0.38
  -5   8   4    0.15    0.87
  -5   8   4    1.08    1.09
   4  -8  -4    2.11    0.73
   4  -8  -4    3.09    1.30
   4  -8  -4    0.03    1.38
   4  -8  -4    1.41    0.79
  -4   8   4    1.72    0.71
  -4   8   4    2.74    1.14
  -4   8   4    2.80    1.03
   3  -8  -4   -0.85    1.38
   3  -8  -4   -1.32    1.06
   3  -8  -4    1.76    0.74
  -3   8   4    0.02    0.66
  -3   8   4   -1.16    0.83
  -3   8   4    0.54    0.31
  -3   8   4    0.55    0.69
   2  -8  -4    0.60    1.65
   2  -8  -4   -0.56    1.13
   2  -8  -4    1.43    0.71
  -2   8   4    0.40    0.30
  -2   8   4    1.53    0.95
  -2   8   4    1.61    0.96
   1  -8  -4   11.25    1.87
   1  -8  -4   14.45    1.43
  -1   8   4   14.03    1.49
  -1   8   4   11.84    1.49
  -1   8   4   14.24    1.62
   0  -8  -4    0.38    1.63
   0  -8  -4   -0.64    0.83
   0  -8  -4    0.34    0.66
   0   8   4    1.08    0.96
   0   8   4   -0.69    0.75
   0   8   4   -0.28    0.87
  -1  -8  -4    1.09    1.23
  -1  -8  -4    0.45    1.54
   1   8   4    0.05    0.75
   1   8   4    0.04    0.28
   1   8   4    1.32    1.05
   1   8   4   -0.41    0.89
  -2  -8  -4   19.46    2.28
  -2  -8  -4   22.17    2.65
   2   8   4   19.53    2.16
   2   8   4   21.89    2.07
  -3  -8  -4    2.74    1.41
   3   8   4    3.03    1.34
   3   8   4    3.81    1.20
   3   8   4    5.31    1.05
  -4  -8  -4    2.50    1.35
   4   8   4    4.35    1.17
   4   8   4    3.37    1.74
   4   8   4    2.75    1.18
   6  -9  -4    1.25    1.36
   6  -9  -4    4.22    1.85
   6  -9  -4   -0.12    1.05
  -6   9   4    2.44    1.85
  -6   9   4    0.68    0.67
  -6   9   4    2.75    1.33
   5  -9  -4    4.11    1.08
   5  -9  -4    5.47    1.60
  -5   9   4    8.16    1.47
   4  -9  -4   -0.83    1.23
   4  -9  -4    2.19    0.79
   4  -9  -4    0.26    1.63
  -4   9   4    0.60    0.37
  -4   9   4    1.30    0.98
  -4   9   4    1.95    1.15
   3  -9  -4    2.19    0.76
   3  -9  -4    0.74    1.70
   3  -9  -4   -0.98    1.22
  -3   9   4    2.06    1.10
  -3   9   4    1.16    0.94
  -3   9   4    1.58    0.77
   2  -9  -4   -0.15    1.31
   2  -9  -4   -1.71    1.69
   2  -9  -4    2.44    0.79
  -2   9   4    1.59    0.83
  -2   9   4    1.40    0.97
  -2   9   4    1.08    1.01
   1  -9  -4   -1.17    1.65
   1  -9  -4   -0.35    1.28
   1  -9  -4    1.53    0.77
  -1   9   4    0.28    0.98
  -1   9   4    0.64    0.97
   0  -9  -4   -1.09    1.64
   0  -9  -4   -0.08    1.31
   0   9   4   -0.93    0.89
   0   9   4   -1.55    0.95
  -1  -9  -4    6.87    1.72
  -1  -9  -4    8.62    2.13
   1   9   4    5.99    1.45
   1   9   4    7.51    1.53
  -2  -9  -4    7.42    1.77
  -2  -9  -4   -1.11    1.37
  -2  -9  -4    2.00    0.61
   2   9   4    0.74    0.40
   3 -10  -4    0.88    1.56
  -3  10   4    1.39    0.45
  -3  10   4    4.34    1.34
   2 -10  -4   -0.40    1.54
   2 -10  -4    0.17    1.98
   2 -10  -4    4.34    0.96
  -2  10   4    3.95    1.25
  -2  10   4    3.19    1.13
  -2  10   4    1.98    0.80
   1 -10  -4    2.33    0.89
   1 -10  -4   -0.73    1.40
   1 -10  -4   -0.28    1.84
  -1  10   4    1.38    1.10
  -1  10   4    0.02    0.85
  -1  10   4    0.66    1.04
   0 -10  -4   -0.86    1.35
   0  10   4   -1.64    1.05
   0  10   4    1.43    0.99
   0  10   4    0.54    1.14
   1  10  -5    2.22    1.29
   1  10  -5    1.06    1.26
   1  10  -5   -0.48    0.48
  -1 -10   5    0.88    0.65
  -1 -10   5    0.88    1.52
  -1 -10   5    2.34    1.21
   0  10  -5    4.67    1.42
   0 -10   5    4.91    1.73
   0 -10   5    5.06    0.91
   0 -10   5    5.09    2.14
   0 -10   5    2.36    1.15
  -1  10  -5   12.89    1.86
   1 -10   5   12.17    2.25
   1 -10   5   15.46    2.23
  -2  10  -5    0.64    1.06
  -2  10  -5    2.84    1.41
   2 -10   5    0.36    1.67
   2 -10   5    3.31    1.50
   3   9  -5    0.93    1.08
   3   9  -5   -0.18    1.36
   3   9  -5    0.09    0.96
  -3  -9   5    1.01    0.77
  -3  -9   5   -0.18    1.36
   2   9  -5   -0.30    1.15
   2   9  -5    1.93    1.17
   2   9  -5    2.52    0.91
  -2  -9   5    4.12    1.54
  -2  -9   5    0.64    0.70
  -2  -9   5    1.48    1.16
   1   9  -5   14.97    1.96
   1   9  -5   16.77    1.88
  -1  -9   5   11.95    1.87
  -1  -9   5   13.70    2.15
  -1  -9   5   13.26    1.36
   0   9  -5    2.28    1.18
   0   9  -5    1.45    0.39
   0   9  -5   -0.07    0.51
   0   9  -5    1.65    1.15
   0  -9   5    1.39    0.62
   0  -9   5    1.20    1.19
   0  -9   5    3.05    1.38
   0  -9   5    3.05    1.08
  -1   9  -5   15.20    1.90
  -1   9  -5   11.48    1.68
   1  -9   5    9.60    1.82
   1  -9   5   11.62    1.90
   1  -9   5   13.54    2.17
  -2   9  -5    0.53    0.27
  -2   9  -5    0.42    1.18
  -2   9  -5    0.12    0.87
   2  -9   5    0.51    1.18
   2  -9   5    0.87    1.22
   2  -9   5    1.75    1.28
   2  -9   5    0.88    0.48
  -3   9  -5    0.18    1.17
  -3   9  -5    0.36    0.97
   3  -9   5    0.81    0.41
   3  -9   5    0.40    1.49
   3  -9   5   -1.14    1.08
   3  -9   5   -0.12    1.25
  -4   9  -5   -0.19    0.72
   4  -9   5    1.16    1.79
   4  -9   5   -0.47    1.15
   4  -9   5    0.26    1.33
  -5   9  -5    1.24    1.30
  -5   9  -5    1.86    0.89
   5  -9   5    3.39    2.08
   5  -9   5    1.15    1.32
   5   8  -5    5.17    1.59
   5   8  -5    7.78    1.64
  -5  -8   5    5.98    1.23
  -5  -8   5    5.87    1.34
   4   8  -5   -0.45    1.18
   4   8  -5    4.12    1.10
   4   8  -5   -0.09    1.05
  -4  -8   5    1.48    0.89
  -4  -8   5    2.31    1.21
  -4  -8   5   -0.39    1.17
   3   8  -5   -1.00    1.06
   3   8  -5    0.29    1.08
   3   8  -5    1.51    1.10
  -3  -8   5    1.34    1.08
  -3  -8   5    1.34    0.83
  -3  -8   5    3.30    1.34
   2   8  -5    1.12    1.09
   2   8  -5    1.02    0.81
   2   8  -5    1.60    1.32
  -2  -8   5    2.64    2.05
  -2  -8   5    0.55    0.46
  -2  -8   5    1.06    0.68
  -2  -8   5    0.61    0.97
   1   8  -5    0.75    0.69
   1   8  -5    0.47    0.76
   1   8  -5    0.90    0.36
  -1  -8   5    1.21    1.82
  -1  -8   5    1.17    0.64
  -1  -8   5    0.72    0.85
  -1  -8   5    2.09    1.12
   0   8  -5    3.15    1.12
   0   8  -5   -0.68    0.45
   0   8  -5    1.68    1.11
   0   8  -5    0.37    0.33
   0   8  -5    0.69    0.26
   0  -8   5    0.86    0.57
   0  -8   5    0.85    1.07
  -1   8  -5    6.90    1.89
  -1   8  -5    6.57    1.45
   1  -8   5    4.74    1.31
   1  -8   5    7.57    1.63
   1  -8   5    6.12    1.40
  -2   8  -5   11.40    1.72
  -2   8  -5   10.75    1.43
   2  -8   5    9.57    1.63
   2  -8   5   12.56    1.12
   2  -8   5   11.92    1.80
   2  -8   5   17.59    3.20
  -3   8  -5    9.59    1.65
  -3   8  -5    9.51    1.28
   3  -8   5   10.43    1.71
   3  -8   5    6.60    1.51
   3  -8   5    9.31    0.98
  -4   8  -5    0.34    0.75
  -4   8  -5    1.22    1.22
   4  -8   5   -1.19    1.12
   4  -8   5    0.08    1.05
  -5   8  -5    5.41    0.98
  -5   8  -5    7.78    1.66
   5  -8   5    5.67    1.53
   5  -8   5    6.05    1.51
   5  -8   5    7.40    1.03
  -6   8  -5    1.77    1.30
  -6   8  -5    0.29    0.36
   6  -8   5    0.59    1.21
   6  -8   5    0.32    0.71
   6   7  -5    0.34    1.13
   6   7  -5    1.36    0.81
  -6  -7   5    0.48    0.86
   5   7  -5    1.99    1.01
   5   7  -5    1.77    1.29
   5   7  -5    0.30    1.16
  -5  -7   5    1.04    0.84
   4   7  -5    2.13    1.14
   4   7  -5   -0.16    0.82
  -4  -7   5    1.78    1.07
  -4  -7   5    2.65    1.58
  -4  -7   5    0.75    1.03
   3   7  -5   12.65    1.49
   3   7  -5   13.23    1.81
   3   7  -5   13.37    1.51
  -3  -7   5   13.97    1.70
  -3  -7   5   14.16    1.78
  -3  -7   5   15.45    1.55
   2   7  -5    7.43    1.10
   2   7  -5    5.86    1.42
   2   7  -5    6.52    0.96
   2   7  -5    6.18    2.12
   2   7  -5    5.84    1.24
  -2  -7   5    7.10    1.10
  -2  -7   5    6.98    0.60
  -2  -7   5    6.15    1.63
  -2  -7   5    9.43    1.50
  -2  -7   5    6.08    1.17
   1   7  -5    3.37    0.85
   1   7  -5    3.74    0.79
   1   7  -5    2.95    1.13
   1   7  -5    2.58    1.16
   1   7  -5    2.64    0.70
  -1  -7   5    7.19    1.34
  -1  -7   5    5.79    1.25
  -1  -7   5    2.78    1.03
  -1  -7   5    3.46    0.82
   0   7  -5    0.57    0.89
   0   7  -5    0.15    0.63
   0   7  -5    0.08    0.51
   0   7  -5    0.96    0.28
   0   7  -5   -1.39    0.96
   0  -7   5    0.49    0.82
   0  -7   5    1.98    1.01
   0  -7   5    1.16    1.05
   0  -7   5   -0.17    0.54
   0  -7   5    0.29    1.05
  -1   7  -5   34.42    2.40
  -1   7  -5   30.87    2.57
   1  -7   5   37.98    2.75
   1  -7   5   34.66    2.21
   1  -7   5   31.40    2.53
  -2   7  -5   46.47    3.60
  -2   7  -5   49.84    3.47
  -2   7  -5   47.51    3.79
   2  -7   5   42.80    3.19
   2  -7   5   42.57    2.71
   2  -7   5   46.36    3.17
  -3   7  -5   68.79    4.81
  -3   7  -5   59.91    3.95
  -3   7  -5   61.16    3.80
   3  -7   5   66.39    4.50
   3  -7   5   56.51    3.63
  -4   7  -5    7.40    1.00
  -4   7  -5    9.56    1.59
  -4   7  -5   12.70    2.43
   4  -7   5    6.93    1.47
   4  -7   5    7.42    1.03
   4  -7   5   10.21    1.62
  -5   7  -5    0.24    1.55
  -5   7  -5    0.02    1.05
  -5   7  -5    0.89    0.59
   5  -7   5   -0.36    0.63
   5  -7   5    0.56    1.08
   5  -7   5   -0.02    1.03
  -6   7  -5    4.28    1.47
  -6   7  -5    3.18    1.75
   6  -7   5    3.41    1.30
   6  -7   5    3.37    1.30
  -7   7  -5    0.15    1.63
  -7   7  -5    1.31    1.33
   7  -7   5    0.26    1.18
   7  -7   5    0.70    0.89
   7  -7   5   -0.16    1.86
   7   6  -5    1.60    1.99
   7   6  -5   -0.48    1.50
   7   6  -5    2.60    1.00
   7   6  -5    0.37    1.62
  -7  -6   5    2.76    1.15
   6   6  -5    0.50    1.11
   6   6  -5    2.43    1.29
  -6  -6   5    1.64    0.95
  -6  -6   5    0.51    0.52
  -6  -6   5    3.11    1.10
   5   6  -5    3.45    1.26
   5   6  -5    0.50    1.18
   5   6  -5    1.72    0.89
  -5  -6   5    1.44    0.45
  -5  -6   5    2.85    1.00
  -5  -6   5    1.28    0.91
   4   6  -5    0.04    0.86
   4   6  -5    0.12    1.02
   4   6  -5    0.19    0.88
  -4  -6   5    0.35    0.72
  -4  -6   5    0.46    0.92
  -4  -6   5    0.42    0.91
  -4  -6   5    0.36    0.83
   3   6  -5    6.95    1.18
   3   6  -5    5.30    1.22
   3   6  -5    4.84    1.02
   3   6  -5    6.60    1.12
  -3  -6   5    7.04    1.23
  -3  -6   5    7.19    1.26
  -3  -6   5    4.85    1.17
  -3  -6   5    8.13    1.19
   2   6  -5   14.53    1.31
   2   6  -5   13.16    1.43
   2   6  -5   11.37    1.40
   2   6  -5   13.30    1.63
   2   6  -5   14.97    1.34
   2   6  -5   12.95    1.53
  -2  -6   5   15.48    1.55
  -2  -6   5   12.65    1.39
  -2  -6   5   12.27    1.33
  -2  -6   5   12.58    1.28
  -2  -6   5   11.44    1.58
  -2  -6   5   12.27    1.38
   1   6  -5   20.18    1.78
   1   6  -5   16.18    1.34
   1   6  -5   21.08    2.08
   1   6  -5   18.76    1.61
   1   6  -5   20.29    1.39
   1   6  -5   14.11    1.48
  -1  -6   5   20.86    1.59
  -1  -6   5   20.89    1.79
  -1  -6   5   19.47    1.71
  -1  -6   5   19.97    1.72
  -1  -6   5   15.08    1.73
   0   6  -5   16.54    1.46
   0   6  -5   17.68    1.51
   0   6  -5   18.18    1.25
   0   6  -5   20.26    1.81
   0   6  -5   17.69    1.26
   0   6  -5   16.51    1.51
   0  -6   5   20.27    1.94
   0  -6   5   19.81    1.51
   0  -6   5   18.25    1.64
   0  -6   5   19.43    1.69
   0  -6   5   20.43    2.75
  -1   6  -5   19.42    1.25
  -1   6  -5   22.56    1.28
  -1   6  -5   20.64    1.99
  -1   6  -5   25.01    1.86
  -1   6  -5   20.01    1.60
  -1   6  -5   25.83    2.34
   1  -6   5   22.94    2.78
   1  -6   5   22.77    1.64
   1  -6   5   21.98    1.64
   1  -6   5   22.80    1.87
   1  -6   5   25.80    2.22
  -2   6  -5  137.86    7.39
  -2   6  -5  139.13    7.51
  -2   6  -5  149.74    8.14
  -2   6  -5  147.40    7.75
   2  -6   5  132.40    7.74
   2  -6   5  132.68    7.43
   2  -6   5  139.39    7.43
  -3   6  -5   53.36    4.01
  -3   6  -5   54.94    3.43
  -3   6  -5   48.73    2.98
  -3   6  -5   55.94    3.12
   3  -6   5   51.95    3.46
   3  -6   5   55.47    3.45
   3  -6   5   48.83    3.22
   3  -6   5   45.29    3.42
  -4   6  -5   27.22    2.25
  -4   6  -5   25.70    1.76
  -4   6  -5   26.21    1.82
  -4   6  -5   31.14    3.44
   4  -6   5   25.15    1.90
   4  -6   5   26.62    2.02
   4  -6   5   27.84    2.34
   4  -6   5   28.43    2.34
  -5   6  -5    2.84    0.67
  -5   6  -5    5.12    0.62
  -5   6  -5    3.81    1.69
  -5   6  -5    3.73    1.20
   5  -6   5    2.98    0.83
   5  -6   5    3.08    1.14
   5  -6   5    3.13    0.68
   5  -6   5    3.58    1.17
  -6   6  -5    5.37    1.37
  -6   6  -5    3.95    1.84
   6  -6   5    3.39    0.96
   6  -6   5    5.86    1.38
   6  -6   5    3.62    0.67
   6  -6   5    4.43    1.37
  -7   6  -5    2.67    1.17
  -7   6  -5    0.12    1.76
   7  -6   5    2.07    1.24
   7  -6   5    3.83    1.42
   7  -6   5    1.95    1.12
   8   5  -5    1.73    1.70
   8   5  -5    4.92    1.61
   7   5  -5   13.88    1.91
   7   5  -5   16.29    1.87
  -7  -5   5   16.06    1.83
  -7  -5   5   17.37    2.03
   6   5  -5    4.01    1.13
   6   5  -5    6.25    1.03
   6   5  -5    5.93    1.34
  -6  -5   5    6.44    1.37
  -6  -5   5    6.81    1.86
   5   5  -5    0.02    0.92
   5   5  -5   -0.09    0.77
   5   5  -5    0.70    0.83
   5   5  -5   -0.53    0.92
  -5  -5   5    0.07    0.84
  -5  -5   5    0.97    0.68
  -5  -5   5   -0.83    0.71
   4   5  -5    2.06    1.00
   4   5  -5    1.12    1.01
   4   5  -5    1.88    0.88
  -4  -5   5    1.80    0.91
  -4  -5   5   -0.02    0.75
  -4  -5   5    1.06    0.82
  -4  -5   5    1.36    0.99
   3   5  -5    6.61    1.07
   3   5  -5    8.51    1.18
   3   5  -5    8.52    1.20
   3   5  -5    7.84    1.17
   3   5  -5    7.26    1.01
   3   5  -5    9.96    1.57
  -3  -5   5    9.66    1.23
  -3  -5   5    7.21    1.53
  -3  -5   5    7.93    1.16
  -3  -5   5    8.91    1.24
   2   5  -5   11.59    1.27
   2   5  -5   14.01    1.69
   2   5  -5   13.57    1.22
   2   5  -5   13.06    1.18
   2   5  -5   14.75    1.21
   2   5  -5   14.18    1.38
   2   5  -5   11.34    1.19
  -2  -5   5   13.11    1.20
  -2  -5   5   12.95    1.22
  -2  -5   5   12.81    1.23
  -2  -5   5   13.85    1.52
  -2  -5   5   12.43    1.31
   1   5  -5    5.46    0.90
   1   5  -5    5.44    1.01
   1   5  -5    5.43    0.78
   1   5  -5    4.69    0.80
   1   5  -5    6.22    1.10
   1   5  -5    6.70    1.16
   1   5  -5    7.15    1.04
   1   5  -5    6.35    0.73
  -1  -5   5    5.46    1.07
  -1  -5   5    6.52    1.03
  -1  -5   5    7.50    1.14
  -1  -5   5    6.05    1.12
  -1  -5   5    6.62    0.88
   0   5  -5  173.54    9.07
   0   5  -5  173.06    9.07
   0   5  -5  170.88    8.84
   0   5  -5  185.12    9.21
   0   5  -5  165.84    9.19
   0   5  -5  162.11    9.00
   0   5  -5  171.17    9.06
   0   5  -5  182.19    9.31
   0  -5   5  174.91    9.04
   0  -5   5  172.12    9.13
   0  -5   5  164.32    9.01
   0  -5   5  177.63    9.30
   0  -5   5  171.27    9.21
   0  -5   5  161.22    9.11
  -1   5  -5    2.52    0.64
  -1   5  -5    2.63    0.94
  -1   5  -5    4.12    0.76
  -1   5  -5    1.49    1.18
  -1   5  -5    3.15    1.10
  -1   5  -5    2.47    0.31
  -1   5  -5    3.44    0.84
   1  -5   5    2.94    0.93
   1  -5   5    3.96    0.80
   1  -5   5    2.67    0.90
   1  -5   5    3.44    0.82
   1  -5   5    3.56    0.66
   1  -5   5    3.20    0.62
  -2   5  -5   48.86    3.38
  -2   5  -5   47.00    2.72
  -2   5  -5   43.43    2.90
  -2   5  -5   46.22    2.71
  -2   5  -5   44.74    2.97
   2  -5   5   43.08    2.65
   2  -5   5   44.56    3.24
   2  -5   5   45.84    3.00
   2  -5   5   47.28    3.05
   2  -5   5   48.16    2.78
   2  -5   5   49.63    2.97
   2  -5   5   47.02    2.94
  -3   5  -5   19.93    2.39
  -3   5  -5   17.22    1.36
  -3   5  -5   18.54    1.34
  -3   5  -5   14.60    1.85
   3  -5   5   19.47    1.69
   3  -5   5   17.30    1.30
   3  -5   5   19.87    1.70
   3  -5   5   17.79    2.02
  -4   5  -5   46.95    3.05
  -4   5  -5   47.35    3.81
  -4   5  -5   45.18    2.76
  -4   5  -5   45.04    2.64
   4  -5   5   46.15    2.86
   4  -5   5   46.57    2.63
   4  -5   5   44.59    3.06
   4  -5   5   44.54    3.11
  -5   5  -5   38.44    2.49
  -5   5  -5   40.68    2.32
  -5   5  -5   34.29    4.77
  -5   5  -5   43.73    2.90
   5  -5   5   37.47    2.95
   5  -5   5   38.16    2.30
   5  -5   5   41.37    2.66
  -6   5  -5   22.92    3.02
   6  -5   5   22.04    1.94
   6  -5   5   21.15    2.07
   6  -5   5   23.00    2.17
   6  -5   5   21.99    1.46
  -7   5  -5    3.83    1.96
  -7   5  -5    5.56    1.24
   7  -5   5    4.34    0.61
   7  -5   5    3.08    0.60
   7  -5   5    4.00    1.70
   7  -5   5    3.56    1.24
  -8   5  -5    0.03    1.68
  -8   5  -5    0.88    1.01
   8  -5   5   -0.87    1.04
   8  -5   5    0.93    1.32
   8  -5   5    1.31    1.00
   8   4  -5    0.23    1.48
   8   4  -5    1.71    1.21
   8   4  -5    3.68    1.40
  -8  -4   5    3.86    1.15
   7   4  -5   -0.13    1.07
   7   4  -5    0.75    1.11
   7   4  -5    1.45    0.74
  -7  -4   5   -0.24    0.96
  -7  -4   5    6.61    1.94
   6   4  -5   17.91    1.81
   6   4  -5   25.41    2.02
   6   4  -5   23.51    1.79
  -6  -4   5   20.36    1.85
  -6  -4   5   25.71    2.18
   5   4  -5    2.84    1.00
   5   4  -5    2.56    0.86
   5   4  -5    3.09    0.99
   5   4  -5    1.94    1.03
  -5  -4   5    3.12    0.78
  -5  -4   5    2.12    0.94
   4   4  -5    0.18    0.98
   4   4  -5    0.28    0.81
   4   4  -5   -0.16    0.72
   4   4  -5   -0.01    0.59
  -4  -4   5    1.01    0.66
  -4  -4   5   -0.15    0.73
  -4  -4   5   -1.01    0.76
  -4  -4   5   -0.92    0.60
   3   4  -5   44.69    2.64
   3   4  -5   45.63    2.88
   3   4  -5   44.21    2.77
   3   4  -5   39.27    2.83
   3   4  -5   46.78    2.69
   3   4  -5   44.76    2.80
  -3  -4   5   47.09    2.73
  -3  -4   5   41.95    2.78
  -3  -4   5   47.02    2.70
  -3  -4   5   43.50    2.89
   2   4  -5   67.09    3.86
   2   4  -5   76.20    3.78
   2   4  -5   64.71    3.81
   2   4  -5   63.32    3.75
   2   4  -5   68.59    4.41
   2   4  -5   68.04    3.74
  -2  -4   5   65.43    4.08
  -2  -4   5   71.18    4.00
  -2  -4   5   66.28    3.82
  -2  -4   5   63.83    3.92
  -2  -4   5   69.74    3.72
  -2  -4   5   67.00    3.77
   1   4  -5  120.67    6.46
   1   4  -5  123.48    6.41
   1   4  -5  118.19    6.51
   1   4  -5  121.92    6.57
   1   4  -5  118.68    6.62
   1   4  -5  123.40    6.38
  -1  -4   5  123.04    6.51
  -1  -4   5  122.46    6.55
  -1  -4   5  121.48    6.53
  -1  -4   5  128.31    6.68
  -1  -4   5  113.56    6.45
  -1  -4   5  129.32    6.61
   0   4  -5   28.24    1.84
   0   4  -5   28.70    2.17
   0   4  -5   28.62    1.88
   0   4  -5   28.78    1.98
   0   4  -5   30.94    2.01
   0   4  -5   29.12    1.67
   0   4  -5   28.66    1.82
   0   4  -5   26.49    1.64
   0  -4   5   29.79    2.13
   0  -4   5   30.49    1.88
   0  -4   5   30.48    1.89
   0  -4   5   27.70    1.79
   0  -4   5   29.69    1.95
   0  -4   5   31.16    2.05
  -1   4  -5   23.66    1.29
  -1   4  -5   23.74    1.72
  -1   4  -5   22.94    1.60
  -1   4  -5   24.03    1.79
  -1   4  -5   26.25    1.60
  -1   4  -5   23.84    2.06
  -1   4  -5   25.26    1.61
   1  -4   5   24.82    1.81
   1  -4   5   22.78    1.72
   1  -4   5   23.98    1.65
   1  -4   5   23.16    1.53
   1  -4   5   24.29    1.67
   1  -4   5   24.81    1.95
  -2   4  -5   74.24    5.28
  -2   4  -5   88.99    4.58
  -2   4  -5   79.04    4.62
  -2   4  -5   87.17    5.17
  -2   4  -5   81.84    4.79
   2  -4   5   87.28    4.80
   2  -4   5   83.61    5.09
   2  -4   5   91.07    4.88
   2  -4   5   84.47    4.68
   2  -4   5   85.21    4.54
   2  -4   5   94.53    4.81
  -3   4  -5   -0.90    1.12
  -3   4  -5   -0.44    0.72
  -3   4  -5   -0.47    0.54
  -3   4  -5    0.13    0.36
  -3   4  -5    0.15    0.48
   3  -4   5   -0.03    0.80
   3  -4   5    0.29    0.35
   3  -4   5    0.80    0.71
   3  -4   5   -0.81    0.55
   3  -4   5    0.03    0.46
   3  -4   5    0.86    0.61
   3  -4   5    0.01    0.61
  -4   4  -5   10.02    3.11
  -4   4  -5   11.57    1.47
  -4   4  -5   12.24    1.19
  -4   4  -5    9.71    0.83
   4  -4   5    8.61    1.22
   4  -4   5    9.72    1.19
   4  -4   5   10.67    0.82
  -5   4  -5   70.83    4.89
  -5   4  -5   61.65    3.61
  -5   4  -5   72.05    3.95
   5  -4   5   63.38    3.55
   5  -4   5   72.36    4.14
   5  -4   5   66.25    4.02
   5  -4   5   71.33    4.23
  -6   4  -5    0.22    0.83
  -6   4  -5    1.13    1.55
   6  -4   5    1.46    0.84
   6  -4   5    0.38    0.43
   6  -4   5    1.41    0.37
   6  -4   5    0.63    0.75
   6  -4   5    0.79    0.94
   6  -4   5    0.19    0.60
  -7   4  -5    2.31    1.72
  -7   4  -5    3.52    1.10
   7  -4   5    3.21    1.22
   7  -4   5    5.28    0.74
   7  -4   5    2.86    0.56
   7  -4   5    1.44    1.08
   7  -4   5    5.08    0.73
   7  -4   5    4.24    1.13
  -8   4  -5    8.86    2.27
  -8   4  -5   10.79    1.45
   8  -4   5    9.90    1.83
   8  -4   5    7.48    1.09
   8  -4   5    9.95    1.60
   8  -4   5    9.94    1.99
   9   3  -5   -0.34    1.55
   9   3  -5   -0.48    1.08
   9   3  -5    1.65    1.26
   8   3  -5   -0.32    1.09
   8   3  -5   -0.21    1.03
   8   3  -5   -1.63    1.38
   8   3  -5    0.03    0.75
  -8  -3   5    0.69    0.95
   7   3  -5    3.76    0.71
   7   3  -5    1.24    1.02
   7   3  -5   -0.64    0.84
   7   3  -5    1.94    1.03
   7   3  -5    1.89    0.82
  -7  -3   5    1.98    1.03
  -7  -3   5    2.52    0.97
   6   3  -5   13.23    1.48
   6   3  -5   17.13    1.66
   6   3  -5   21.15    1.75
   6   3  -5   17.17    1.72
  -6  -3   5   14.39    1.55
  -6  -3   5   18.87    1.36
  -6  -3   5   18.41    1.91
   5   3  -5    0.22    0.73
   5   3  -5    0.29    0.92
  -5  -3   5    0.40    0.57
  -5  -3   5    0.16    0.92
  -5  -3   5    0.23    0.73
   4   3  -5   53.24    2.92
   4   3  -5   44.87    3.00
   4   3  -5   47.06    3.02
   4   3  -5   52.27    2.93
   4   3  -5   45.36    2.77
   4   3  -5   47.57    2.88
   4   3  -5   47.63    2.92
  -4  -3   5   46.60    3.03
  -4  -3   5   47.53    2.80
  -4  -3   5   50.97    2.89
  -4  -3   5   45.35    2.78
  -4  -3   5   48.30    3.04
   3   3  -5   15.19    1.28
   3   3  -5   12.73    1.30
   3   3  -5   12.48    1.15
   3   3  -5   15.23    1.07
   3   3  -5   16.69    1.25
   3   3  -5   14.08    1.30
  -3  -3   5   14.53    1.23
  -3  -3   5   13.37    1.16
  -3  -3   5   15.49    1.24
  -3  -3   5   14.02    1.11
  -3  -3   5   13.58    1.30
   2   3  -5   39.29    2.26
   2   3  -5   40.05    2.28
   2   3  -5   41.45    2.36
   2   3  -5   39.43    2.41
   2   3  -5   40.50    2.48
   2   3  -5   42.03    2.31
   2   3  -5   40.01    2.46
   2   3  -5   37.55    2.33
  -2  -3   5   36.72    2.37
  -2  -3   5   39.07    2.50
  -2  -3   5   43.41    2.30
  -2  -3   5   39.42    2.28
  -2  -3   5   36.31    2.42
  -2  -3   5   38.05    2.30
   1   3  -5    1.26    0.60
   1   3  -5    1.32    0.66
   1   3  -5    1.47    0.52
   1   3  -5    0.82    0.44
   1   3  -5    1.67    0.71
   1   3  -5    1.53    0.57
   1   3  -5    1.00    0.58
   1   3  -5    1.09    0.48
  -1  -3   5    0.96    0.55
  -1  -3   5    1.78    0.48
  -1  -3   5    1.41    0.61
  -1  -3   5    1.28    0.48
  -1  -3   5    1.49    0.55
  -1  -3   5    0.96    0.55
   0   3  -5   85.90    4.57
   0   3  -5   84.32    4.71
   0   3  -5   86.14    4.84
   0   3  -5   95.61    4.75
   0   3  -5   89.36    4.59
   0   3  -5   81.77    4.63
   0   3  -5   81.71    4.48
   0  -3   5   83.65    4.73
   0  -3   5   86.41    4.55
   0  -3   5   86.19    4.66
   0  -3   5   89.31    4.61
   0  -3   5   83.17    4.81
   0  -3   5   82.18    4.68
  -1   3  -5  301.33   15.60
  -1   3  -5  298.94   15.66
  -1   3  -5  307.93   15.37
  -1   3  -5  320.32   15.68
  -1   3  -5  311.50   15.50
  -1   3  -5  304.64   15.87
   1  -3   5  308.47   15.86
   1  -3   5  290.13   15.73
   1  -3   5  320.40   15.72
   1  -3   5  282.36   15.58
   1  -3   5  300.87   15.60
   1  -3   5  300.56   15.64
   1  -3   5  301.70   15.62
  -2   3  -5   37.06    2.04
  -2   3  -5   40.15    2.48
  -2   3  -5   38.98    2.35
  -2   3  -5   40.35    2.19
  -2   3  -5   40.27    2.45
   2  -3   5   41.95    2.06
   2  -3   5   39.78    2.43
   2  -3   5   37.16    2.35
   2  -3   5   39.30    2.77
   2  -3   5   39.30    2.44
   2  -3   5   41.08    2.41
   2  -3   5   38.75    2.17
   2  -3   5   42.29    2.58
  -3   3  -5   19.09    1.34
  -3   3  -5   22.97    1.74
  -3   3  -5   19.21    2.11
  -3   3  -5   19.09    1.44
  -3   3  -5   19.32    1.51
   3  -3   5   16.37    2.18
   3  -3   5   17.22    1.44
   3  -3   5   20.91    1.78
   3  -3   5   21.10    1.52
   3  -3   5   19.91    1.52
   3  -3   5   18.78    1.14
   3  -3   5   17.96    1.55
   3  -3   5   19.19    1.10
  -4   3  -5   19.37    1.56
  -4   3  -5   21.57    1.58
  -4   3  -5   15.37    1.98
  -4   3  -5   22.91    2.29
   4  -3   5   19.66    1.67
   4  -3   5   20.78    1.63
   4  -3   5   17.96    1.18
   4  -3   5   19.23    1.56
   4  -3   5   19.21    1.18
   4  -3   5   18.51    2.30
   4  -3   5   17.52    1.10
   4  -3   5   18.55    1.58
  -5   3  -5    1.75    0.88
  -5   3  -5    3.57    1.58
  -5   3  -5    2.20    1.46
   5  -3   5    3.09    0.89
   5  -3   5    2.23    0.89
   5  -3   5    2.97    0.57
   5  -3   5    2.47    0.82
   5  -3   5    2.48    0.35
   5  -3   5    2.74    0.56
   5  -3   5    2.28    0.92
  -6   3  -5    2.73    0.95
  -6   3  -5    3.19    1.73
   6  -3   5    2.14    0.93
   6  -3   5    4.01    1.81
   6  -3   5    2.52    0.63
   6  -3   5    2.55    0.67
   6  -3   5    2.75    1.17
   6  -3   5    2.31    0.33
  -7   3  -5   54.05    4.22
  -7   3  -5   47.68    3.14
   7  -3   5   47.96    3.26
   7  -3   5   43.08    2.82
   7  -3   5   44.49    3.30
   7  -3   5   44.92    3.24
  -8   3  -5    0.24    0.63
  -8   3  -5    1.41    1.73
   8  -3   5    0.51    1.02
   8  -3   5    1.93    1.18
   8  -3   5    0.63    1.03
   9   2  -5    1.35    2.22
   9   2  -5    0.15    0.81
   9   2  -5    0.48    1.43
   9   2  -5    2.80    1.21
  -9  -2   5    3.14    0.96
   8   2  -5    3.41    0.96
   8   2  -5    3.46    1.14
   8   2  -5    5.94    1.33
   8   2  -5   -0.30    1.32
   7   2  -5    4.70    1.14
   7   2  -5    6.21    1.21
   7   2  -5    4.72    0.93
   7   2  -5    4.48    0.97
  -7  -2   5    4.87    1.23
  -7  -2   5    4.40    1.00
   6   2  -5    0.81    0.85
   6   2  -5    0.75    0.87
   6   2  -5   -0.36    0.64
   6   2  -5   -0.36    0.83
  -6  -2   5    0.35    0.60
  -6  -2   5   -0.64    0.84
  -6  -2   5    0.19    0.67
   5   2  -5   77.36    4.14
   5   2  -5   69.30    4.17
   5   2  -5   71.02    4.03
   5   2  -5   64.33    4.32
   5   2  -5   67.92    4.06
   5   2  -5   67.24    3.93
   5   2  -5   73.87    4.46
  -5  -2   5   71.65    4.25
  -5  -2   5   71.28    3.93
  -5  -2   5   75.58    4.00
  -5  -2   5   73.99    4.01
   4   2  -5   16.65    1.23
   4   2  -5   14.09    1.21
   4   2  -5   14.93    1.31
   4   2  -5   15.44    1.32
   4   2  -5   15.14    2.09
   4   2  -5   13.80    1.31
  -4  -2   5   15.72    1.48
  -4  -2   5   15.52    1.18
  -4  -2   5   13.35    1.10
  -4  -2   5   16.02    1.41
   3   2  -5  173.88    8.82
   3   2  -5  171.22    8.76
   3   2  -5  146.35    8.69
   3   2  -5  179.27    8.87
   3   2  -5  164.55    8.77
   3   2  -5  167.39    8.58
   3   2  -5  168.18    8.74
  -3  -2   5  175.68    8.86
  -3  -2   5  152.38    8.51
  -3  -2   5  167.99    8.82
  -3  -2   5  169.62    8.72
  -3  -2   5  170.75    8.73
   2   2  -5   35.38    2.00
   2   2  -5   32.34    2.03
   2   2  -5   34.09    1.93
   2   2  -5   31.48    1.78
   2   2  -5   33.23    2.03
   2   2  -5   31.17    2.07
   2   2  -5   32.09    1.98
  -2  -2   5   31.92    2.05
  -2  -2   5   31.37    2.04
  -2  -2   5   28.68    1.98
  -2  -2   5   33.71    1.96
   1   2  -5   20.33    1.50
   1   2  -5   20.92    1.34
   1   2  -5   21.50    1.42
   1   2  -5   20.44    1.43
   1   2  -5   21.06    1.47
   1   2  -5   20.08    1.31
  -1  -2   5   21.25    1.39
  -1  -2   5   17.71    1.28
  -1  -2   5   19.68    1.51
  -1  -2   5   22.20    1.46
  -1  -2   5   19.64    1.30
  -1  -2   5   23.66    1.46
  -1  -2   5   18.83    1.22
   0   2  -5   11.41    1.09
   0   2  -5   12.22    0.87
   0   2  -5   12.19    1.05
   0   2  -5   11.88    1.30
   0   2  -5   11.39    1.00
   0   2  -5   11.62    0.84
   0  -2   5   12.44    1.00
   0  -2   5   12.92    0.93
   0  -2   5   11.79    1.24
   0  -2   5   12.63    1.06
   0  -2   5   12.58    1.10
   0  -2   5   12.84    0.90
   0  -2   5   13.41    0.85
   0  -2   5   12.11    0.95
  -1   2  -5  609.71   33.02
  -1   2  -5  675.77   33.04
  -1   2  -5  629.17   33.01
  -1   2  -5  648.80   33.25
  -1   2  -5  668.34   32.85
  -1   2  -5  656.22   32.88
   1  -2   5  638.29   32.84
   1  -2   5  670.85   32.85
   1  -2   5  653.97   33.07
   1  -2   5  643.31   33.01
   1  -2   5  652.56   33.25
   1  -2   5  658.97   33.03
  -2   2  -5   26.74    1.42
  -2   2  -5   26.02    1.71
  -2   2  -5   25.65    1.73
  -2   2  -5   27.49    2.13
  -2   2  -5   25.51    1.48
  -2   2  -5   21.99    1.68
  -2   2  -5   25.57    1.78
   2  -2   5   27.00    1.77
   2  -2   5   25.90    1.78
   2  -2   5   24.58    1.69
   2  -2   5   26.36    2.06
   2  -2   5   26.98    1.41
   2  -2   5   28.34    1.78
   2  -2   5   28.93    1.53
  -3   2  -5    5.79    0.84
  -3   2  -5    7.42    0.89
  -3   2  -5    7.48    0.62
  -3   2  -5    7.49    0.90
  -3   2  -5    7.13    1.05
  -3   2  -5    7.73    1.55
   3  -2   5    7.62    0.99
   3  -2   5    7.97    0.98
   3  -2   5    7.74    0.41
   3  -2   5    7.81    0.91
   3  -2   5    7.91    0.68
   3  -2   5    7.68    1.36
   3  -2   5    8.80    1.24
  -4   2  -5    5.41    0.87
  -4   2  -5    3.85    1.02
  -4   2  -5    5.31    0.91
  -4   2  -5    2.23    1.23
  -4   2  -5    3.44    0.52
   4  -2   5    2.91    1.05
   4  -2   5    4.76    0.78
   4  -2   5    6.02    0.98
   4  -2   5    4.20    0.63
   4  -2   5    4.82    0.95
   4  -2   5    5.06    0.93
  -5   2  -5   15.19    1.69
  -5   2  -5   14.27    1.38
  -5   2  -5   24.10    4.48
  -5   2  -5   17.54    1.16
   5  -2   5   15.08    1.55
   5  -2   5   16.41    1.26
   5  -2   5   14.58    1.32
  -6   2  -5    1.23    1.13
  -6   2  -5    2.88    0.79
  -6   2  -5    1.92    1.48
   6  -2   5    2.87    1.05
   6  -2   5    3.40    1.01
   6  -2   5    2.86    0.70
   6  -2   5    2.13    0.74
  -7   2  -5    1.58    0.72
  -7   2  -5    2.00    1.31
  -7   2  -5    1.91    1.56
   7  -2   5   -0.12    0.90
   7  -2   5    0.97    1.03
   7  -2   5    1.11    0.77
   7  -2   5    1.20    0.68
  -8   2  -5    7.10    2.12
  -8   2  -5    6.88    1.67
   8  -2   5    6.09    1.17
   8  -2   5    7.06    1.51
   8  -2   5    6.26    1.44
   9   1  -5    3.55    1.26
   9   1  -5    4.36    1.25
   9   1  -5    5.37    1.65
  -9  -1   5    5.51    1.32
   8   1  -5    0.35    0.76
   8   1  -5   -0.87    0.96
   8   1  -5    0.43    0.82
   8   1  -5    1.61    1.09
   8   1  -5   -0.15    0.92
   8   1  -5    1.08    0.58
  -8  -1   5   -0.25    0.90
   7   1  -5   -0.01    0.72
   7   1  -5   -0.57    0.84
   7   1  -5    0.95    0.85
   7   1  -5    0.46    0.62
   7   1  -5   -0.04    0.65
   7   1  -5    0.53    0.79
  -7  -1   5   -0.01    0.88
  -7  -1   5   -0.05    0.74
   6   1  -5    6.22    1.03
   6   1  -5    6.08    0.88
   6   1  -5    6.18    0.90
   6   1  -5    6.44    1.05
   6   1  -5    6.78    1.06
   6   1  -5    7.48    1.12
  -6  -1   5    6.04    1.20
  -6  -1   5    6.20    0.95
   5   1  -5   21.31    1.66
   5   1  -5   19.87    1.58
   5   1  -5   20.16    1.62
   5   1  -5   21.85    1.59
   5   1  -5   22.51    1.74
   5   1  -5   21.00    1.42
   5   1  -5   21.77    1.62
   5   1  -5   26.18    1.90
   5   1  -5   19.45    1.51
   5   1  -5   20.70    1.62
  -5  -1   5   21.73    1.49
  -5  -1   5   23.24    1.50
  -5  -1   5   21.06    1.75
   4   1  -5   77.17    4.04
   4   1  -5   72.06    4.09
   4   1  -5   69.35    3.85
   4   1  -5   67.93    4.00
   4   1  -5   72.36    4.13
   4   1  -5   72.02    4.06
   4   1  -5   82.58    4.05
   4   1  -5   68.32    3.92
  -4  -1   5   74.77    4.00
  -4  -1   5   73.54    3.86
  -4  -1   5   75.84    4.16
  -4  -1   5   65.85    3.95
   3   1  -5   79.04    4.25
   3   1  -5   77.57    4.22
   3   1  -5   79.57    4.24
   3   1  -5   74.45    3.99
   3   1  -5   73.27    4.17
   3   1  -5   78.23    4.29
   3   1  -5   74.48    4.15
  -3  -1   5   76.42    4.23
  -3  -1   5   80.55    4.23
  -3  -1   5   76.52    3.99
  -3  -1   5   80.45    4.31
  -3  -1   5   74.79    4.18
  -3  -1   5   78.60    4.12
   2   1  -5   93.02    5.03
   2   1  -5   99.50    5.11
   2   1  -5   95.54    5.07
   2   1  -5   87.24    4.99
   2   1  -5   93.83    5.26
  -2  -1   5   98.56    5.04
  -2  -1   5   96.76    5.04
  -2  -1   5   90.99    5.04
  -2  -1   5   97.32    5.11
  -2  -1   5   92.77    5.03
   1   1  -5   40.33    2.24
   1   1  -5   37.67    2.16
   1   1  -5   37.28    2.22
   1   1  -5   38.38    2.36
   1   1  -5   36.46    2.14
   1   1  -5   36.24    2.11
  -1  -1   5   37.54    2.23
  -1  -1   5   38.54    2.00
  -1  -1   5   35.67    2.10
  -1  -1   5   39.72    2.20
  -1  -1   5   37.88    2.17
  -1  -1   5   39.27    2.16
  -1  -1   5   39.63    2.16
  -1  -1   5   35.31    2.30
   0   1  -5  142.68    7.39
   0   1  -5  150.08    7.51
   0   1  -5  142.17    7.60
   0   1  -5  141.37    7.43
   0   1  -5  143.38    7.41
   0   1  -5  129.36    7.33
   0   1  -5  146.05    7.34
   0  -1   5  127.67    7.26
   0  -1   5  140.69    7.40
   0  -1   5  160.13    7.80
   0  -1   5  145.08    7.40
   0  -1   5  139.24    7.33
   0  -1   5  145.92    7.34
   0  -1   5  137.69    7.42
  -1   1  -5   15.08    0.99
  -1   1  -5   14.60    1.47
  -1   1  -5   14.30    1.14
  -1   1  -5   14.98    1.09
  -1   1  -5   15.98    0.90
  -1   1  -5   15.83    0.86
  -1   1  -5   17.55    1.17
  -1   1  -5   14.11    1.11
   1  -1   5   16.25    1.01
   1  -1   5   14.78    1.12
   1  -1   5   14.32    1.15
   1  -1   5   16.03    1.47
   1  -1   5   14.49    1.19
   1  -1   5   14.85    1.10
  -2   1  -5   11.78    0.96
  -2   1  -5    8.79    0.93
  -2   1  -5   11.77    1.09
  -2   1  -5   11.03    0.82
  -2   1  -5   10.39    1.01
   2  -1   5   12.59    0.87
   2  -1   5   12.16    1.10
   2  -1   5   10.21    1.00
   2  -1   5   10.04    1.05
   2  -1   5   12.31    0.98
   2  -1   5   13.69    1.53
  -3   1  -5  112.11    5.99
  -3   1  -5  102.09    6.80
  -3   1  -5  121.42    6.33
  -3   1  -5  114.42    6.04
  -3   1  -5  117.39    6.13
   3  -1   5  120.57    6.26
   3  -1   5  109.61    6.22
   3  -1   5  112.07    6.46
   3  -1   5  109.02    6.01
   3  -1   5  114.26    6.01
   3  -1   5  125.84    6.84
  -4   1  -5   14.88    1.23
  -4   1  -5   17.82    1.18
  -4   1  -5   13.37    1.91
  -4   1  -5   15.75    1.39
  -4   1  -5   19.26    1.42
   4  -1   5   17.81    1.49
   4  -1   5   14.41    1.19
   4  -1   5   14.42    1.43
   4  -1   5   15.48    1.75
   4  -1   5   15.29    1.31
   4  -1   5   16.81    1.26
  -5   1  -5    6.04    0.91
  -5   1  -5    6.68    1.30
  -5   1  -5    8.71    0.86
  -5   1  -5    7.53    1.65
   5  -1   5    6.13    0.94
   5  -1   5    5.76    0.81
   5  -1   5    8.11    1.82
   5  -1   5    7.00    1.14
  -6   1  -5    6.02    1.23
  -6   1  -5    6.47    0.88
  -6   1  -5    7.31    0.85
  -6   1  -5    6.32    1.73
   6  -1   5    7.03    1.35
   6  -1   5    5.79    0.41
   6  -1   5    5.61    1.18
   6  -1   5    5.98    1.19
   6  -1   5    4.40    0.77
  -7   1  -5   -0.18    1.11
  -7   1  -5    1.21    0.37
   7  -1   5    0.77    0.94
   7  -1   5   -1.18    0.95
   7  -1   5   -0.90    0.51
   7  -1   5    0.86    0.84
   7  -1   5    0.12    0.18
  -8   1  -5    0.25    1.49
  -8   1  -5   -0.41    1.22
   8  -1   5    0.58    1.07
   8  -1   5   -0.59    0.85
   8  -1   5    0.44    1.17
   9   0  -5    3.76    1.54
   9   0  -5    6.79    1.26
   9   0  -5   11.69    1.62
   9   0  -5    9.50    1.43
   8   0  -5    2.01    1.07
   8   0  -5    0.72    1.03
   8   0  -5    1.10    0.84
   8   0  -5    0.86    1.03
   7   0  -5    7.38    1.01
   7   0  -5    5.82    1.11
   7   0  -5    7.29    1.16
   7   0  -5    7.49    1.40
   7   0  -5    7.41    1.19
   7   0  -5    7.36    0.99
  -7   0   5    6.93    1.30
  -7   0   5    5.99    1.12
   6   0  -5    1.80    0.84
   6   0  -5    0.59    0.55
   6   0  -5   -0.47    0.70
   6   0  -5    0.21    0.68
   6   0  -5    0.21    0.78
   6   0  -5    0.58    0.70
   6   0  -5    0.86    0.73
   6   0  -5    0.44    0.67
   6   0  -5   -0.62    0.72
  -6   0   5   -0.21    0.65
  -6   0   5   -0.90    0.71
   5   0  -5   52.52    3.24
   5   0  -5   45.25    3.15
   5   0  -5   55.93    3.02
   5   0  -5   54.04    3.24
   5   0  -5   52.68    3.10
   5   0  -5   59.61    3.40
   5   0  -5   51.07    3.10
   5   0  -5   53.59    3.87
   5   0  -5   54.88    3.15
  -5   0   5   54.58    3.03
  -5   0   5   56.86    3.27
  -5   0   5   55.17    3.21
   4   0  -5  129.22    7.46
   4   0  -5  137.09    7.40
   4   0  -5  135.68    7.47
   4   0  -5  137.55    7.27
   4   0  -5  140.24    7.43
   4   0  -5  151.09    7.25
   4   0  -5  158.94    7.84
   4   0  -5  137.17    7.42
   4   0  -5  145.40    7.51
  -4   0   5  132.08    7.36
  -4   0   5  142.54    7.83
  -4   0   5  142.45    7.50
   3   0  -5   69.91    3.68
   3   0  -5   71.40    3.94
   3   0  -5   68.75    4.00
   3   0  -5   69.42    3.88
   3   0  -5   79.42    3.94
   3   0  -5   72.30    3.93
   3   0  -5   68.83    3.67
   3   0  -5   73.89    3.84
   3   0  -5   72.32    3.86
  -3   0   5   67.39    3.86
  -3   0   5   72.36    3.93
  -3   0   5   65.89    3.91
  -3   0   5   72.83    3.95
   2   0  -5   13.96    1.16
   2   0  -5   15.36    1.03
   2   0  -5   16.07    1.34
   2   0  -5   15.68    1.18
   2   0  -5   14.66    1.10
   2   0  -5   15.47    1.07
   2   0  -5   14.79    0.98
  -2   0   5   16.92    1.14
  -2   0   5   16.66    1.14
  -2   0   5   15.43    1.16
  -2   0   5   15.03    1.29
  -2   0   5   14.67    1.00
   1   0  -5  108.83    5.37
   1   0  -5   95.94    5.06
   1   0  -5  102.50    5.30
   1   0  -5   99.50    5.19
   1   0  -5   88.13    5.09
   1   0  -5   95.99    5.32
   1   0  -5   94.82    5.03
  -1   0   5   98.72    5.20
  -1   0   5   98.24    5.34
  -1   0   5   99.07    5.02
  -1   0   5   96.68    5.17
  -1   0   5   99.47    5.17
  -1   0   5   96.86    5.07
   0   0  -5  127.28    6.72
   0   0  -5  132.42    6.82
   0   0  -5  131.01    6.86
   0   0  -5  118.88    6.75
   0   0  -5  129.24    7.04
   0   0  -5  132.21    6.82
   0   0  -5  132.40    6.82
   0   0   5  131.30    7.05
   0   0   5  131.84    6.74
   0   0   5  134.03    6.89
   0   0   5  130.51    6.79
   0   0   5  134.23    6.79
   0   0   5  140.06    6.89
   0   0   5  131.27    6.82
  -1   0  -5    2.81    0.52
  -1   0  -5    2.54    0.63
  -1   0  -5    2.52    0.88
  -1   0  -5    2.35    0.57
  -1   0  -5    3.37    0.59
  -1   0  -5    2.22    0.30
   1   0   5    2.30    0.60
   1   0   5    4.22    0.96
   1   0   5    2.24    0.30
   1   0   5    2.53    0.55
   1   0   5    2.18    0.53
   1   0   5    3.33    0.51
   1   0   5    2.44    0.47
  -2   0  -5   25.78    1.58
  -2   0  -5   22.90    2.12
  -2   0  -5   25.07    1.55
  -2   0  -5   25.89    1.77
  -2   0  -5   25.90    1.70
  -2   0  -5   24.93    1.33
   2   0   5   24.21    2.11
   2   0   5   25.48    1.54
   2   0   5   25.46    1.61
   2   0   5   25.20    1.62
   2   0   5   27.31    1.77
   2   0   5   27.97    1.78
   2   0   5   27.01    1.33
  -3   0  -5   64.98    3.79
  -3   0  -5   64.00    3.68
  -3   0  -5   74.45    4.32
  -3   0  -5   55.18    3.53
  -3   0  -5   66.96    3.49
   3   0   5   65.69    3.48
   3   0   5   68.12    3.80
   3   0   5   64.44    3.73
   3   0   5   62.93    4.02
   3   0   5   63.72    3.29
   3   0   5   65.71    3.63
  -4   0  -5    5.72    1.34
  -4   0  -5    4.57    0.92
  -4   0  -5    5.01    0.66
  -4   0  -5    8.36    1.12
  -4   0  -5    5.28    0.80
   4   0   5    6.14    1.05
   4   0   5    7.06    0.98
   4   0   5    6.70    1.86
   4   0   5    4.39    0.70
   4   0   5    5.60    0.41
   4   0   5    5.00    0.89
   4   0   5    6.16    0.95
  -5   0  -5    3.13    1.10
  -5   0  -5    3.42    1.32
  -5   0  -5    2.81    0.76
  -5   0  -5    4.03    0.58
   5   0   5    3.95    0.89
   5   0   5    4.16    0.42
   5   0   5    4.22    0.95
   5   0   5    4.15    1.10
   5   0   5    3.60    0.48
   5   0   5    3.52    1.20
  -6   0  -5    2.71    1.27
  -6   0  -5    2.52    1.51
   6   0   5    4.81    1.28
   6   0   5    3.70    0.47
   6   0   5    5.37    1.59
   6   0   5    3.51    1.21
  -7   0  -5    1.21    1.21
  -7   0  -5   -0.08    1.40
   7   0   5    0.96    0.94
   7   0   5    1.53    0.96
   7   0   5    3.04    1.23
   7   0   5    1.67    0.46
  -8   0  -5    4.08    1.53
  -8   0  -5    6.14    1.92
   8   0   5    3.49    1.17
   8   0   5    4.44    1.30
   8   0   5    4.88    1.47
  10  -1  -5    1.69    1.05
  10  -1  -5    2.57    1.12
  10  -1  -5    1.51    0.92
  10  -1  -5    3.17    1.05
   9  -1  -5   17.49    1.76
   9  -1  -5   13.28    2.02
   9  -1  -5   20.78    1.91
   9  -1  -5   20.18    1.80
   9  -1  -5   18.73    1.89
   9  -1  -5   23.20    2.24
   9  -1  -5   16.26    1.75
   8  -1  -5    4.73    1.18
   8  -1  -5    2.89    0.97
   8  -1  -5    1.09    1.05
   8  -1  -5    2.93    1.05
   8  -1  -5    1.97    0.97
   8  -1  -5    0.85    0.81
   8  -1  -5    0.35    1.01
   7  -1  -5    0.64    0.81
   7  -1  -5    0.14    0.89
   7  -1  -5    1.09    0.68
   7  -1  -5    0.34    0.77
   7  -1  -5    0.12    0.84
   7  -1  -5    1.88    1.13
   7  -1  -5    0.78    1.21
  -7   1   5    0.72    0.87
   6  -1  -5   14.23    1.41
   6  -1  -5   13.82    1.37
   6  -1  -5   13.24    1.33
   6  -1  -5   13.86    1.29
   6  -1  -5   14.96    1.69
   6  -1  -5   13.14    1.45
   6  -1  -5   12.91    1.60
   6  -1  -5   15.40    1.32
   6  -1  -5   19.33    1.41
   6  -1  -5   16.02    1.71
  -6   1   5   14.76    1.48
   5  -1  -5   24.11    2.04
   5  -1  -5   24.34    1.78
   5  -1  -5   27.33    2.04
   5  -1  -5   23.56    1.63
   5  -1  -5   26.04    1.80
   5  -1  -5   24.60    1.70
   5  -1  -5   25.34    1.72
   5  -1  -5   23.70    2.26
   5  -1  -5   26.43    1.62
   5  -1  -5   23.37    1.70
  -5   1   5   25.23    1.78
  -5   1   5   26.24    1.82
   4  -1  -5    2.46    0.63
   4  -1  -5    3.32    0.59
   4  -1  -5    2.93    0.53
   4  -1  -5    3.36    0.52
   4  -1  -5    4.37    0.73
   4  -1  -5    3.66    0.70
   4  -1  -5    2.36    0.86
   4  -1  -5    3.21    0.54
   4  -1  -5    2.92    0.77
  -4   1   5    3.07    0.66
  -4   1   5    2.71    0.69
   3  -1  -5   11.13    1.07
   3  -1  -5   10.45    1.36
   3  -1  -5   10.39    0.96
   3  -1  -5   11.10    0.89
   3  -1  -5   10.85    1.06
   3  -1  -5   10.53    0.79
   3  -1  -5   11.16    0.80
   3  -1  -5   12.02    1.01
  -3   1   5   10.79    1.00
  -3   1   5   10.47    1.01
  -3   1   5   13.53    1.03
  -3   1   5   10.89    0.89
  -3   1   5   10.01    1.20
   2  -1  -5   19.06    1.19
   2  -1  -5   16.70    1.72
   2  -1  -5   19.51    1.10
   2  -1  -5   20.23    1.36
   2  -1  -5   21.28    1.41
   2  -1  -5   21.22    1.75
   2  -1  -5   20.20    1.33
  -2   1   5   20.29    1.18
  -2   1   5   20.64    1.33
  -2   1   5   21.31    1.41
  -2   1   5   20.21    1.34
  -2   1   5   19.54    1.33
  -2   1   5   20.45    1.56
   1  -1  -5   80.37    4.45
   1  -1  -5   82.85    4.47
   1  -1  -5   86.44    4.65
   1  -1  -5   87.88    4.46
   1  -1  -5   85.29    4.47
   1  -1  -5   83.21    4.71
  -1   1   5   83.86    4.48
  -1   1   5   85.90    4.39
  -1   1   5   77.04    4.42
  -1   1   5   82.45    4.27
  -1   1   5   84.19    4.45
  -1   1   5   81.41    4.66
  -1   1   5   86.01    4.42
   0  -1  -5   72.34    3.97
   0  -1  -5   72.72    3.95
   0  -1  -5   72.04    3.91
   0  -1  -5   74.92    3.87
   0  -1  -5   74.31    3.97
   0  -1  -5   75.39    4.27
   0   1   5   73.26    4.20
   0   1   5   72.68    3.87
   0   1   5   75.05    3.99
   0   1   5   77.79    3.99
   0   1   5   74.30    3.95
   0   1   5   71.17    3.83
   0   1   5   69.17    3.89
  -1  -1  -5   11.35    1.45
  -1  -1  -5   10.94    0.82
  -1  -1  -5    8.71    0.87
  -1  -1  -5   10.46    0.99
  -1  -1  -5    9.74    0.70
  -1  -1  -5    9.36    0.96
   1   1   5    9.88    0.91
   1   1   5    8.56    0.92
   1   1   5   10.31    0.78
   1   1   5   10.03    0.98
   1   1   5    8.87    1.39
   1   1   5    9.00    0.93
   1   1   5    9.19    0.75
  -2  -1  -5  198.91    9.93
  -2  -1  -5  161.74    9.92
  -2  -1  -5  187.84    9.73
  -2  -1  -5  177.65    9.91
  -2  -1  -5  196.44   10.25
  -2  -1  -5  203.35   10.05
   2   1   5  203.39    9.81
   2   1   5  194.82    9.74
   2   1   5  199.64    9.99
   2   1   5  190.14    9.93
   2   1   5  182.61   10.18
   2   1   5  193.22   10.02
  -3  -1  -5  114.67    5.76
  -3  -1  -5  124.06    6.20
  -3  -1  -5  118.80    6.02
  -3  -1  -5  104.07    6.01
  -3  -1  -5  119.26    6.45
  -3  -1  -5  108.94    5.76
   3   1   5  103.12    5.73
   3   1   5  108.84    6.13
   3   1   5  114.51    5.93
   3   1   5  108.62    6.08
   3   1   5  106.24    6.30
  -4  -1  -5    4.70    1.12
  -4  -1  -5    6.00    0.87
  -4  -1  -5    6.01    1.36
  -4  -1  -5    5.35    1.08
  -4  -1  -5    5.19    0.53
  -4  -1  -5    4.73    0.57
   4   1   5    4.91    0.96
   4   1   5    4.45    1.22
   4   1   5    6.14    1.08
   4   1   5    4.85    0.44
   4   1   5    6.14    1.03
   4   1   5    5.39    0.57
  -5  -1  -5   20.65    1.33
  -5  -1  -5   14.06    2.16
  -5  -1  -5   14.53    1.77
   5   1   5   21.63    1.69
   5   1   5   18.63    1.80
   5   1   5   16.92    1.17
   5   1   5   16.25    1.64
  -6  -1  -5    1.79    1.31
   6   1   5    1.78    0.51
   6   1   5    2.32    0.96
   6   1   5    0.28    0.99
   6   1   5    2.24    1.10
   6   1   5    2.13    0.48
  -7  -1  -5    0.50    1.18
  -7  -1  -5    1.60    1.44
   7   1   5    2.58    0.56
   7   1   5    1.05    0.99
   7   1   5    1.96    1.10
   7   1   5    2.02    1.17
  -8  -1  -5    5.52    1.64
   8   1   5    8.79    2.40
   8   1   5    6.16    0.80
   8   1   5    6.59    1.48
   8   1   5    6.99    1.46
  10  -2  -5   -0.34    1.02
  10  -2  -5    1.70    1.09
  10  -2  -5    2.59    1.11
  10  -2  -5   -0.42    0.96
  10  -2  -5    0.61    0.96
  10  -2  -5    1.88    1.00
   9  -2  -5    0.65    0.82
   9  -2  -5    0.84    0.84
   9  -2  -5    1.24    0.99
   9  -2  -5    2.50    1.27
   9  -2  -5    2.12    1.11
   9  -2  -5    0.39    1.15
   9  -2  -5    0.01    1.00
   8  -2  -5   85.62    5.10
   8  -2  -5   88.30    5.12
   8  -2  -5   93.35    5.24
   7  -2  -5   10.08    1.73
   7  -2  -5   10.94    1.65
   7  -2  -5    9.33    1.26
   7  -2  -5    9.97    1.26
   7  -2  -5   15.00    2.56
   7  -2  -5   13.11    1.63
   7  -2  -5   10.93    1.24
   7  -2  -5   11.42    1.20
   6  -2  -5   61.00    3.71
   6  -2  -5   60.21    3.37
   6  -2  -5   53.79    3.24
   6  -2  -5   52.45    3.67
   6  -2  -5   55.61    3.26
   6  -2  -5   53.51    3.23
   6  -2  -5   50.97    3.22
   6  -2  -5   52.34    3.34
   6  -2  -5   54.14    3.32
   6  -2  -5   52.38    3.35
  -6   2   5   55.39    3.34
  -6   2   5   53.29    3.33
   5  -2  -5   32.44    2.29
   5  -2  -5   34.82    2.07
   5  -2  -5   31.49    2.18
   5  -2  -5   32.24    2.06
   5  -2  -5   28.95    2.10
   5  -2  -5   30.67    2.47
   5  -2  -5   39.11    3.34
   5  -2  -5   33.57    1.98
   5  -2  -5   32.26    2.18
   5  -2  -5   31.40    2.10
  -5   2   5   33.78    2.14
  -5   2   5   32.59    2.13
  -5   2   5   31.24    2.16
   4  -2  -5    0.12    0.32
   4  -2  -5   -0.21    0.70
   4  -2  -5    0.31    0.51
   4  -2  -5    0.53    0.45
   4  -2  -5   -0.28    0.60
   4  -2  -5   -0.39    0.43
   4  -2  -5   -0.46    0.41
   4  -2  -5    0.27    0.54
   4  -2  -5    0.71    0.54
  -4   2   5    0.29    0.53
  -4   2   5   -0.32    0.48
  -4   2   5    0.35    0.46
   3  -2  -5   52.90    2.93
   3  -2  -5   48.44    2.99
   3  -2  -5   52.93    3.30
   3  -2  -5   54.02    3.03
   3  -2  -5   50.38    3.01
   3  -2  -5   52.95    2.76
   3  -2  -5   53.25    2.93
   3  -2  -5   51.46    3.00
  -3   2   5   50.74    2.91
  -3   2   5   56.54    3.23
  -3   2   5   54.70    3.00
  -3   2   5   49.70    2.97
  -3   2   5   53.00    3.03
   2  -2  -5    9.48    1.54
   2  -2  -5    9.14    0.86
   2  -2  -5    9.76    0.91
   2  -2  -5   10.13    0.95
   2  -2  -5    8.81    0.95
   2  -2  -5    9.89    1.00
   2  -2  -5   10.13    0.84
  -2   2   5   10.10    0.91
  -2   2   5   10.35    0.99
  -2   2   5    9.00    0.86
  -2   2   5   11.08    1.27
   1  -2  -5    0.07    0.42
   1  -2  -5    0.34    0.37
   1  -2  -5   -0.08    0.98
   1  -2  -5    0.53    0.53
   1  -2  -5    0.05    0.47
   1  -2  -5   -0.01    0.43
   1  -2  -5    0.32    0.42
  -1   2   5    0.00    0.41
  -1   2   5    0.51    0.50
  -1   2   5    0.40    0.41
  -1   2   5    0.38    0.75
  -1   2   5    1.02    0.47
  -1   2   5    0.07    0.12
   0  -2  -5  237.25   12.13
   0  -2  -5  232.04   12.17
   0  -2  -5  236.08   12.47
   0  -2  -5  242.78   12.24
   0  -2  -5  220.59   12.13
   0  -2  -5  242.35   12.23
   0   2   5  242.80   12.47
   0   2   5  231.58   12.16
   0   2   5  238.43   12.24
   0   2   5  244.46   12.24
   0   2   5  237.52   12.14
  -1  -2  -5   71.47    3.78
  -1  -2  -5   70.22    3.81
  -1  -2  -5   71.04    4.00
  -1  -2  -5   72.81    3.95
  -1  -2  -5   74.04    4.33
   1   2   5   69.15    3.91
   1   2   5   68.14    3.96
   1   2   5   73.85    3.82
   1   2   5   71.88    4.24
   1   2   5   69.91    3.99
  -2  -2  -5    0.90    0.31
  -2  -2  -5    0.06    0.33
  -2  -2  -5   -0.18    0.56
  -2  -2  -5    0.20    0.95
  -2  -2  -5    0.10    1.06
  -2  -2  -5    0.26    0.48
   2   2   5    0.34    0.39
   2   2   5    1.64    0.81
   2   2   5    1.74    0.64
   2   2   5   -0.38    0.52
  -3  -2  -5  177.58    9.08
  -3  -2  -5  162.79    8.39
  -3  -2  -5  157.10    8.75
   3   2   5  153.40    8.82
   3   2   5  163.12    8.40
   3   2   5  157.48    8.64
   3   2   5  171.22    8.67
   3   2   5  158.01    8.71
  -4  -2  -5   76.30    3.88
  -4  -2  -5   65.83    4.32
  -4  -2  -5   67.90    4.53
  -4  -2  -5   77.44    4.40
   4   2   5   71.63    4.19
   4   2   5   69.40    4.22
   4   2   5   73.76    3.88
   4   2   5   70.41    4.57
  -5  -2  -5   37.72    3.21
  -5  -2  -5   37.38    2.28
  -5  -2  -5   40.70    2.96
   5   2   5   34.24    3.01
   5   2   5   43.16    2.90
   5   2   5   44.49    2.37
   5   2   5   40.17    2.72
  -6  -2  -5    3.30    1.29
  -6  -2  -5    3.76    1.48
   6   2   5    3.76    0.71
   6   2   5    3.06    1.84
   6   2   5    4.79    1.26
  -7  -2  -5    0.58    1.24
  -7  -2  -5    0.74    1.27
   7   2   5    1.03    1.09
   7   2   5   -1.28    1.00
   7   2   5    1.17    0.97
   7   2   5    0.77    0.62
   7   2   5    1.63    0.49
  -8  -2  -5   11.47    1.83
   8   2   5    7.42    1.75
   8   2   5    6.86    1.66
   8   2   5    7.68    1.53
   8   2   5    8.55    1.04
   9  -3  -5    5.59    1.27
   9  -3  -5    5.11    1.15
   9  -3  -5    6.17    1.40
   9  -3  -5    4.11    1.10
   9  -3  -5    3.29    1.05
   9  -3  -5    4.74    1.08
   9  -3  -5    3.21    1.50
   8  -3  -5    3.06    1.24
   8  -3  -5    2.98    0.96
   8  -3  -5    2.03    0.97
   8  -3  -5    2.48    0.92
   8  -3  -5    2.97    1.05
   8  -3  -5    3.53    1.04
   7  -3  -5    3.33    0.80
   7  -3  -5    3.17    1.83
   7  -3  -5    2.07    0.95
   7  -3  -5    3.48    0.87
   7  -3  -5    3.63    1.10
   7  -3  -5    3.93    0.95
   7  -3  -5    3.53    0.99
   6  -3  -5    3.17    1.25
   6  -3  -5    4.92    1.13
   6  -3  -5    3.91    0.83
   6  -3  -5    4.51    0.89
   6  -3  -5    4.47    0.97
   6  -3  -5    3.96    0.89
  -6   3   5    4.67    1.12
  -6   3   5    3.65    0.90
   5  -3  -5   51.29    3.06
   5  -3  -5   54.44    3.20
   5  -3  -5   53.73    3.10
   5  -3  -5   49.78    3.14
   5  -3  -5   51.09    3.01
   5  -3  -5   50.70    3.56
   5  -3  -5   51.06    3.26
   5  -3  -5   50.05    2.93
  -5   3   5   52.56    3.12
  -5   3   5   54.97    3.14
  -5   3   5   51.51    3.01
   4  -3  -5   20.83    1.46
   4  -3  -5   21.88    2.09
   4  -3  -5   23.82    1.40
   4  -3  -5   22.48    1.59
   4  -3  -5   23.43    1.72
   4  -3  -5   22.68    1.63
  -4   3   5   22.37    1.48
  -4   3   5   23.54    1.63
  -4   3   5   23.99    1.52
   3  -3  -5    3.09    0.74
   3  -3  -5    4.27    0.96
   3  -3  -5    3.33    0.68
   3  -3  -5    0.92    1.52
   3  -3  -5    4.05    0.74
   3  -3  -5    3.99    0.74
   3  -3  -5    3.18    0.41
   3  -3  -5    3.75    0.51
  -3   3   5    3.66    0.70
  -3   3   5    2.64    1.01
  -3   3   5    3.60    0.60
  -3   3   5    3.70    0.71
  -3   3   5    3.72    0.51
   2  -3  -5   10.82    1.06
   2  -3  -5   11.43    0.86
   2  -3  -5   13.87    1.16
   2  -3  -5   11.97    0.73
   2  -3  -5   12.49    1.04
   2  -3  -5   12.89    1.08
   2  -3  -5   13.07    1.72
   2  -3  -5   11.91    1.04
  -2   3   5   12.66    0.67
  -2   3   5   11.41    1.05
  -2   3   5   11.00    1.03
  -2   3   5   12.27    1.01
  -2   3   5    9.43    0.89
  -2   3   5   10.79    1.42
   1  -3  -5    4.86    0.75
   1  -3  -5    5.29    1.34
   1  -3  -5    3.89    0.75
   1  -3  -5    3.87    0.58
   1  -3  -5    4.23    0.68
   1  -3  -5    3.72    0.55
   1  -3  -5    3.29    0.70
  -1   3   5    4.83    0.77
  -1   3   5    3.84    0.91
  -1   3   5    5.73    0.85
  -1   3   5    5.68    0.63
  -1   3   5    4.53    0.70
  -1   3   5    5.04    0.48
   0  -3  -5   72.02    4.12
   0  -3  -5   74.98    4.20
   0  -3  -5   77.56    4.27
   0  -3  -5   69.33    4.05
   0  -3  -5   78.32    4.60
   0  -3  -5   74.14    4.09
   0  -3  -5   75.52    4.09
   0   3   5   77.15    4.10
   0   3   5   77.14    4.23
   0   3   5   76.21    4.05
   0   3   5   81.40    4.29
   0   3   5   77.74    4.14
   0   3   5   78.12    4.48
  -1  -3  -5   31.27    1.86
  -1  -3  -5   31.49    1.98
  -1  -3  -5   30.89    1.87
  -1  -3  -5   31.41    1.95
  -1  -3  -5   34.35    2.07
  -1  -3  -5   32.01    2.52
   1   3   5   32.90    2.18
   1   3   5   33.62    1.98
   1   3   5   32.09    2.40
   1   3   5   35.37    2.17
   1   3   5   34.28    2.04
   1   3   5   31.54    1.98
  -2  -3  -5   29.51    2.05
  -2  -3  -5   23.42    1.84
  -2  -3  -5   27.39    1.56
  -2  -3  -5   27.72    1.72
  -2  -3  -5   34.33    2.52
  -2  -3  -5   28.04    1.55
  -2  -3  -5   27.54    2.34
   2   3   5   25.63    2.62
   2   3   5   27.12    1.77
   2   3   5   26.74    2.23
   2   3   5   28.35    1.98
   2   3   5   28.29    1.89
  -3  -3  -5   10.00    1.14
  -3  -3  -5    6.92    1.49
  -3  -3  -5    6.07    1.17
  -3  -3  -5    6.69    0.93
  -3  -3  -5    7.90    0.84
   3   3   5    8.70    1.46
   3   3   5    5.82    1.15
   3   3   5    6.80    0.98
   3   3   5    7.43    1.10
   3   3   5    6.68    1.12
   3   3   5    6.60    0.89
  -4  -3  -5    0.60    1.02
  -4  -3  -5    0.36    1.14
  -4  -3  -5    1.73    0.56
   4   3   5   -0.24    1.75
   4   3   5    1.09    1.14
   4   3   5    2.74    0.82
   4   3   5    2.21    1.03
  -5  -3  -5    0.62    1.12
  -5  -3  -5    1.04    0.52
  -5  -3  -5   -0.33    1.09
   5   3   5    0.87    1.13
   5   3   5    2.05    1.05
   5   3   5    1.10    0.67
   5   3   5    0.38    0.95
  -6  -3  -5   13.09    1.86
  -6  -3  -5   13.49    2.17
   6   3   5   11.58    1.76
   6   3   5   12.61    1.30
  -7  -3  -5    6.49    1.68
   7   3   5    9.18    1.09
   7   3   5    6.95    1.57
   7   3   5    6.96    1.68
   9  -4  -5    3.89    1.29
   9  -4  -5    2.77    1.04
   9  -4  -5    4.81    1.29
   9  -4  -5    5.27    1.26
   9  -4  -5    3.48    0.96
   9  -4  -5    3.27    1.00
   8  -4  -5   -0.11    0.85
   8  -4  -5   -1.11    0.79
   8  -4  -5    0.49    0.77
   8  -4  -5   -0.44    1.14
   8  -4  -5    1.16    0.81
   8  -4  -5   -0.67    0.93
   8  -4  -5   -1.50    0.67
   7  -4  -5    2.44    0.93
   7  -4  -5    4.69    0.81
   7  -4  -5    1.89    1.30
   7  -4  -5    3.58    0.91
  -7   4   5    3.16    0.99
  -7   4   5    2.39    0.90
   6  -4  -5   16.94    1.58
   6  -4  -5   17.51    2.21
   6  -4  -5   16.35    1.36
   6  -4  -5   15.36    1.42
   6  -4  -5   18.55    1.79
   6  -4  -5   20.31    1.48
   6  -4  -5   17.06    1.61
   6  -4  -5   16.80    1.65
  -6   4   5   16.39    1.42
  -6   4   5   15.06    1.50
   5  -4  -5    0.00    0.45
   5  -4  -5    0.17    0.60
   5  -4  -5   -1.05    0.73
   5  -4  -5    2.14    1.20
   5  -4  -5   -0.22    1.06
   5  -4  -5   -0.23    0.51
  -5   4   5    0.42    0.62
  -5   4   5   -0.18    0.64
   4  -4  -5    2.88    0.97
   4  -4  -5    2.86    0.78
   4  -4  -5    1.75    0.47
   4  -4  -5    1.29    0.66
   4  -4  -5    2.16    1.10
   4  -4  -5    1.78    0.75
   4  -4  -5    0.76    1.04
   4  -4  -5    1.87    0.45
   4  -4  -5    1.57    0.69
  -4   4   5    1.40    0.59
  -4   4   5    2.21    0.69
  -4   4   5    1.53    0.40
  -4   4   5    1.90    0.69
   3  -4  -5    7.28    0.85
   3  -4  -5    9.43    0.69
   3  -4  -5    9.80    0.94
   3  -4  -5    9.03    1.18
   3  -4  -5   10.31    1.79
   3  -4  -5    8.85    1.64
  -3   4   5   10.01    0.97
  -3   4   5    8.66    0.66
  -3   4   5    8.83    0.63
  -3   4   5   11.45    1.68
  -3   4   5    8.64    0.91
  -3   4   5    7.57    1.11
   2  -4  -5   -0.68    0.66
   2  -4  -5    0.24    1.02
   2  -4  -5    0.12    0.23
   2  -4  -5    0.23    0.55
   2  -4  -5   -0.39    0.48
   2  -4  -5   -0.33    0.51
   2  -4  -5   -0.24    0.70
   2  -4  -5    0.15    0.31
  -2   4   5   -0.48    0.49
  -2   4   5   -0.64    0.78
  -2   4   5    0.13    0.43
  -2   4   5   -0.14    0.21
  -2   4   5    0.20    0.52
  -2   4   5    0.07    0.23
   1  -4  -5  128.90    7.02
   1  -4  -5  138.49    7.55
   1  -4  -5  140.83    6.86
   1  -4  -5  135.33    7.09
   1  -4  -5  128.09    7.07
   1  -4  -5  133.56    7.40
   1  -4  -5  134.50    7.06
  -1   4   5  126.28    7.35
  -1   4   5  128.57    6.89
  -1   4   5  126.86    7.06
  -1   4   5  135.97    6.89
  -1   4   5  138.13    7.17
   0  -4  -5   43.50    2.61
   0  -4  -5   37.23    2.63
   0  -4  -5   41.33    2.54
   0  -4  -5   41.61    2.76
   0  -4  -5   50.14    2.51
   0  -4  -5   45.13    3.29
   0  -4  -5   49.06    2.55
   0   4   5   42.90    2.75
   0   4   5   43.57    2.63
   0   4   5   44.12    2.51
   0   4   5   46.90    2.75
   0   4   5   42.88    2.52
   0   4   5   43.94    2.97
  -1  -4  -5   23.48    1.48
  -1  -4  -5   22.76    1.48
  -1  -4  -5   25.60    2.31
  -1  -4  -5   24.11    1.86
  -1  -4  -5   22.74    1.70
  -1  -4  -5   22.33    1.59
   1   4   5   22.16    1.84
   1   4   5   23.11    2.04
   1   4   5   25.57    1.66
   1   4   5   23.51    1.74
   1   4   5   23.28    1.59
   1   4   5   23.47    1.62
  -2  -4  -5   68.51    3.83
  -2  -4  -5   65.49    3.59
  -2  -4  -5   77.35    4.48
  -2  -4  -5   62.44    3.89
  -2  -4  -5   65.89    3.62
  -2  -4  -5   70.20    4.11
   2   4   5   67.39    3.87
   2   4   5   71.80    3.91
   2   4   5   70.46    4.25
   2   4   5   66.11    3.82
   2   4   5   64.80    3.90
   2   4   5   69.00    3.99
   2   4   5   61.44    4.04
  -3  -4  -5   29.31    2.51
  -3  -4  -5   29.40    2.82
  -3  -4  -5   33.32    2.50
   3   4   5   33.09    2.35
   3   4   5   32.58    2.11
   3   4   5   34.02    2.33
   3   4   5   33.64    2.26
   3   4   5   30.28    2.23
  -4  -4  -5   40.88    3.43
  -4  -4  -5   50.12    2.88
  -4  -4  -5   43.88    3.29
   4   4   5   48.68    3.41
   4   4   5   48.73    2.93
   4   4   5   49.30    3.15
   4   4   5   50.85    3.28
  -5  -4  -5    5.54    0.89
  -5  -4  -5    5.02    1.41
  -5  -4  -5    6.49    1.45
   5   4   5    4.66    1.26
   5   4   5    4.57    1.34
   5   4   5    4.99    0.99
   5   4   5    5.80    1.37
  -6  -4  -5   38.73    3.60
  -6  -4  -5   34.73    3.13
   6   4   5   48.21    3.22
   6   4   5   39.04    2.84
   6   4   5   39.19    3.13
  -7  -4  -5    3.47    1.85
   7   4   5    1.81    1.86
   7   4   5    3.09    2.83
   7   4   5    4.70    1.03
   9  -5  -5    8.53    1.28
   9  -5  -5    7.79    1.66
   9  -5  -5    6.15    1.23
   9  -5  -5    8.32    1.24
   8  -5  -5    0.75    1.23
   8  -5  -5    2.99    1.38
   8  -5  -5    0.00    0.96
   8  -5  -5    2.52    0.76
   8  -5  -5    0.57    0.76
  -8   5   5    0.48    0.83
   7  -5  -5    3.01    0.80
   7  -5  -5    1.53    0.77
   7  -5  -5    3.39    1.27
   7  -5  -5    0.83    1.22
   7  -5  -5    1.02    1.21
   7  -5  -5    2.48    0.58
  -7   5   5    0.79    0.76
  -7   5   5    1.84    0.89
   6  -5  -5    6.39    1.23
   6  -5  -5    6.21    0.81
   6  -5  -5    5.54    1.51
   6  -5  -5    7.19    1.46
   6  -5  -5    6.50    0.81
   6  -5  -5    5.39    1.01
  -6   5   5    5.53    1.03
  -6   5   5    6.97    1.12
   5  -5  -5    4.79    0.61
   5  -5  -5    6.39    1.12
   5  -5  -5    7.84    1.43
   5  -5  -5    5.00    0.81
   5  -5  -5    2.83    1.35
   5  -5  -5    6.45    0.62
   5  -5  -5    4.75    0.91
  -5   5   5    6.46    1.07
  -5   5   5    5.47    0.95
   4  -5  -5    4.51    0.87
   4  -5  -5    3.97    0.67
   4  -5  -5    2.60    1.91
   4  -5  -5    4.01    0.42
   4  -5  -5    5.60    1.04
  -4   5   5    4.76    0.88
  -4   5   5    3.69    0.84
  -4   5   5    4.63    1.54
   3  -5  -5    6.59    1.09
   3  -5  -5    7.22    1.12
   3  -5  -5    6.18    0.73
   3  -5  -5    7.44    1.00
  -3   5   5    6.10    0.95
  -3   5   5    7.70    1.07
  -3   5   5    7.20    1.16
  -3   5   5    5.73    0.88
   2  -5  -5    0.33    0.39
   2  -5  -5   -0.64    0.68
   2  -5  -5   -0.15    1.17
   2  -5  -5    0.46    0.53
   2  -5  -5   -0.12    0.58
   2  -5  -5   -0.41    0.56
  -2   5   5   -0.35    0.95
  -2   5   5   -0.05    0.63
  -2   5   5    0.18    0.63
  -2   5   5    0.15    0.47
  -2   5   5    1.05    0.64
   1  -5  -5   23.87    1.49
   1  -5  -5   20.67    1.55
   1  -5  -5   23.86    2.30
   1  -5  -5   21.38    1.64
   1  -5  -5   22.33    1.73
  -1   5   5   21.33    1.67
  -1   5   5   22.02    1.66
  -1   5   5   22.21    1.72
  -1   5   5   19.87    2.07
  -1   5   5   22.16    1.47
  -1   5   5   21.69    1.30
   0  -5  -5   44.78    2.50
   0  -5  -5   42.88    2.77
   0  -5  -5   37.51    2.50
   0  -5  -5   37.43    2.54
   0  -5  -5   37.80    2.43
   0  -5  -5   41.93    3.21
   0   5   5   40.60    2.69
   0   5   5   41.88    2.64
   0   5   5   38.08    2.88
   0   5   5   40.25    2.46
   0   5   5   37.83    2.30
   0   5   5   42.33    2.57
   0   5   5   39.15    2.33
  -1  -5  -5  340.03   17.38
  -1  -5  -5  329.25   17.74
  -1  -5  -5  359.28   17.96
  -1  -5  -5  370.44   17.37
  -1  -5  -5  298.88   17.49
   1   5   5  331.90   17.42
   1   5   5  323.80   17.53
   1   5   5  370.48   17.89
   1   5   5  323.77   17.50
   1   5   5  333.25   17.63
   1   5   5  351.36   17.45
  -2  -5  -5   60.36    3.45
  -2  -5  -5   53.87    3.71
  -2  -5  -5   58.43    3.17
  -2  -5  -5   62.32    4.13
   2   5   5   52.84    3.48
   2   5   5   65.19    3.89
   2   5   5   52.49    3.60
   2   5   5   57.26    3.46
   2   5   5   57.89    3.61
   2   5   5   58.15    3.47
  -3  -5  -5   -0.12    0.96
  -3  -5  -5    1.01    1.38
   3   5   5    0.14    0.88
   3   5   5   -0.74    0.73
   3   5   5    0.09    0.72
   3   5   5    0.67    0.97
  -4  -5  -5    1.71    1.18
  -4  -5  -5    0.94    1.08
   4   5   5    3.23    1.13
   4   5   5    2.28    1.00
   4   5   5    2.45    0.93
   4   5   5    2.78    1.06
  -5  -5  -5   -1.01    0.95
  -5  -5  -5   -0.53    0.83
   5   5   5    0.74    1.04
   5   5   5    1.44    1.13
   5   5   5   -0.26    0.72
  -6  -5  -5    0.47    1.17
   6   5   5    0.82    1.02
   6   5   5    2.71    1.22
   6   5   5    3.93    1.34
   8  -6  -5   -0.81    0.96
   8  -6  -5   -0.13    0.86
   8  -6  -5   -0.40    1.15
   8  -6  -5   -1.47    1.35
   8  -6  -5    0.34    0.57
  -8   6   5    0.22    0.85
   7  -6  -5    1.01    1.40
   7  -6  -5   -0.05    0.43
   7  -6  -5   -0.68    0.66
   7  -6  -5    1.36    1.05
   7  -6  -5    1.37    1.30
   7  -6  -5    1.17    0.44
  -7   6   5    1.92    0.92
  -7   6   5    0.10    0.71
   6  -6  -5    0.77    1.00
   6  -6  -5   -0.07    1.18
   6  -6  -5    0.18    1.24
  -6   6   5   -0.22    0.66
  -6   6   5    0.23    0.75
   5  -6  -5   -0.59    0.58
   5  -6  -5    0.18    0.92
   5  -6  -5    2.23    0.78
  -5   6   5   -0.26    0.66
  -5   6   5    0.74    0.80
   4  -6  -5   24.25    1.80
   4  -6  -5   32.65    2.98
   4  -6  -5   30.30    2.28
   4  -6  -5   21.88    1.86
  -4   6   5   29.39    2.19
  -4   6   5   25.71    1.93
  -4   6   5   30.49    2.14
   3  -6  -5   23.01    2.06
   3  -6  -5   22.48    1.71
   3  -6  -5   23.51    1.56
  -3   6   5   22.40    1.47
  -3   6   5   22.44    1.85
  -3   6   5   20.81    1.73
  -3   6   5   23.45    1.90
   2  -6  -5   -0.46    1.63
   2  -6  -5   -1.66    1.59
   2  -6  -5   -1.09    0.56
   2  -6  -5    0.07    0.49
  -2   6   5   -0.40    0.74
  -2   6   5   -0.09    0.64
  -2   6   5    0.12    0.44
  -2   6   5   -0.37    0.50
   1  -6  -5  104.78    6.01
   1  -6  -5  103.36    6.01
   1  -6  -5  103.68    6.24
   1  -6  -5  105.75    5.89
  -1   6   5  107.83    5.90
  -1   6   5  109.70    6.06
  -1   6   5  120.16    6.07
  -1   6   5  118.12    5.69
  -1   6   5  109.08    6.09
   0  -6  -5    1.66    1.05
   0  -6  -5    1.06    0.61
   0  -6  -5    2.77    1.68
   0   6   5    0.69    0.47
   0   6   5    1.75    0.71
   0   6   5    1.00    0.84
   0   6   5    0.57    0.43
   0   6   5    1.42    0.86
  -1  -6  -5   39.79    2.79
  -1  -6  -5   37.64    3.18
  -1  -6  -5   35.57    2.24
  -1  -6  -5   34.80    2.30
   1   6   5   36.66    2.26
   1   6   5   32.96    2.49
   1   6   5   33.41    2.47
   1   6   5   34.36    2.45
   1   6   5   32.79    2.21
  -2  -6  -5   48.90    2.89
  -2  -6  -5   55.31    3.93
  -2  -6  -5   48.93    3.60
   2   6   5   56.37    3.21
   2   6   5   49.40    3.36
   2   6   5   53.46    3.15
   2   6   5   49.01    3.24
  -3  -6  -5    0.47    1.01
  -3  -6  -5   -0.66    1.26
   3   6   5   -0.77    0.91
   3   6   5    0.61    0.83
   3   6   5   -0.43    0.76
  -4  -6  -5   -0.01    1.13
  -4  -6  -5    0.80    1.08
   4   6   5    0.13    1.32
   4   6   5   -0.26    1.05
  -5  -6  -5    1.39    1.24
   5   6   5   -0.14    0.96
   5   6   5   -0.12    1.28
   5   6   5    0.52    1.05
  -6  -6  -5   -0.43    1.19
   6   6   5    1.35    1.38
   6   6   5   -0.46    1.21
   6   6   5    1.04    1.05
   8  -7  -5    0.32    0.97
   8  -7  -5    3.04    1.52
   8  -7  -5    1.13    1.33
   8  -7  -5    0.68    1.84
  -8   7   5    1.93    1.02
   7  -7  -5   -1.61    1.30
   7  -7  -5   -0.86    0.79
   7  -7  -5    1.17    1.27
   7  -7  -5   -0.56    1.51
  -7   7   5    0.31    0.51
  -7   7   5   -0.07    0.84
   6  -7  -5    0.59    1.04
   6  -7  -5   -0.42    1.35
   6  -7  -5    1.01    1.34
   6  -7  -5   -0.64    0.72
  -6   7   5    2.19    0.96
  -6   7   5    2.00    1.30
   5  -7  -5    2.75    1.49
   5  -7  -5    3.23    0.95
   5  -7  -5    4.92    1.28
  -5   7   5    3.74    1.02
  -5   7   5    6.57    1.34
  -5   7   5    3.45    0.90
   4  -7  -5   -0.01    1.46
   4  -7  -5    3.97    0.87
   4  -7  -5    2.93    0.76
  -4   7   5    4.60    1.10
  -4   7   5    5.47    1.25
   3  -7  -5   26.58    2.35
   3  -7  -5   25.55    1.82
  -3   7   5   28.51    2.17
  -3   7   5   24.96    1.97
   2  -7  -5    1.34    1.65
   2  -7  -5    2.21    1.14
  -2   7   5    0.47    1.03
  -2   7   5    0.90    0.36
  -2   7   5    3.04    0.97
  -2   7   5    1.57    0.83
   1  -7  -5   18.01    1.50
   1  -7  -5   18.05    1.97
   1  -7  -5   18.38    2.66
  -1   7   5   16.27    1.61
  -1   7   5   19.90    1.51
  -1   7   5   16.38    1.77
   0  -7  -5    2.04    1.87
   0  -7  -5    3.39    0.81
   0  -7  -5    2.18    1.60
   0   7   5    1.83    0.79
   0   7   5    1.78    0.91
   0   7   5    2.60    1.22
  -1  -7  -5    3.79    1.32
  -1  -7  -5    5.97    1.00
  -1  -7  -5    5.04    1.72
   1   7   5    3.55    1.17
   1   7   5    4.58    1.36
  -2  -7  -5    0.77    0.87
  -2  -7  -5    2.64    0.36
  -2  -7  -5    2.59    1.43
   2   7   5    0.39    1.08
   2   7   5    0.81    0.93
  -3  -7  -5    2.95    1.30
  -3  -7  -5    1.63    1.39
   3   7   5    3.23    1.25
   3   7   5    3.70    1.10
   3   7   5    3.34    0.98
  -4  -7  -5   15.88    2.09
   4   7   5   18.10    1.91
   4   7   5   13.76    2.05
   4   7   5   11.76    1.62
  -5  -7  -5    2.35    1.29
   5   7   5    1.05    0.97
   5   7   5   -0.31    1.21
   5   7   5    2.14    1.16
   7  -8  -5    0.24    1.18
   7  -8  -5   -1.63    0.80
   7  -8  -5    1.12    1.46
   7  -8  -5   -0.38    1.65
  -7   8   5    0.05    0.92
  -7   8   5    0.97    0.45
   6  -8  -5   -0.12    1.11
   6  -8  -5    0.18    1.36
   6  -8  -5    0.16    1.61
  -6   8   5   -0.03    0.88
  -6   8   5    1.01    0.43
   5  -8  -5   10.24    1.82
   5  -8  -5    5.32    1.03
  -5   8   5    8.36    1.14
   4  -8  -5    0.06    1.55
   4  -8  -5    0.85    0.63
   4  -8  -5   -1.51    1.05
  -4   8   5    0.15    0.69
  -4   8   5    0.74    1.03
  -4   8   5    1.04    0.71
   3  -8  -5    5.48    1.54
   3  -8  -5    9.51    1.10
  -3   8   5    5.86    1.30
  -3   8   5    8.08    1.42
  -3   8   5    8.27    1.21
   2  -8  -5    0.47    1.20
   2  -8  -5    0.00    1.68
  -2   8   5    0.60    0.32
  -2   8   5    1.32    0.87
  -2   8   5    1.66    1.07
  -2   8   5    1.06    0.98
   1  -8  -5    7.58    1.10
   1  -8  -5    4.81    1.98
   1  -8  -5    3.93    1.37
  -1   8   5    7.07    1.28
  -1   8   5    6.49    1.30
  -1   8   5    5.13    1.18
   0  -8  -5   13.28    1.88
   0   8   5    9.40    1.29
   0   8   5    9.02    1.40
  -1  -8  -5    4.42    0.91
  -1  -8  -5    2.21    1.28
  -1  -8  -5    0.96    1.58
   1   8   5    2.24    1.11
   1   8   5    1.73    1.06
  -2  -8  -5    7.74    1.51
   2   8   5    5.62    1.44
   2   8   5    5.96    1.33
  -3  -8  -5    1.17    1.55
  -3  -8  -5    0.77    0.31
   3   8   5    0.25    0.69
   3   8   5    1.07    1.31
   3   8   5   -0.30    0.94
  -4  -8  -5    2.65    1.36
   4   8   5    0.49    1.00
   4   8   5    0.73    1.26
   5  -9  -5    3.08    1.81
   5  -9  -5   -1.83    2.36
   5  -9  -5    4.53    1.43
  -5   9   5    1.03    0.45
   4  -9  -5    0.69    1.79
   4  -9  -5   -0.68    1.29
  -4   9   5   -0.64    1.15
  -4   9   5    0.11    0.93
  -4   9   5    0.74    0.53
   3  -9  -5    2.66    0.73
   3  -9  -5   -1.91    1.22
   3  -9  -5    0.97    1.87
  -3   9   5    1.05    0.95
  -3   9   5    0.60    1.06
  -3   9   5    0.70    0.76
   2  -9  -5    4.49    1.40
   2  -9  -5    1.30    1.89
   2  -9  -5   -0.24    1.36
  -2   9   5    2.88    1.17
  -2   9   5    2.99    1.14
  -2   9   5    1.50    1.36
   1  -9  -5    1.80    1.39
   1  -9  -5    0.01    1.86
  -1   9   5    0.82    0.96
  -1   9   5    1.10    0.93
  -1   9   5    1.90    0.94
   0  -9  -5    7.97    2.37
   0  -9  -5   10.97    1.98
   0  -9  -5   16.89    2.53
   0   9   5   11.50    1.73
   0   9   5    8.08    1.58
  -1  -9  -5    6.02    1.88
   1   9   5    7.95    1.52
   1   9   5    7.14    1.54
  -2  -9  -5    1.63    1.35
  -2  -9  -5   -1.86    1.34
   2   9   5    0.11    1.28
   2   9   5    0.92    1.21
   2 -10  -5   -0.11    3.04
   2 -10  -5   -2.52    1.36
  -2  10   5    2.03    1.13
  -2  10   5    0.47    0.80
  -2  10   5    0.13    0.99
   1 -10  -5    3.58    1.69
   0  10  -6   -1.21    1.51
   0 -10   6    1.35    0.62
   0 -10   6    1.83    1.33
   0 -10   6    1.64    1.05
   0 -10   6   -0.65    1.39
  -1  10  -6    2.11    1.23
  -1  10  -6    1.35    1.26
   1 -10   6    2.09    1.26
   2 -10   6   14.13    2.44
   3   9  -6    2.53    1.07
   3   9  -6    3.94    1.45
   3   9  -6    2.87    1.21
  -3  -9   6    2.96    1.27
  -3  -9   6    0.41    1.24
  -3  -9   6    2.98    0.93
   2   9  -6    3.87    1.26
   2   9  -6    3.62    1.40
  -2  -9   6    8.16    1.82
  -2  -9   6    3.59    0.90
  -2  -9   6    3.87    1.41
   1   9  -6    2.19    1.23
   1   9  -6    1.25    1.18
   1   9  -6    2.18    0.62
  -1  -9   6    2.75    1.31
  -1  -9   6    2.50    0.74
  -1  -9   6    5.68    1.77
   0   9  -6    9.59    1.70
   0   9  -6    7.91    1.52
   0  -9   6    6.45    1.63
   0  -9   6    7.89    1.13
   0  -9   6   14.64    2.21
   0  -9   6   10.30    1.90
  -1   9  -6   12.15    1.70
  -1   9  -6   11.41    1.90
   1  -9   6   12.49    1.22
   1  -9   6   13.20    2.13
   1  -9   6    9.56    1.84
   1  -9   6   10.39    1.90
  -2   9  -6    1.24    1.06
  -2   9  -6    1.11    1.25
   2  -9   6    1.00    1.21
   2  -9   6    1.07    1.53
   2  -9   6    3.03    1.41
   2  -9   6    1.09    0.53
  -3   9  -6   -0.47    0.93
  -3   9  -6    0.29    1.31
   3  -9   6    1.09    1.75
   3  -9   6   -0.27    1.11
   3  -9   6    0.23    1.28
  -4   9  -6    2.01    0.89
  -4   9  -6    4.07    1.53
   4  -9   6    1.01    2.02
   4  -9   6    5.21    3.71
   5   8  -6   -0.74    1.12
   5   8  -6    3.34    1.18
   5   8  -6   -0.37    1.30
  -5  -8   6    1.06    1.01
  -5  -8   6    2.25    1.00
   4   8  -6    6.04    1.34
   4   8  -6    3.83    1.42
  -4  -8   6    1.69    1.12
  -4  -8   6    5.81    1.16
  -4  -8   6    3.99    1.38
   3   8  -6    7.11    1.57
   3   8  -6    7.67    1.34
  -3  -8   6    7.95    1.83
  -3  -8   6    7.93    1.58
   2   8  -6    0.34    1.19
   2   8  -6    0.73    0.90
   2   8  -6   -0.25    1.04
  -2  -8   6   -0.45    0.68
  -2  -8   6   -0.07    0.95
  -2  -8   6    0.40    1.69
   1   8  -6    6.64    1.37
   1   8  -6    6.53    1.50
   1   8  -6    4.54    0.85
  -1  -8   6    6.85    1.06
  -1  -8   6    7.26    1.90
  -1  -8   6    6.97    1.50
  -1  -8   6    8.90    1.47
   0   8  -6    0.60    0.98
   0   8  -6    0.80    1.13
   0   8  -6    0.95    0.29
   0  -8   6    1.51    0.64
   0  -8   6    1.23    1.14
   0  -8   6    2.17    1.19
  -1   8  -6    0.01    1.07
  -1   8  -6   -0.10    0.51
  -1   8  -6    0.43    1.29
   1  -8   6   -0.68    0.53
   1  -8   6    0.69    1.10
   1  -8   6    0.16    0.95
   1  -8   6    0.10    1.37
  -2   8  -6    2.59    1.25
  -2   8  -6    2.07    0.93
   2  -8   6    1.03    1.13
   2  -8   6    2.21    0.66
   2  -8   6    1.03    1.08
  -3   8  -6    8.62    1.27
  -3   8  -6    8.92    1.67
   3  -8   6    6.97    1.48
   3  -8   6    7.38    1.01
   3  -8   6    4.34    1.42
  -4   8  -6    0.47    1.39
  -4   8  -6    0.51    1.19
  -4   8  -6    1.12    0.38
  -4   8  -6    0.95    0.70
   4  -8   6   -0.16    1.12
   4  -8   6    1.79    1.16
   4  -8   6    0.75    0.62
  -5   8  -6    1.98    1.66
  -5   8  -6    2.87    1.38
   5  -8   6    2.47    0.79
   5  -8   6    1.77    1.31
   5  -8   6    1.25    1.21
  -6   8  -6    0.73    0.43
  -6   8  -6    0.00    1.17
   6  -8   6   -0.56    1.19
   6  -8   6    0.20    1.19
   6   7  -6    1.74    1.40
   6   7  -6    1.20    0.94
   6   7  -6   -0.23    1.30
  -6  -7   6    1.09    0.87
  -6  -7   6    2.06    1.03
   5   7  -6    0.14    1.22
   5   7  -6    2.55    1.05
   5   7  -6    1.18    1.09
  -5  -7   6    0.24    1.09
  -5  -7   6    1.40    0.93
  -5  -7   6   -0.63    0.88
   4   7  -6    0.86    1.03
   4   7  -6    0.69    1.05
   4   7  -6    1.89    0.96
  -4  -7   6   -0.13    0.98
  -4  -7   6    0.01    0.78
  -4  -7   6    1.05    0.88
   3   7  -6   11.52    1.44
   3   7  -6   12.54    1.71
   3   7  -6   13.83    1.48
  -3  -7   6   10.98    1.70
  -3  -7   6   12.07    1.71
  -3  -7   6   12.66    1.53
   2   7  -6   21.67    2.10
   2   7  -6   23.61    2.06
   2   7  -6   18.83    1.66
   2   7  -6   19.58    1.59
  -2  -7   6   18.26    2.03
  -2  -7   6   21.72    2.02
  -2  -7   6   20.75    1.72
   1   7  -6    4.83    0.90
   1   7  -6    7.13    1.30
   1   7  -6    3.80    0.92
   1   7  -6    5.21    1.28
  -1  -7   6    5.69    1.22
  -1  -7   6    4.94    0.95
  -1  -7   6    7.95    1.39
   0   7  -6    4.77    0.69
   0   7  -6    4.92    1.30
   0   7  -6    2.38    0.82
   0   7  -6    3.61    1.10
   0  -7   6    5.69    1.20
   0  -7   6    5.20    0.93
   0  -7   6    8.17    1.46
   0  -7   6    7.89    1.50
  -1   7  -6   24.19    3.79
  -1   7  -6   22.17    1.73
  -1   7  -6   29.59    2.62
  -1   7  -6   24.14    1.95
   1  -7   6   24.91    1.83
   1  -7   6   26.93    2.43
   1  -7   6   26.17    2.27
  -2   7  -6    3.35    1.37
  -2   7  -6    1.63    1.29
  -2   7  -6    2.24    1.32
   2  -7   6    0.53    1.70
   2  -7   6    2.78    0.72
   2  -7   6    2.62    1.02
  -3   7  -6   19.95    1.55
  -3   7  -6   20.31    2.04
  -3   7  -6   17.78    3.31
   3  -7   6   15.10    1.96
   3  -7   6   18.13    1.54
   3  -7   6   19.78    1.96
  -4   7  -6    9.82    2.08
  -4   7  -6   11.27    1.70
  -4   7  -6   10.02    1.12
   4  -7   6    9.73    1.28
   4  -7   6   11.31    1.77
   4  -7   6    9.54    1.60
  -5   7  -6   16.13    2.77
  -5   7  -6   17.77    1.96
   5  -7   6   14.10    1.85
   5  -7   6   12.62    1.95
   5  -7   6   11.54    1.41
   5  -7   6   12.22    1.22
  -6   7  -6    0.25    0.32
  -6   7  -6    2.03    1.35
  -6   7  -6    0.90    1.76
   6  -7   6    0.35    1.14
   6  -7   6   -1.16    0.73
   6  -7   6    1.02    1.20
   7   6  -6    7.70    1.19
   6   6  -6    0.30    0.89
   6   6  -6   -0.58    1.18
   6   6  -6   -0.21    1.23
  -6  -6   6   -0.06    0.85
  -6  -6   6    0.90    0.95
   5   6  -6    0.42    1.01
   5   6  -6    0.58    0.92
   5   6  -6   -0.52    1.10
  -5  -6   6   -0.38    0.97
  -5  -6   6   -0.66    0.86
  -5  -6   6    0.26    0.84
   4   6  -6    3.02    0.99
   4   6  -6    5.93    1.25
   4   6  -6    3.25    1.21
   4   6  -6    5.32    1.01
  -4  -6   6    3.24    1.03
  -4  -6   6    3.35    1.01
  -4  -6   6    3.36    1.01
   3   6  -6    3.02    0.94
   3   6  -6    1.51    1.07
   3   6  -6    1.95    0.76
   3   6  -6    3.30    1.03
  -3  -6   6    4.60    1.16
  -3  -6   6    1.30    1.01
  -3  -6   6    3.15    0.91
   2   6  -6    1.49    0.76
   2   6  -6    1.15    0.97
   2   6  -6    0.43    1.04
   2   6  -6    0.10    0.80
   2   6  -6    0.96    1.05
   2   6  -6    3.52    0.85
  -2  -6   6    0.64    0.93
  -2  -6   6    0.72    0.71
  -2  -6   6    1.11    0.47
  -2  -6   6    1.02    0.75
   1   6  -6    3.72    0.74
   1   6  -6    3.72    1.55
   1   6  -6    4.62    0.93
   1   6  -6    4.28    0.74
   1   6  -6    4.07    0.95
  -1  -6   6    3.55    1.04
  -1  -6   6    4.26    0.95
  -1  -6   6    3.41    0.83
  -1  -6   6    3.36    0.99
   0   6  -6  291.27   14.83
   0   6  -6  287.93   14.48
   0   6  -6  291.05   14.73
   0   6  -6  262.23   14.17
   0   6  -6  285.66   14.46
   0   6  -6  253.44   14.36
   0   6  -6  284.57   14.18
   0  -6   6  265.84   14.52
   0  -6   6  270.94   14.70
   0  -6   6  281.61   14.69
   0  -6   6  275.40   14.41
  -1   6  -6  121.59    6.33
  -1   6  -6  123.80    6.85
  -1   6  -6  122.71    6.58
  -1   6  -6  104.06    6.22
   1  -6   6  114.54    6.47
   1  -6   6  115.68    6.58
   1  -6   6  110.83    6.24
   1  -6   6  114.92    6.29
   1  -6   6  113.42    6.73
  -2   6  -6   31.61    2.45
  -2   6  -6   28.45    2.03
  -2   6  -6   32.58    2.10
   2  -6   6   31.95    2.48
   2  -6   6   34.21    2.16
   2  -6   6   28.09    1.98
   2  -6   6   30.43    2.33
  -3   6  -6    0.97    0.55
  -3   6  -6    0.29    0.99
  -3   6  -6    2.10    0.57
  -3   6  -6    1.73    1.50
   3  -6   6   -0.76    0.92
   3  -6   6   -0.18    0.84
   3  -6   6    0.03    0.67
   3  -6   6    0.77    0.66
  -4   6  -6    2.22    0.66
  -4   6  -6    1.47    0.58
  -4   6  -6    0.89    1.54
   4  -6   6    0.53    1.13
   4  -6   6    1.61    1.06
   4  -6   6    1.17    0.57
   4  -6   6    0.62    0.73
  -5   6  -6    4.60    1.89
  -5   6  -6    4.21    1.29
   5  -6   6    4.87    0.74
   5  -6   6    3.86    1.20
   5  -6   6    4.27    1.13
   5  -6   6    3.27    0.97
  -6   6  -6    8.63    2.28
  -6   6  -6    6.94    1.46
   6  -6   6    6.67    1.18
   6  -6   6    7.17    1.49
   6  -6   6    5.23    0.73
   6  -6   6    5.40    1.48
  -7   6  -6    0.57    1.03
  -7   6  -6    0.52    2.11
   7  -6   6   -0.74    1.72
   7  -6   6    1.07    1.39
   7  -6   6    1.49    0.99
   7   5  -6   25.40    2.32
   7   5  -6   20.48    2.14
   7   5  -6   26.47    1.97
  -7  -5   6   24.71    2.36
  -7  -5   6   17.99    1.74
   6   5  -6   13.99    1.57
   6   5  -6   16.83    1.60
   6   5  -6   11.86    1.65
  -6  -5   6   14.04    1.56
  -6  -5   6   16.60    1.94
   5   5  -6    5.62    1.15
   5   5  -6    6.52    1.18
   5   5  -6    7.78    1.11
   5   5  -6    5.85    1.39
  -5  -5   6    5.21    1.71
  -5  -5   6    4.33    1.11
  -5  -5   6    3.32    0.94
  -5  -5   6    6.49    1.02
   4   5  -6   17.51    1.47
   4   5  -6   13.87    1.33
   4   5  -6   13.71    1.61
   4   5  -6   16.31    1.68
  -4  -5   6   10.06    1.34
  -4  -5   6   14.60    1.63
  -4  -5   6   10.32    1.41
  -4  -5   6    9.91    1.61
   3   5  -6   12.36    1.35
   3   5  -6   16.50    1.54
   3   5  -6   13.26    1.28
   3   5  -6   15.41    1.54
   3   5  -6   12.39    1.33
   3   5  -6   14.96    1.99
  -3  -5   6   13.25    1.37
  -3  -5   6   13.61    1.51
  -3  -5   6   12.14    1.57
   2   5  -6  145.99    8.11
   2   5  -6  151.84    8.25
   2   5  -6  152.22    8.11
   2   5  -6  151.20    8.09
   2   5  -6  154.42    8.29
   2   5  -6  158.94    8.23
  -2  -5   6  153.18    8.24
  -2  -5   6  156.21    8.42
  -2  -5   6  154.45    8.26
  -2  -5   6  154.14    8.25
   1   5  -6   24.58    1.78
   1   5  -6   23.03    1.87
   1   5  -6   19.99    1.47
   1   5  -6   18.09    1.52
   1   5  -6   24.75    1.76
   1   5  -6   20.72    1.80
   1   5  -6   20.99    1.49
   1   5  -6   22.08    1.88
  -1  -5   6   27.44    1.99
  -1  -5   6   20.82    1.73
  -1  -5   6   20.37    1.58
  -1  -5   6   23.09    1.71
  -1  -5   6   23.39    1.84
  -1  -5   6   26.58    2.41
   0   5  -6   -0.27    0.55
   0   5  -6    0.39    0.68
   0   5  -6    0.00    0.91
   0   5  -6    0.13    0.39
   0   5  -6   -0.35    0.57
   0   5  -6    0.49    0.84
   0   5  -6   -0.12    0.52
   0   5  -6    0.18    0.63
   0  -5   6    0.65    0.71
   0  -5   6    0.10    0.49
   0  -5   6    0.05    0.71
   0  -5   6    0.58    0.76
   0  -5   6   -0.38    0.56
   0  -5   6    1.10    1.10
  -1   5  -6    1.61    0.65
  -1   5  -6    1.81    0.26
  -1   5  -6    1.37    0.93
  -1   5  -6    1.14    0.75
  -1   5  -6    1.94    0.75
  -1   5  -6    1.15    0.75
  -1   5  -6    1.95    1.16
   1  -5   6    1.02    0.84
   1  -5   6    1.78    0.77
   1  -5   6    1.56    0.85
   1  -5   6    1.48    1.11
   1  -5   6    2.19    0.77
   1  -5   6    1.31    0.57
  -2   5  -6   48.79    3.21
  -2   5  -6   48.15    2.94
  -2   5  -6   47.62    2.87
  -2   5  -6   51.84    3.67
   2  -5   6   50.48    3.07
   2  -5   6   50.09    3.14
   2  -5   6   52.93    3.23
   2  -5   6   47.66    2.85
   2  -5   6   55.27    3.18
   2  -5   6   46.50    3.45
  -3   5  -6    1.72    0.55
  -3   5  -6    0.34    0.95
  -3   5  -6    0.06    1.46
  -3   5  -6    0.61    0.56
   3  -5   6    1.33    0.73
   3  -5   6    1.48    0.50
   3  -5   6    1.35    0.91
   3  -5   6    0.32    1.42
  -4   5  -6   58.32    3.30
  -4   5  -6   61.93    3.77
  -4   5  -6   61.63    4.41
  -4   5  -6   57.49    3.47
   4  -5   6   57.06    3.28
   4  -5   6   58.87    3.60
   4  -5   6   63.09    3.89
   4  -5   6   60.01    3.77
  -5   5  -6   28.57    3.15
  -5   5  -6   28.48    2.27
   5  -5   6   26.90    1.71
   5  -5   6   30.10    2.36
   5  -5   6   27.91    2.41
  -6   5  -6    2.76    1.20
  -6   5  -6    2.65    1.70
   6  -5   6    1.25    0.90
   6  -5   6    2.96    1.13
   6  -5   6    2.28    1.10
  -7   5  -6   10.14    2.40
  -7   5  -6    7.64    1.43
   7  -5   6   12.36    1.79
   7  -5   6    7.90    1.62
   7  -5   6    9.98    1.58
  -8   5  -6    0.23    1.01
   8  -5   6    1.18    1.03
   8  -5   6    1.63    1.23
   8  -5   6    0.87    1.09
   8   4  -6    1.72    1.25
   8   4  -6    0.61    0.85
   8   4  -6    0.26    1.46
  -8  -4   6    0.09    1.10
   7   4  -6    1.79    0.93
   7   4  -6    1.38    1.16
   7   4  -6    1.84    1.16
  -7  -4   6    2.39    0.95
  -7  -4   6    1.24    0.44
  -7  -4   6    1.21    1.08
   6   4  -6    3.33    0.96
   6   4  -6    4.10    1.24
   6   4  -6    3.44    1.11
  -6  -4   6    3.46    0.98
  -6  -4   6    4.12    1.20
  -6  -4   6    2.99    0.68
   5   4  -6    8.52    1.38
   5   4  -6    8.34    1.21
   5   4  -6   11.30    1.37
   5   4  -6    9.19    1.18
  -5  -4   6    6.32    1.12
  -5  -4   6   10.73    1.48
   4   4  -6   81.97    4.62
   4   4  -6   86.85    4.75
   4   4  -6   83.05    4.73
   4   4  -6   80.50    4.87
  -4  -4   6   78.11    4.61
  -4  -4   6   90.57    5.09
  -4  -4   6   81.00    5.71
  -4  -4   6   89.12    4.91
   3   4  -6    1.38    0.72
   3   4  -6    1.24    0.55
   3   4  -6    1.62    0.69
   3   4  -6   -0.27    1.18
   3   4  -6    1.71    0.85
   3   4  -6    2.08    0.76
   3   4  -6    2.10    0.82
  -3  -4   6    1.11    0.62
  -3  -4   6    1.17    0.63
  -3  -4   6    0.96    0.44
  -3  -4   6    0.83    0.71
  -3  -4   6    1.76    0.73
  -3  -4   6    1.15    0.77
   2   4  -6    2.99    0.68
   2   4  -6    2.71    0.87
   2   4  -6    2.50    0.64
   2   4  -6    2.74    0.68
   2   4  -6    3.47    0.82
   2   4  -6    2.59    0.78
   2   4  -6    2.45    0.57
   2   4  -6    2.93    0.75
  -2  -4   6    2.59    0.85
  -2  -4   6    2.94    0.70
  -2  -4   6    4.00    0.73
  -2  -4   6    3.01    0.65
  -2  -4   6    1.93    0.73
  -2  -4   6    2.30    0.74
   1   4  -6   14.67    1.17
   1   4  -6   19.01    1.40
   1   4  -6   18.02    1.25
   1   4  -6   17.69    1.68
   1   4  -6   18.06    1.52
   1   4  -6   17.12    1.44
   1   4  -6   16.37    1.23
   1   4  -6   17.91    1.54
  -1  -4   6   17.02    1.32
  -1  -4   6   18.32    1.46
  -1  -4   6   16.73    1.48
  -1  -4   6   17.51    1.28
  -1  -4   6   20.87    1.59
   0   4  -6    3.07    0.65
   0   4  -6    2.02    0.85
   0   4  -6    2.18    0.39
   0   4  -6    1.73    0.64
   0   4  -6    2.37    0.42
   0   4  -6    2.25    0.60
   0   4  -6    2.40    0.90
   0   4  -6    1.74    0.59
   0  -4   6    2.08    0.77
   0  -4   6    2.76    0.80
   0  -4   6    2.78    0.67
   0  -4   6    2.50    0.65
   0  -4   6    2.01    0.50
   0  -4   6    3.59    0.72
  -1   4  -6    0.25    0.51
  -1   4  -6    0.24    1.09
  -1   4  -6    0.62    0.26
  -1   4  -6    0.59    0.46
  -1   4  -6    0.34    0.74
  -1   4  -6    0.58    0.55
  -1   4  -6    0.28    0.22
   1  -4   6    0.35    0.69
   1  -4   6    0.63    0.70
   1  -4   6   -0.31    0.47
   1  -4   6    0.80    0.53
   1  -4   6    0.40    0.41
   1  -4   6    0.34    0.58
  -2   4  -6    2.27    0.87
  -2   4  -6    0.89    1.07
  -2   4  -6    2.26    0.71
  -2   4  -6    2.51    0.51
  -2   4  -6    2.01    0.64
   2  -4   6    1.38    0.61
   2  -4   6    2.25    0.94
   2  -4   6    2.88    0.83
   2  -4   6    1.75    1.21
   2  -4   6    1.44    0.43
   2  -4   6    2.19    0.71
  -3   4  -6   -0.31    0.50
  -3   4  -6   -0.89    1.14
  -3   4  -6   -0.43    0.34
  -3   4  -6    0.14    0.82
   3  -4   6   -0.13    0.33
   3  -4   6   -0.05    0.73
   3  -4   6   -0.82    0.61
   3  -4   6   -0.54    0.64
   3  -4   6   -0.31    1.15
   3  -4   6    0.15    0.52
   3  -4   6    1.31    0.62
  -4   4  -6    0.57    1.38
  -4   4  -6    1.48    0.95
  -4   4  -6    3.04    0.76
  -4   4  -6    3.02    0.44
   4  -4   6    2.42    0.92
   4  -4   6    2.31    0.49
   4  -4   6    2.45    0.93
   4  -4   6    2.73    0.85
  -5   4  -6    8.44    1.24
  -5   4  -6    8.44    1.92
   5  -4   6    7.22    1.27
   5  -4   6    8.44    1.38
   5  -4   6    8.23    0.62
   5  -4   6    7.12    0.60
  -6   4  -6   20.48    1.90
  -6   4  -6   23.23    2.98
   6  -4   6   21.00    2.01
   6  -4   6   16.50    0.98
   6  -4   6   18.91    1.24
   6  -4   6   21.32    2.04
   6  -4   6   16.33    1.82
  -7   4  -6   17.30    2.99
   7  -4   6   14.45    1.26
   7  -4   6   15.47    1.91
   7  -4   6   17.84    1.92
   7  -4   6   14.79    1.82
   7  -4   6   15.36    1.16
   8  -4   6    3.47    1.08
   8  -4   6    4.55    1.31
   8  -4   6    4.68    1.36
   8  -4   6    6.01    1.54
   9   3  -6   10.28    1.91
   9   3  -6    1.76    1.29
   9   3  -6    1.17    1.61
   8   3  -6    2.27    1.31
   8   3  -6    1.49    1.13
   8   3  -6   -0.26    0.83
  -8  -3   6   -0.03    1.01
   7   3  -6    5.89    1.11
   7   3  -6    5.43    1.30
   7   3  -6    9.69    1.47
  -7  -3   6    6.50    1.13
  -7  -3   6    7.50    1.42
   6   3  -6    3.36    0.94
   6   3  -6    4.47    1.08
   6   3  -6    3.80    1.11
  -6  -3   6    3.08    1.15
  -6  -3   6    4.28    1.15
   5   3  -6    1.88    0.91
   5   3  -6    0.44    0.77
   5   3  -6    0.74    0.64
   5   3  -6    1.99    0.77
  -5  -3   6    0.89    0.87
  -5  -3   6    1.33    0.70
  -5  -3   6    0.41    0.65
   4   3  -6    1.05    0.78
   4   3  -6    0.35    0.69
   4   3  -6   -0.95    0.65
   4   3  -6    0.96    0.62
   4   3  -6    0.18    0.70
   4   3  -6    0.82    0.48
   4   3  -6    0.60    0.67
  -4  -3   6    0.07    0.49
  -4  -3   6    0.11    0.66
  -4  -3   6    0.22    0.72
  -4  -3   6   -0.16    0.68
  -4  -3   6    1.20    0.59
   3   3  -6    0.06    0.65
   3   3  -6    0.99    0.44
   3   3  -6    0.69    0.63
   3   3  -6   -0.10    0.64
   3   3  -6    1.40    0.58
   3   3  -6    0.56    0.67
  -3  -3   6   -0.74    0.54
  -3  -3   6    0.21    0.61
  -3  -3   6    0.46    0.35
  -3  -3   6    0.64    0.63
  -3  -3   6   -0.04    0.41
  -3  -3   6    0.65    0.60
   2   3  -6   24.74    1.73
   2   3  -6   22.46    1.57
   2   3  -6   24.54    1.61
   2   3  -6   23.01    1.74
   2   3  -6   22.53    1.54
   2   3  -6   24.77    1.46
   2   3  -6   24.32    1.73
  -2  -3   6   25.34    1.51
  -2  -3   6   23.07    1.63
  -2  -3   6   25.40    1.99
  -2  -3   6   23.44    1.68
  -2  -3   6   25.37    1.61
   1   3  -6   30.17    1.98
   1   3  -6   31.45    1.87
   1   3  -6   28.14    2.02
   1   3  -6   28.77    1.93
   1   3  -6   28.21    1.95
   1   3  -6   27.41    1.76
  -1  -3   6   29.36    1.95
  -1  -3   6   33.24    2.04
  -1  -3   6   30.87    1.92
  -1  -3   6   28.12    2.04
  -1  -3   6   28.94    1.78
   0   3  -6   55.05    3.00
   0   3  -6   57.13    3.08
   0   3  -6   54.51    3.23
   0   3  -6   55.84    3.27
   0   3  -6   55.43    3.42
   0   3  -6   55.00    3.19
   0  -3   6   53.46    3.08
   0  -3   6   59.50    3.31
   0  -3   6   55.83    3.21
   0  -3   6   56.42    2.99
   0  -3   6   56.57    3.21
   0  -3   6   54.56    3.05
   0  -3   6   53.47    3.39
   0  -3   6   56.20    3.13
  -1   3  -6   34.17    1.96
  -1   3  -6   32.93    2.44
  -1   3  -6   34.11    2.16
  -1   3  -6   34.47    1.85
  -1   3  -6   33.33    2.12
   1  -3   6   34.17    2.13
   1  -3   6   34.16    2.07
   1  -3   6   36.00    1.95
   1  -3   6   34.16    1.85
   1  -3   6   31.53    2.43
   1  -3   6   34.23    2.15
   1  -3   6   32.05    2.14
  -2   3  -6  101.87    5.54
  -2   3  -6  103.14    5.32
  -2   3  -6  100.66    5.24
  -2   3  -6  102.51    5.61
  -2   3  -6  107.04    5.63
  -2   3  -6  105.43    6.01
   2  -3   6  100.91    5.57
   2  -3   6  105.14    5.62
   2  -3   6  104.45    5.58
   2  -3   6  103.66    5.25
   2  -3   6  102.59    5.93
   2  -3   6  102.35    5.30
   2  -3   6  102.16    5.64
   2  -3   6   90.67    5.71
  -3   3  -6    1.35    0.27
  -3   3  -6    0.46    0.57
  -3   3  -6    0.32    0.67
  -3   3  -6    0.99    0.27
  -3   3  -6    0.47    1.02
   3  -3   6    0.50    0.82
   3  -3   6    0.35    0.58
   3  -3   6    0.90    0.69
   3  -3   6    1.20    0.27
   3  -3   6   -0.11    0.59
   3  -3   6    1.51    0.68
   3  -3   6    0.83    0.66
   3  -3   6    0.95    0.33
  -4   3  -6    2.26    2.22
  -4   3  -6    4.78    0.90
  -4   3  -6    4.27    0.94
   4  -3   6    3.89    1.13
   4  -3   6    4.05    0.93
   4  -3   6    3.59    0.90
   4  -3   6    4.44    0.57
   4  -3   6    4.19    0.31
   4  -3   6    3.21    0.91
  -5   3  -6    2.17    0.94
  -5   3  -6    1.35    1.54
   5  -3   6    2.84    0.60
   5  -3   6    4.07    1.04
   5  -3   6    2.30    0.84
   5  -3   6    3.91    0.60
   5  -3   6    3.13    1.10
   5  -3   6    3.69    1.01
  -6   3  -6   21.38    2.93
  -6   3  -6   21.86    1.86
   6  -3   6   22.23    1.53
   6  -3   6   26.06    2.05
   6  -3   6   20.85    1.55
   6  -3   6   20.53    2.04
   6  -3   6   24.04    2.12
  -7   3  -6   17.22    2.88
  -7   3  -6   13.01    1.48
   7  -3   6   16.24    1.90
   7  -3   6   13.45    1.34
   7  -3   6   18.35    1.83
   7  -3   6   14.44    1.73
   7  -3   6   15.62    1.82
  -8   3  -6    1.34    1.75
  -8   3  -6    0.91    0.47
   8  -3   6    2.41    1.19
   8  -3   6    0.68    1.98
   9   2  -6    1.83    2.61
   9   2  -6    0.30    1.09
   8   2  -6    5.97    1.33
   8   2  -6    6.43    1.33
   8   2  -6    7.80    1.29
  -8  -2   6    7.55    1.50
  -8  -2   6    8.58    1.08
   7   2  -6    4.21    0.95
   7   2  -6    6.55    1.17
   7   2  -6    5.75    1.23
   7   2  -6    7.06    1.00
  -7  -2   6    5.96    1.06
  -7  -2   6    6.53    1.33
   6   2  -6   14.58    1.41
   6   2  -6   11.70    1.44
   6   2  -6   14.22    1.51
  -6  -2   6   12.63    1.60
  -6  -2   6   12.20    1.24
   5   2  -6   51.91    3.07
   5   2  -6   51.67    3.09
   5   2  -6   45.69    3.08
   5   2  -6   52.91    3.07
   5   2  -6   46.10    2.82
  -5  -2   6   49.89    2.84
  -5  -2   6   50.63    2.96
  -5  -2   6   49.74    3.19
   4   2  -6    3.13    0.67
   4   2  -6    2.49    0.67
   4   2  -6    1.31    0.69
   4   2  -6    2.34    0.77
   4   2  -6    2.85    0.56
   4   2  -6    2.29    0.77
   4   2  -6    1.85    0.45
   4   2  -6    2.68    0.85
  -4  -2   6    2.92    0.51
  -4  -2   6    2.08    0.73
  -4  -2   6    3.20    0.82
  -4  -2   6    3.34    0.67
  -4  -2   6    3.41    0.77
   3   2  -6   17.46    1.04
   3   2  -6   20.23    1.44
   3   2  -6   17.54    1.25
   3   2  -6   17.52    1.38
   3   2  -6   16.86    1.43
   3   2  -6   15.70    1.35
  -3  -2   6   17.99    1.46
  -3  -2   6   19.45    1.35
  -3  -2   6   17.89    1.39
  -3  -2   6   15.67    1.18
  -3  -2   6   17.39    1.06
  -3  -2   6   17.27    1.36
   2   2  -6   18.20    1.33
   2   2  -6   16.80    1.28
   2   2  -6   15.34    0.99
   2   2  -6   18.27    1.33
   2   2  -6   17.85    1.25
   2   2  -6   17.50    1.35
   2   2  -6   17.63    1.39
  -2  -2   6   18.01    1.36
  -2  -2   6   15.58    1.32
  -2  -2   6   19.41    1.39
  -2  -2   6   18.10    1.40
  -2  -2   6   17.24    1.16
  -2  -2   6   17.23    1.24
   1   2  -6  170.39    8.94
   1   2  -6  168.70    8.82
   1   2  -6  172.99    8.92
   1   2  -6  173.07    9.01
   1   2  -6  168.22    8.82
   1   2  -6  169.33    8.93
  -1  -2   6  166.60    8.91
  -1  -2   6  159.44    8.75
  -1  -2   6  168.40    8.74
  -1  -2   6  170.70    8.95
  -1  -2   6  170.03    8.82
  -1  -2   6  171.67    8.92
  -1  -2   6  187.96    9.46
   0   2  -6  352.14   17.62
   0   2  -6  338.06   17.60
   0   2  -6  334.77   17.76
   0   2  -6  343.40   17.45
   0   2  -6  332.75   17.58
   0   2  -6  345.01   17.46
   0  -2   6  351.29   17.62
   0  -2   6  333.62   17.47
   0  -2   6  336.38   17.58
   0  -2   6  357.03   17.54
   0  -2   6  339.72   17.76
   0  -2   6  355.94   17.62
   0  -2   6  336.88   17.52
   0  -2   6  347.50   17.46
  -1   2  -6    6.21    1.13
  -1   2  -6    7.52    0.62
  -1   2  -6    7.36    0.83
  -1   2  -6    7.08    0.88
  -1   2  -6    6.18    0.94
   1  -2   6    7.01    0.64
   1  -2   6    8.66    0.93
   1  -2   6    6.34    1.26
   1  -2   6    6.29    0.55
   1  -2   6    6.91    0.87
   1  -2   6    7.96    1.00
   1  -2   6    6.86    0.79
  -2   2  -6   12.59    1.22
  -2   2  -6   11.21    1.08
  -2   2  -6   13.75    2.28
  -2   2  -6   12.39    1.15
  -2   2  -6   12.98    0.86
  -2   2  -6   13.25    1.19
   2  -2   6   12.92    1.21
   2  -2   6   12.76    1.09
   2  -2   6   11.26    0.71
   2  -2   6   13.62    1.49
   2  -2   6   10.98    1.60
   2  -2   6   12.99    1.14
   2  -2   6   14.51    0.91
  -3   2  -6    4.05    0.79
  -3   2  -6    3.95    0.76
  -3   2  -6    3.95    0.91
  -3   2  -6    5.13    0.84
  -3   2  -6    3.88    1.15
  -3   2  -6    4.40    0.93
   3  -2   6    4.56    1.04
   3  -2   6    4.19    0.74
   3  -2   6    4.89    0.91
   3  -2   6    5.55    0.60
   3  -2   6    4.06    1.10
   3  -2   6    3.91    0.83
  -4   2  -6    7.51    0.99
  -4   2  -6    3.83    1.06
  -4   2  -6    4.52    1.44
  -4   2  -6    4.44    0.61
   4  -2   6    5.45    1.02
   4  -2   6    5.04    0.72
   4  -2   6    4.24    0.83
   4  -2   6    5.33    1.50
   4  -2   6    6.01    1.04
   4  -2   6    3.94    1.12
  -5   2  -6    0.19    1.35
  -5   2  -6    1.35    0.48
  -5   2  -6   -0.39    0.91
  -5   2  -6    0.53    0.67
   5  -2   6    0.50    0.79
   5  -2   6    1.20    0.61
   5  -2   6    1.05    0.86
   5  -2   6    0.51    0.64
  -6   2  -6    0.79    0.72
  -6   2  -6    1.43    1.57
  -6   2  -6    0.39    1.10
   6  -2   6    1.07    0.97
   6  -2   6   -0.37    0.67
   6  -2   6    1.99    1.00
   6  -2   6    1.72    0.74
  -7   2  -6    9.94    2.17
  -7   2  -6    8.16    1.08
  -7   2  -6   10.41    1.85
   7  -2   6    6.92    1.08
   7  -2   6   11.30    1.29
   7  -2   6    9.65    1.56
   7  -2   6   11.21    1.65
  -8   2  -6   14.10    2.83
  -8   2  -6    9.53    1.98
   8  -2   6   12.08    1.50
   8  -2   6   10.87    2.01
   8  -2   6   10.87    1.81
   9   1  -6   -0.24    1.00
   9   1  -6    1.56    1.48
   9   1  -6    2.55    1.11
   9   1  -6   -0.29    1.16
   8   1  -6    0.95    0.99
   8   1  -6    2.29    1.07
   8   1  -6    0.80    1.01
  -8  -1   6    2.41    0.94
  -8  -1   6    3.20    1.16
   7   1  -6    2.08    0.67
   7   1  -6    1.25    0.94
   7   1  -6    3.05    0.75
   7   1  -6    2.81    0.75
   7   1  -6    1.36    0.87
  -7  -1   6    1.42    1.37
  -7  -1   6    1.25    0.99
   6   1  -6    0.77    0.75
   6   1  -6    0.12    0.50
   6   1  -6    0.85    0.66
   6   1  -6    0.65    0.74
   6   1  -6   -1.16    0.71
   6   1  -6   -0.31    0.57
   6   1  -6   -0.61    0.68
  -6  -1   6    0.13    0.57
  -6  -1   6   -0.53    0.71
  -6  -1   6   -0.02    0.77
   5   1  -6   32.52    2.25
   5   1  -6   29.76    2.30
   5   1  -6   29.10    2.22
   5   1  -6   37.19    2.26
   5   1  -6   31.56    2.20
   5   1  -6   33.90    2.21
   5   1  -6   38.11    2.24
   5   1  -6   37.19    2.27
  -5  -1   6   29.90    2.30
  -5  -1   6   31.47    2.15
  -5  -1   6   38.58    2.01
   4   1  -6    6.52    0.74
   4   1  -6    6.04    0.90
   4   1  -6    6.22    0.94
   4   1  -6    4.75    0.83
   4   1  -6    6.12    0.94
   4   1  -6    5.51    0.88
   4   1  -6    6.20    0.89
  -4  -1   6    6.96    0.71
  -4  -1   6    6.37    0.89
  -4  -1   6    5.67    0.81
  -4  -1   6    5.12    0.93
  -4  -1   6    5.74    0.55
   3   1  -6  193.71   10.22
   3   1  -6  193.94   10.18
   3   1  -6  206.06   10.30
   3   1  -6  199.59   10.18
   3   1  -6  204.48   10.23
   3   1  -6  184.00   10.16
  -3  -1   6  199.71   10.28
  -3  -1   6  208.90   10.21
  -3  -1   6  185.86   10.12
  -3  -1   6  200.93   10.23
  -3  -1   6  176.52   10.12
  -3  -1   6  198.52   10.20
   2   1  -6   41.67    2.48
   2   1  -6   38.97    2.35
   2   1  -6   39.71    2.41
   2   1  -6   43.80    2.39
   2   1  -6   42.41    2.56
   2   1  -6   39.90    2.47
  -2  -1   6   41.98    2.40
  -2  -1   6   42.04    2.34
  -2  -1   6   39.25    2.41
  -2  -1   6   41.77    2.38
  -2  -1   6   38.82    2.47
   1   1  -6  212.03   10.99
   1   1  -6  211.91   11.22
   1   1  -6  211.48   11.04
   1   1  -6  225.33   11.12
   1   1  -6  207.45   11.10
  -1  -1   6  214.88   10.90
  -1  -1   6  212.35   11.03
  -1  -1   6  229.52   11.15
  -1  -1   6  229.94   11.28
  -1  -1   6  211.25   11.08
  -1  -1   6  189.34   10.87
  -1  -1   6  218.53   11.05
   0   1  -6   11.72    1.03
   0   1  -6   12.58    1.10
   0   1  -6   11.57    0.82
   0   1  -6   11.85    1.07
   0   1  -6   11.14    0.92
   0   1  -6   11.38    1.36
   0   1  -6   11.10    0.90
   0   1  -6   12.95    0.84
   0  -1   6   11.60    0.91
   0  -1   6   12.38    0.97
   0  -1   6   12.76    1.05
   0  -1   6   12.47    1.11
   0  -1   6   12.50    1.33
   0  -1   6   11.88    0.92
  -1   1  -6   38.41    2.10
  -1   1  -6   41.24    2.40
  -1   1  -6   37.92    2.31
  -1   1  -6   39.89    2.10
  -1   1  -6   39.62    2.36
  -1   1  -6   39.68    2.37
  -1   1  -6   38.43    2.38
  -1   1  -6   38.62    2.72
   1  -1   6   40.26    2.45
   1  -1   6   41.92    2.37
   1  -1   6   43.34    2.27
   1  -1   6   38.69    2.35
   1  -1   6   39.80    2.33
   1  -1   6   39.60    2.76
  -2   1  -6   39.29    2.84
  -2   1  -6   40.04    2.30
  -2   1  -6   36.98    2.25
  -2   1  -6   38.47    2.38
  -2   1  -6   38.91    2.19
  -2   1  -6   37.35    2.34
   2  -1   6   36.19    2.36
   2  -1   6   38.88    2.40
   2  -1   6   39.04    2.34
   2  -1   6   37.65    2.20
   2  -1   6   39.19    2.72
   2  -1   6   35.93    2.22
  -3   1  -6   48.65    3.05
  -3   1  -6   47.88    2.94
  -3   1  -6   49.49    2.78
  -3   1  -6   50.03    3.40
  -3   1  -6   47.81    2.85
   3  -1   6   52.22    3.49
   3  -1   6   49.92    3.02
   3  -1   6   49.48    2.97
   3  -1   6   50.31    3.05
   3  -1   6   49.45    2.81
   3  -1   6   51.24    2.82
  -4   1  -6    0.34    0.66
  -4   1  -6   -0.84    0.98
  -4   1  -6    0.68    0.58
  -4   1  -6    1.92    0.79
  -4   1  -6    2.17    0.52
   4  -1   6    0.65    0.55
   4  -1   6    0.70    0.91
   4  -1   6    0.86    0.68
   4  -1   6    0.65    0.68
   4  -1   6    1.15    0.80
   4  -1   6   -0.14    0.53
  -5   1  -6   -0.72    0.46
  -5   1  -6    0.05    0.54
  -5   1  -6   -1.37    0.85
  -5   1  -6   -0.14    1.46
   5  -1   6   -0.05    0.79
   5  -1   6   -0.70    0.52
   5  -1   6   -0.04    0.67
   5  -1   6   -0.03    0.71
  -6   1  -6    0.69    0.58
  -6   1  -6    0.37    0.53
  -6   1  -6    0.71    1.45
  -6   1  -6    0.31    0.86
   6  -1   6   -0.29    0.82
   6  -1   6   -1.00    0.53
   6  -1   6    0.37    0.82
  -7   1  -6   24.25    2.96
  -7   1  -6   16.79    2.12
   7  -1   6   18.56    2.11
   7  -1   6   17.80    1.71
   7  -1   6   19.56    2.00
  -8   1  -6    0.46    1.34
  -8   1  -6    1.35    1.67
   8  -1   6   -0.12    1.08
   8  -1   6   -0.94    1.15
   8  -1   6    1.72    0.84
   8  -1   6    1.11    0.99
   9   0  -6    2.88    1.55
   9   0  -6    6.37    1.27
   9   0  -6    6.59    1.47
   9   0  -6    6.83    1.32
   9   0  -6    8.75    1.18
   8   0  -6    3.09    1.03
   8   0  -6    5.53    1.18
   8   0  -6    3.02    1.03
   8   0  -6    2.29    0.79
  -8   0   6    2.89    1.14
   7   0  -6    1.30    0.63
   7   0  -6   -0.15    0.90
   7   0  -6   -0.26    0.84
   7   0  -6   -0.27    0.77
   7   0  -6   -0.65    0.80
   7   0  -6    0.09    0.90
   7   0  -6    0.55    0.95
  -7   0   6    0.10    0.87
   6   0  -6    3.10    0.78
   6   0  -6    2.61    0.91
   6   0  -6    4.54    1.13
   6   0  -6    3.93    0.67
   6   0  -6    3.64    1.06
   6   0  -6    4.71    1.00
   6   0  -6    3.43    0.65
   6   0  -6    1.62    0.94
   6   0  -6    3.45    1.02
  -6   0   6    2.60    0.94
   5   0  -6    1.85    0.90
   5   0  -6    2.88    0.66
   5   0  -6    4.09    0.89
   5   0  -6    4.16    0.90
   5   0  -6    4.36    0.87
   5   0  -6    3.12    0.72
   5   0  -6    2.99    0.82
   5   0  -6    3.45    0.52
   5   0  -6    3.76    0.90
  -5   0   6    4.28    0.88
  -5   0   6    3.34    0.84
  -5   0   6    5.09    0.89
   4   0  -6    2.05    0.63
   4   0  -6    1.70    0.66
   4   0  -6    1.93    0.65
   4   0  -6    2.14    0.36
   4   0  -6    2.06    0.55
   4   0  -6    2.18    0.37
   4   0  -6    1.37    0.86
   4   0  -6    1.41    0.85
   4   0  -6    2.00    0.68
  -4   0   6    1.85    0.67
  -4   0   6    2.42    0.65
  -4   0   6    3.35    0.75
   3   0  -6  102.82    5.41
   3   0  -6  100.90    5.28
   3   0  -6   96.08    5.35
   3   0  -6   97.21    5.32
   3   0  -6   95.94    5.49
   3   0  -6   96.98    5.08
   3   0  -6   98.24    5.40
   3   0  -6   98.63    5.41
   3   0  -6  101.56    5.09
  -3   0   6   97.27    5.36
  -3   0   6  100.22    5.40
  -3   0   6  116.17    5.68
  -3   0   6   98.74    5.42
   2   0  -6    0.27    0.45
   2   0  -6    1.01    0.56
   2   0  -6    0.62    0.52
   2   0  -6    0.88    0.36
   2   0  -6    0.72    0.12
   2   0  -6    1.06    0.83
   2   0  -6    0.73    0.48
   2   0  -6    0.21    0.60
  -2   0   6    0.74    0.53
  -2   0   6    0.58    0.54
  -2   0   6    0.34    0.51
  -2   0   6    0.39    0.70
  -2   0   6    0.41    0.43
   1   0  -6    5.54    1.10
   1   0  -6    4.94    0.76
   1   0  -6    4.35    0.48
   1   0  -6    4.05    0.56
   1   0  -6    3.68    0.54
   1   0  -6    4.07    0.63
   1   0  -6    3.97    0.48
   1   0  -6    4.77    0.70
  -1   0   6    4.73    0.62
  -1   0   6    4.59    0.49
  -1   0   6    4.45    0.65
  -1   0   6    5.00    0.78
  -1   0   6    5.65    1.13
  -1   0   6    5.00    0.71
   0   0  -6   14.45    1.11
   0   0  -6   15.08    1.00
   0   0  -6   13.80    0.95
   0   0  -6   14.82    1.18
   0   0  -6   15.29    1.65
   0   0  -6   15.91    1.08
   0   0  -6   15.11    1.14
   0   0   6   15.87    1.22
   0   0   6   14.67    1.00
   0   0   6   14.40    1.14
   0   0   6   13.55    1.55
   0   0   6   14.88    1.06
   0   0   6   15.89    1.13
  -1   0  -6    0.07    0.22
  -1   0  -6    0.89    0.55
  -1   0  -6   -1.17    0.90
  -1   0  -6   -0.08    0.46
  -1   0  -6   -0.40    0.51
  -1   0  -6   -0.27    0.49
   1   0   6    0.09    0.86
   1   0   6    0.21    0.49
   1   0   6    0.02    0.38
   1   0   6    0.10    0.46
   1   0   6   -0.01    0.57
  -2   0  -6    9.24    0.86
  -2   0  -6    7.59    1.52
  -2   0  -6    9.46    0.86
  -2   0  -6    9.33    1.04
  -2   0  -6    9.83    0.52
  -2   0  -6    8.32    0.98
   2   0   6    8.35    1.00
   2   0   6    9.04    1.04
   2   0   6    9.33    0.91
   2   0   6    9.33    0.83
   2   0   6    9.20    0.92
   2   0   6    8.36    1.51
  -3   0  -6    5.29    0.99
  -3   0  -6    5.13    0.74
  -3   0  -6    5.17    1.44
  -3   0  -6    5.86    1.25
  -3   0  -6    5.32    0.71
   3   0   6    5.09    0.72
   3   0   6    5.59    0.85
   3   0   6    5.51    0.83
   3   0   6    6.77    1.03
   3   0   6    6.40    1.00
   3   0   6    5.46    1.21
  -4   0  -6   84.24    4.73
  -4   0  -6   80.79    4.42
  -4   0  -6   78.53    5.06
  -4   0  -6   81.56    4.27
   4   0   6   80.56    4.73
   4   0   6   84.16    4.50
   4   0   6   72.28    4.92
   4   0   6   74.01    4.53
   4   0   6   83.41    4.65
   4   0   6   77.45    4.29
  -5   0  -6    4.62    1.54
  -5   0  -6    4.33    0.83
  -5   0  -6    4.35    0.65
  -5   0  -6    2.62    1.12
   5   0   6    4.20    1.13
   5   0   6    4.03    0.97
   5   0   6    3.79    0.86
   5   0   6    4.62    0.92
  -6   0  -6   10.58    2.01
  -6   0  -6    8.07    1.60
   6   0   6    8.79    1.34
   6   0   6   10.36    1.60
   6   0   6   11.38    1.45
  -7   0  -6    1.77    1.31
  -7   0  -6    0.72    1.59
   7   0   6    0.20    0.87
   7   0   6    2.90    1.25
  -8   0  -6    2.32    1.54
  -8   0  -6    2.77    1.66
   8   0   6    4.05    2.30
   8   0   6    2.28    1.13
  10  -1  -6    2.17    0.99
  10  -1  -6    3.68    1.18
  10  -1  -6    1.97    1.13
  10  -1  -6    3.45    1.10
   9  -1  -6    0.63    0.81
   9  -1  -6    2.22    0.98
   9  -1  -6    0.28    0.86
   9  -1  -6   -1.27    1.23
   9  -1  -6   -0.06    0.87
   9  -1  -6    2.05    1.30
   8  -1  -6    7.83    1.34
   8  -1  -6    6.19    1.18
   8  -1  -6    7.09    1.10
   8  -1  -6    5.95    1.19
   7  -1  -6   58.71    3.64
   7  -1  -6   63.53    3.62
   7  -1  -6   70.15    3.82
   7  -1  -6   58.94    4.25
   7  -1  -6   61.51    3.74
  -7   1   6   64.57    3.91
   6  -1  -6    0.70    0.75
   6  -1  -6    1.19    0.62
   6  -1  -6    2.18    1.01
   6  -1  -6    1.91    0.79
   6  -1  -6    1.69    0.77
   6  -1  -6    0.38    0.99
   6  -1  -6    1.63    0.60
   6  -1  -6    2.63    0.70
   6  -1  -6    1.23    0.87
  -6   1   6    0.65    0.83
  -6   1   6    0.86    0.82
   5  -1  -6   11.96    1.00
   5  -1  -6   11.91    1.28
   5  -1  -6   13.72    1.09
   5  -1  -6   13.97    1.32
   5  -1  -6   14.40    1.22
   5  -1  -6   13.33    1.24
   5  -1  -6   11.54    1.16
   5  -1  -6   13.62    1.03
   5  -1  -6   10.05    1.47
   5  -1  -6    9.68    1.54
  -5   1   6   12.69    1.24
  -5   1   6   13.62    1.27
   4  -1  -6   12.59    1.11
   4  -1  -6   12.64    0.90
   4  -1  -6   10.74    1.27
   4  -1  -6   12.78    1.14
   4  -1  -6   10.31    1.49
   4  -1  -6   12.12    0.90
   4  -1  -6   10.98    1.09
   4  -1  -6   12.78    1.12
  -4   1   6   13.77    1.17
  -4   1   6   13.54    1.36
  -4   1   6   12.48    1.11
  -4   1   6   11.84    1.17
   3  -1  -6  100.87    5.57
   3  -1  -6   98.48    5.34
   3  -1  -6   98.95    5.12
   3  -1  -6   94.75    5.29
   3  -1  -6  102.01    5.13
   3  -1  -6   98.36    5.30
   3  -1  -6   99.75    5.34
  -3   1   6  100.61    5.32
  -3   1   6   99.74    5.34
  -3   1   6   94.16    5.43
  -3   1   6  106.89    5.32
  -3   1   6   88.59    5.25
   2  -1  -6  202.81   10.31
   2  -1  -6  194.49   10.31
   2  -1  -6  203.27   10.54
   2  -1  -6  205.66   10.15
   2  -1  -6  196.04   10.06
   2  -1  -6  195.93   10.25
   2  -1  -6  202.05   10.28
  -2   1   6  186.92   10.46
  -2   1   6  200.29   10.26
  -2   1   6  202.07   10.28
  -2   1   6  179.00   10.24
  -2   1   6  210.94   10.34
  -2   1   6  200.68   10.14
   1  -1  -6   53.83    2.96
   1  -1  -6   53.58    2.98
   1  -1  -6   53.04    3.34
   1  -1  -6   52.62    3.07
   1  -1  -6   53.90    3.06
   1  -1  -6   57.11    3.06
  -1   1   6   54.87    3.07
  -1   1   6   54.59    3.37
  -1   1   6   55.69    2.96
  -1   1   6   53.57    3.01
  -1   1   6   52.80    2.84
  -1   1   6   57.51    2.99
  -1   1   6   53.19    3.06
   0  -1  -6  442.74   22.69
   0  -1  -6  453.76   22.68
   0  -1  -6  424.33   22.58
   0  -1  -6  448.44   22.95
   0  -1  -6  446.89   22.70
   0  -1  -6  440.67   22.64
   0   1   6  453.05   22.68
   0   1   6  456.48   22.71
   0   1   6  472.30   22.58
   0   1   6  426.10   22.62
   0   1   6  433.29   22.92
   0   1   6  444.41   22.70
  -1  -1  -6  101.64    5.43
  -1  -1  -6  104.56    5.59
  -1  -1  -6  101.92    5.53
  -1  -1  -6  102.23    5.89
  -1  -1  -6  103.53    5.37
  -1  -1  -6  103.58    5.55
   1   1   6  100.30    5.85
   1   1   6   99.08    5.36
   1   1   6  104.63    5.58
   1   1   6  111.33    5.58
   1   1   6  104.78    5.58
   1   1   6  103.88    5.45
  -2  -1  -6   32.00    2.07
  -2  -1  -6   34.34    2.14
  -2  -1  -6   34.20    1.86
  -2  -1  -6   36.58    2.28
  -2  -1  -6   34.15    1.95
  -2  -1  -6   34.63    2.65
   2   1   6   30.55    2.72
   2   1   6   37.33    2.09
   2   1   6   34.34    2.20
   2   1   6   31.60    2.52
   2   1   6   33.12    2.15
   2   1   6   32.38    1.91
  -3  -1  -6    4.91    0.75
  -3  -1  -6    5.03    0.47
  -3  -1  -6    4.99    0.61
  -3  -1  -6    5.73    1.27
  -3  -1  -6    6.14    0.95
  -3  -1  -6    4.64    0.99
   3   1   6    5.38    0.82
   3   1   6    6.06    0.96
   3   1   6    4.58    0.55
   3   1   6    5.55    0.90
   3   1   6    5.67    0.97
   3   1   6    5.26    1.27
  -4  -1  -6    5.72    0.89
  -4  -1  -6    6.74    1.59
  -4  -1  -6    7.34    0.59
  -4  -1  -6    6.57    1.10
  -4  -1  -6    7.05    0.88
   4   1   6    6.19    1.47
   4   1   6    8.97    1.27
   4   1   6    8.82    0.61
   4   1   6    7.59    1.08
   4   1   6    7.03    1.05
  -5  -1  -6    5.30    1.62
  -5  -1  -6    4.81    1.31
   5   1   6    5.64    1.06
   5   1   6    6.40    1.27
   5   1   6    4.60    0.56
   5   1   6    5.51    1.33
  -6  -1  -6   25.69    2.42
  -6  -1  -6   26.87    2.86
   6   1   6   31.48    2.30
   6   1   6   28.65    2.29
   6   1   6   30.50    2.54
   6   1   6   26.01    1.62
  -7  -1  -6    1.77    1.34
   7   1   6    3.31    1.24
   7   1   6    3.08    1.03
   7   1   6    2.29    0.49
   7   1   6    2.73    1.23
  -8  -1  -6    7.19    2.05
  -8  -1  -6    7.42    2.23
   8   1   6    5.99    1.58
   8   1   6   10.73    1.67
   8   1   6    4.12    1.29
   9  -2  -6    0.79    1.38
   9  -2  -6    3.62    1.05
   9  -2  -6    4.61    1.34
   9  -2  -6    2.39    1.00
   9  -2  -6    2.02    1.16
   9  -2  -6    3.54    1.03
   9  -2  -6    4.75    1.20
   8  -2  -6   22.17    1.87
   8  -2  -6   28.80    2.03
   8  -2  -6   17.77    3.07
   8  -2  -6   26.32    1.94
   8  -2  -6   23.87    1.90
   8  -2  -6   21.41    2.30
   7  -2  -6   24.82    1.76
   7  -2  -6   19.96    1.68
   7  -2  -6   17.09    2.19
   7  -2  -6   23.60    1.70
   7  -2  -6   20.96    1.77
   7  -2  -6   21.93    1.92
   7  -2  -6   23.65    1.97
  -7   2   6   19.98    2.83
   6  -2  -6    0.25    0.67
   6  -2  -6    1.19    1.02
   6  -2  -6    0.01    1.03
   6  -2  -6    0.60    0.88
   6  -2  -6    0.72    0.64
   6  -2  -6    1.59    0.66
   6  -2  -6    0.50    0.55
   6  -2  -6    1.01    0.57
  -6   2   6   -0.72    0.83
  -6   2   6   -0.14    0.68
   5  -2  -6    1.49    0.55
   5  -2  -6    0.45    0.65
   5  -2  -6    1.46    0.83
   5  -2  -6    2.18    0.53
   5  -2  -6    1.17    0.66
   5  -2  -6    0.66    0.92
   5  -2  -6    1.28    0.68
   5  -2  -6    1.68    0.51
   5  -2  -6    1.76    0.61
   5  -2  -6    0.43    0.97
   5  -2  -6    0.64    0.58
  -5   2   6    1.07    0.67
  -5   2   6    0.99    1.13
  -5   2   6    0.92    0.71
   4  -2  -6   13.50    1.22
   4  -2  -6   15.25    0.96
   4  -2  -6   15.66    1.27
   4  -2  -6   14.97    0.99
   4  -2  -6   13.37    1.17
   4  -2  -6   13.31    1.32
   4  -2  -6   15.53    1.09
   4  -2  -6   14.66    1.11
   4  -2  -6   14.30    1.23
   4  -2  -6   14.31    1.74
  -4   2   6   14.34    1.54
  -4   2   6   14.20    1.21
  -4   2   6   13.39    1.28
  -4   2   6   14.42    1.15
   3  -2  -6   49.46    2.94
   3  -2  -6   49.91    2.63
   3  -2  -6   48.66    2.94
   3  -2  -6   49.55    2.83
   3  -2  -6   49.91    2.95
   3  -2  -6   49.50    2.87
   3  -2  -6   53.25    3.37
  -3   2   6   57.33    3.15
  -3   2   6   49.05    2.90
  -3   2   6   50.37    2.87
  -3   2   6   52.66    2.97
  -3   2   6   50.18    3.18
   2  -2  -6  140.45    7.11
   2  -2  -6  140.42    7.52
   2  -2  -6  136.79    7.16
   2  -2  -6  135.27    7.19
   2  -2  -6  137.56    7.11
   2  -2  -6  135.44    7.20
   2  -2  -6  127.84    7.16
  -2   2   6  134.56    7.10
  -2   2   6  134.99    7.34
  -2   2   6  128.85    7.38
  -2   2   6  141.06    7.22
  -2   2   6  138.36    7.16
   1  -2  -6    3.54    0.66
   1  -2  -6    2.47    0.64
   1  -2  -6    4.10    0.66
   1  -2  -6    2.74    0.58
   1  -2  -6    2.80    0.54
   1  -2  -6    5.51    1.31
  -1   2   6    2.68    0.56
  -1   2   6    2.98    0.67
  -1   2   6    2.54    0.55
  -1   2   6    2.11    0.26
  -1   2   6    1.85    0.26
  -1   2   6    2.34    0.96
  -1   2   6    2.80    0.59
   0  -2  -6  255.30   13.05
   0  -2  -6  253.90   13.34
   0  -2  -6  273.10   13.01
   0  -2  -6  249.96   12.96
   0  -2  -6  251.26   13.05
   0  -2  -6  254.56   12.95
   0   2   6  248.53   13.31
   0   2   6  223.31   12.89
   0   2   6  250.97   12.95
   0   2   6  252.36   13.05
   0   2   6  261.59   13.08
   0   2   6  255.91   13.01
  -1  -2  -6    6.53    0.87
  -1  -2  -6   11.12    1.71
  -1  -2  -6    8.99    0.76
  -1  -2  -6    7.11    0.74
  -1  -2  -6    6.91    0.85
  -1  -2  -6    7.78    0.98
   1   2   6    6.99    0.92
   1   2   6    9.83    1.07
   1   2   6   10.45    1.48
   1   2   6    7.17    0.75
   1   2   6    6.82    0.90
   1   2   6    9.97    0.83
  -2  -2  -6   12.11    2.28
  -2  -2  -6    9.95    0.85
  -2  -2  -6   13.41    0.91
  -2  -2  -6   11.14    1.05
  -2  -2  -6   11.83    1.10
  -2  -2  -6   11.74    1.25
   2   2   6   11.32    0.89
   2   2   6   12.02    1.60
   2   2   6   10.42    1.18
   2   2   6    9.94    1.13
   2   2   6   12.12    1.15
  -3  -2  -6    0.57    0.75
  -3  -2  -6    0.46    0.31
  -3  -2  -6   -0.37    0.52
  -3  -2  -6   -0.07    0.34
  -3  -2  -6    0.32    1.08
  -3  -2  -6    0.02    0.80
   3   2   6    0.03    0.71
   3   2   6   -0.02    0.93
   3   2   6    0.36    0.70
   3   2   6    0.21    0.38
   3   2   6    0.50    0.56
  -4  -2  -6   -0.63    0.92
  -4  -2  -6   -1.55    1.07
  -4  -2  -6    0.74    0.39
   4   2   6   -0.10    0.80
   4   2   6   -0.93    1.05
   4   2   6    0.43    0.45
   4   2   6   -0.24    0.98
  -5  -2  -6    9.95    1.84
  -5  -2  -6    7.69    1.51
   5   2   6    8.60    1.44
   5   2   6    8.92    1.39
   5   2   6    8.77    0.90
  -6  -2  -6    1.27    1.20
  -6  -2  -6    1.53    1.30
   6   2   6    0.21    0.97
   6   2   6    2.37    1.03
   6   2   6    1.34    1.08
   6   2   6    0.79    0.54
  -7  -2  -6    3.66    2.08
   7   2   6    2.15    0.58
   7   2   6    1.96    1.25
   7   2   6    0.50    1.06
   7   2   6    1.77    0.96
  -8  -2  -6    1.89    1.40
  -8  -2  -6    0.58    1.37
   8   2   6    0.38    0.91
   8   2   6    0.69    1.26
   9  -3  -6    3.08    1.55
   9  -3  -6    6.18    2.33
   9  -3  -6    4.30    1.11
   9  -3  -6    7.41    1.50
   9  -3  -6    6.36    1.12
   9  -3  -6    9.18    2.32
   9  -3  -6    8.61    1.37
   8  -3  -6    7.16    1.56
   8  -3  -6    8.51    1.28
   8  -3  -6    7.43    1.39
   8  -3  -6    7.34    1.23
   8  -3  -6    8.11    1.26
   8  -3  -6    7.91    1.41
   7  -3  -6   33.64    2.37
   7  -3  -6   35.03    2.33
   7  -3  -6   41.15    2.66
   7  -3  -6   34.79    2.40
   7  -3  -6   38.74    2.35
   7  -3  -6   30.70    2.38
   7  -3  -6   36.41    3.09
  -7   3   6   31.54    2.47
   6  -3  -6   61.00    3.26
   6  -3  -6   54.06    3.35
   6  -3  -6   52.93    3.33
   6  -3  -6   53.29    3.33
   6  -3  -6   56.69    3.51
   6  -3  -6   55.07    3.91
  -6   3   6   54.81    3.40
  -6   3   6   60.68    3.46
  -6   3   6   55.51    3.34
   5  -3  -6   99.07    5.69
   5  -3  -6  106.60    5.82
   5  -3  -6  109.09    6.19
   5  -3  -6  117.20    6.43
   5  -3  -6  108.97    6.34
   5  -3  -6  112.15    5.93
   5  -3  -6  103.23    5.93
   5  -3  -6  105.90    5.86
   5  -3  -6  109.39    5.99
  -5   3   6  106.74    5.93
  -5   3   6  109.29    5.83
  -5   3   6  109.26    5.95
   4  -3  -6    4.88    0.83
   4  -3  -6    3.78    0.65
   4  -3  -6    4.98    0.72
   4  -3  -6    4.09    0.87
   4  -3  -6    5.52    0.88
   4  -3  -6    6.29    0.94
  -4   3   6    4.99    0.70
  -4   3   6    5.29    0.75
  -4   3   6    3.96    0.83
  -4   3   6    7.22    1.84
  -4   3   6    6.01    0.88
   3  -3  -6    0.86    0.59
   3  -3  -6    1.32    0.61
   3  -3  -6    1.07    0.79
   3  -3  -6    0.16    0.59
   3  -3  -6    1.33    0.60
   3  -3  -6    1.21    0.55
   3  -3  -6    0.35    1.11
  -3   3   6    0.38    0.53
  -3   3   6    0.66    0.42
  -3   3   6    1.22    0.85
  -3   3   6    0.46    0.39
  -3   3   6    0.53    0.64
   2  -3  -6   37.31    2.23
   2  -3  -6   34.68    2.24
   2  -3  -6   36.99    3.07
   2  -3  -6   34.49    2.22
   2  -3  -6   35.84    2.23
   2  -3  -6   35.48    2.08
   2  -3  -6   36.71    2.23
  -2   3   6   36.68    2.27
  -2   3   6   35.25    2.18
  -2   3   6   39.74    2.64
  -2   3   6   34.44    2.55
  -2   3   6   36.57    2.08
   1  -3  -6   14.02    1.20
   1  -3  -6   14.13    1.11
   1  -3  -6   12.41    1.09
   1  -3  -6   14.99    1.07
   1  -3  -6   12.86    1.15
   1  -3  -6   13.83    1.15
   1  -3  -6   14.36    2.45
  -1   3   6   14.85    0.87
  -1   3   6   14.15    1.08
  -1   3   6   13.73    1.18
  -1   3   6   14.14    1.48
  -1   3   6   13.77    1.13
  -1   3   6   13.13    1.27
   0  -3  -6    6.31    0.74
   0  -3  -6    5.89    0.75
   0  -3  -6    5.96    0.76
   0  -3  -6    7.11    0.85
   0  -3  -6    5.07    0.72
   0  -3  -6    6.87    0.94
   0   3   6    7.45    0.85
   0   3   6    6.19    0.88
   0   3   6    8.20    1.34
   0   3   6    7.83    0.97
   0   3   6    7.16    0.67
   0   3   6    6.89    0.77
  -1  -3  -6   51.26    2.81
  -1  -3  -6   47.13    2.75
  -1  -3  -6   47.45    2.68
  -1  -3  -6   47.17    2.88
  -1  -3  -6   48.75    2.69
  -1  -3  -6   49.52    2.99
  -1  -3  -6   48.69    3.51
   1   3   6   48.32    2.78
   1   3   6   44.44    2.75
   1   3   6   47.61    2.98
   1   3   6   46.93    3.23
   1   3   6   50.10    2.93
   1   3   6   50.01    2.86
  -2  -3  -6    1.05    0.45
  -2  -3  -6    1.64    0.80
  -2  -3  -6    1.03    0.62
  -2  -3  -6    1.18    0.62
  -2  -3  -6    0.87    0.36
  -2  -3  -6   -0.04    0.68
  -2  -3  -6    2.50    1.35
   2   3   6    1.18    0.49
   2   3   6    0.24    0.70
   2   3   6    0.68    0.78
   2   3   6    1.00    1.01
   2   3   6    1.41    0.60
   2   3   6    0.42    0.66
  -3  -3  -6    1.11    0.51
  -3  -3  -6   -1.04    0.87
  -3  -3  -6   -0.60    1.21
  -3  -3  -6    1.52    0.90
   3   3   6    0.42    0.77
   3   3   6    0.79    1.20
   3   3   6    1.50    0.86
   3   3   6    1.48    0.70
   3   3   6    1.61    0.60
  -4  -3  -6   11.56    1.00
  -4  -3  -6   10.13    1.95
  -4  -3  -6   10.16    1.59
   4   3   6   11.96    1.43
   4   3   6   11.50    1.52
   4   3   6    9.38    1.80
   4   3   6   12.16    1.11
  -5  -3  -6   10.87    2.08
  -5  -3  -6    9.36    1.72
   5   3   6   11.08    1.69
   5   3   6   10.98    1.07
   5   3   6   10.05    1.94
  -6  -3  -6   36.61    3.05
  -6  -3  -6   38.87    3.27
   6   3   6   38.24    2.97
   6   3   6   34.80    2.36
   6   3   6   42.90    3.08
  -7  -3  -6    0.62    1.29
  -7  -3  -6    3.16    1.40
   7   3   6    1.16    1.29
   7   3   6    2.23    1.31
   7   3   6    1.07    0.70
   9  -4  -6    0.38    1.05
   9  -4  -6    0.24    0.78
   9  -4  -6    0.88    0.96
   9  -4  -6    1.65    1.27
   9  -4  -6    0.57    1.42
   9  -4  -6    1.87    0.91
   9  -4  -6    1.04    0.93
   8  -4  -6   -0.91    1.13
   8  -4  -6   -1.03    0.77
   8  -4  -6   -1.46    1.14
   8  -4  -6    1.07    0.82
   8  -4  -6    0.12    0.87
   8  -4  -6    1.04    0.88
   8  -4  -6    1.36    1.08
   7  -4  -6   14.04    1.33
   7  -4  -6   13.69    1.67
   7  -4  -6   12.27    2.20
   7  -4  -6   12.64    1.28
   7  -4  -6   14.82    1.34
   7  -4  -6   10.42    1.58
  -7   4   6   10.48    1.44
   6  -4  -6    3.14    1.39
   6  -4  -6    5.58    0.82
   6  -4  -6    5.51    1.25
   6  -4  -6    3.87    0.77
   6  -4  -6    6.89    1.05
   6  -4  -6    4.62    1.09
  -6   4   6    4.58    0.97
  -6   4   6    5.96    1.07
   5  -4  -6   10.68    1.45
   5  -4  -6   10.27    1.30
   5  -4  -6    8.95    0.91
   5  -4  -6    6.29    1.62
   5  -4  -6    8.07    0.95
   5  -4  -6    9.81    1.18
  -5   4   6    9.88    1.35
  -5   4   6    9.01    0.96
  -5   4   6   11.53    1.25
   4  -4  -6   19.00    2.44
   4  -4  -6   21.90    1.74
   4  -4  -6   25.80    1.97
   4  -4  -6   24.06    1.82
  -4   4   6   22.69    1.80
  -4   4   6   28.30    2.35
  -4   4   6   29.89    1.81
  -4   4   6   25.37    1.55
  -4   4   6   25.31    1.76
   3  -4  -6   86.71    4.66
   3  -4  -6   77.99    4.54
   3  -4  -6   75.51    4.50
   3  -4  -6   79.33    4.26
   3  -4  -6   75.34    5.04
   3  -4  -6   82.35    4.54
   3  -4  -6   93.21    4.61
  -3   4   6   79.89    4.54
  -3   4   6   80.49    4.85
  -3   4   6   79.08    4.25
  -3   4   6   80.40    4.54
  -3   4   6   77.61    4.49
   2  -4  -6   33.69    1.88
   2  -4  -6   32.24    2.13
   2  -4  -6   34.85    2.17
   2  -4  -6   33.76    2.17
   2  -4  -6   29.00    2.32
   2  -4  -6   33.61    2.27
   2  -4  -6   34.62    2.74
  -2   4   6   33.47    2.17
  -2   4   6   33.45    2.16
  -2   4   6   32.68    2.57
  -2   4   6   32.50    1.77
  -2   4   6   33.48    2.15
  -2   4   6   32.25    1.88
   1  -4  -6   44.26    3.17
   1  -4  -6   42.40    2.60
   1  -4  -6   38.29    2.45
   1  -4  -6   41.80    2.54
   1  -4  -6   38.73    2.47
   1  -4  -6   35.63    2.40
  -1   4   6   40.07    2.54
  -1   4   6   40.01    2.23
  -1   4   6   42.47    2.31
  -1   4   6   40.36    2.53
  -1   4   6   39.44    2.43
   0  -4  -6    0.08    0.45
   0  -4  -6    0.28    1.18
   0  -4  -6    0.21    0.51
   0  -4  -6    1.28    0.62
   0  -4  -6    0.18    0.51
   0  -4  -6    0.28    0.67
   0  -4  -6    0.55    0.51
   0   4   6    0.97    0.57
   0   4   6    0.15    0.47
   0   4   6    0.37    0.39
   0   4   6    0.56    0.64
   0   4   6    0.67    1.16
  -1  -4  -6   20.66    1.48
  -1  -4  -6   19.15    1.34
  -1  -4  -6   22.08    1.65
  -1  -4  -6   24.19    2.40
  -1  -4  -6   22.43    1.53
  -1  -4  -6   19.43    1.36
  -1  -4  -6   20.69    1.75
   1   4   6   20.81    1.51
   1   4   6   19.75    1.54
   1   4   6   14.68    2.32
   1   4   6   22.51    1.69
   1   4   6   19.72    1.47
   1   4   6   19.00    1.75
  -2  -4  -6   51.35    2.78
  -2  -4  -6   54.77    3.54
  -2  -4  -6   49.41    3.77
  -2  -4  -6   48.16    2.96
  -2  -4  -6   49.21    3.32
  -2  -4  -6   47.20    2.76
   2   4   6   47.83    3.53
   2   4   6   57.44    3.16
   2   4   6   49.96    3.00
   2   4   6   50.26    3.10
   2   4   6   55.08    3.29
  -3  -4  -6    1.28    0.72
  -3  -4  -6    1.05    0.81
  -3  -4  -6   -0.05    1.35
   3   4   6    1.54    1.15
   3   4   6    0.90    0.66
   3   4   6    1.52    0.91
   3   4   6    1.43    0.67
   3   4   6    1.61    0.97
  -4  -4  -6    0.12    1.25
  -4  -4  -6    1.69    0.58
   4   4   6    2.56    1.11
   4   4   6    1.42    0.75
  -5  -4  -6    0.01    1.11
  -5  -4  -6    0.43    0.36
  -5  -4  -6   -1.74    1.57
   5   4   6   -0.92    0.97
   5   4   6   -0.11    0.68
   5   4   6   -0.60    0.91
  -6  -4  -6    0.58    1.24
  -6  -4  -6    2.14    1.27
   6   4   6    2.50    1.39
   6   4   6    2.89    1.30
  -7  -4  -6    2.58    1.43
   7   4   6   -0.08    0.76
   7   4   6    1.29    1.23
   7   4   6    0.19    1.39
   9  -5  -6   10.03    1.92
   9  -5  -6    8.73    1.31
   9  -5  -6    6.80    1.16
   9  -5  -6   12.37    2.48
   9  -5  -6    8.26    1.44
   9  -5  -6    5.87    1.20
   8  -5  -6    4.85    0.90
   8  -5  -6    4.40    1.39
   8  -5  -6    3.34    0.70
   8  -5  -6    0.91    0.97
   8  -5  -6    1.30    1.43
   8  -5  -6    2.11    0.92
  -8   5   6    3.20    1.04
  -8   5   6    3.47    1.80
   7  -5  -6    2.43    1.36
   7  -5  -6    2.92    0.82
   7  -5  -6    2.11    0.59
   7  -5  -6    4.62    1.33
   7  -5  -6    2.30    1.07
  -7   5   6    3.78    0.89
  -7   5   6    2.91    0.97
   6  -5  -6    2.46    1.37
   6  -5  -6    2.60    0.97
   6  -5  -6    1.69    0.56
   6  -5  -6    0.60    1.37
   6  -5  -6    3.28    0.66
   6  -5  -6    2.72    0.73
  -6   5   6    1.66    1.46
  -6   5   6    2.68    0.94
   5  -5  -6   13.23    1.13
   5  -5  -6   13.95    2.25
   5  -5  -6   16.32    1.74
   5  -5  -6   14.99    1.53
   5  -5  -6   11.76    1.11
   5  -5  -6   13.98    1.39
  -5   5   6   14.38    1.43
  -5   5   6   15.05    1.34
   4  -5  -6   14.04    1.61
   4  -5  -6   14.00    0.90
   4  -5  -6   14.14    1.36
   4  -5  -6   15.84    1.50
   4  -5  -6   12.02    1.01
  -4   5   6   13.21    1.39
  -4   5   6   12.65    1.28
  -4   5   6   12.49    1.33
   3  -5  -6   -0.15    1.49
   3  -5  -6   -0.10    0.93
   3  -5  -6    0.28    0.21
   3  -5  -6   -0.94    0.60
   3  -5  -6   -0.69    0.71
  -3   5   6    0.55    0.70
  -3   5   6   -0.55    0.45
  -3   5   6    0.24    0.64
  -3   5   6    0.03    0.24
   2  -5  -6    0.15    0.62
   2  -5  -6   -0.09    0.67
   2  -5  -6   -0.17    1.37
   2  -5  -6   -0.70    0.90
   2  -5  -6    0.29    0.78
   2  -5  -6    0.03    0.99
   2  -5  -6    0.13    0.30
  -2   5   6   -0.09    0.61
  -2   5   6   -0.03    0.28
  -2   5   6   -0.40    0.64
  -2   5   6   -0.17    0.25
  -2   5   6    0.42    0.65
   1  -5  -6   57.29    3.68
   1  -5  -6   64.64    3.89
   1  -5  -6   57.98    3.69
   1  -5  -6   69.87    3.72
   1  -5  -6   65.03    3.70
   1  -5  -6   66.90    4.47
  -1   5   6   65.65    4.14
  -1   5   6   64.46    3.50
  -1   5   6   64.56    3.81
  -1   5   6   55.49    3.78
  -1   5   6   65.71    3.46
  -1   5   6   66.47    3.76
   0  -5  -6  117.26    7.07
   0  -5  -6  136.64    7.33
   0  -5  -6  117.76    7.17
   0  -5  -6  135.76    7.67
   0  -5  -6  132.99    7.13
   0  -5  -6  128.59    7.01
   0   5   6  138.32    6.98
   0   5   6  128.07    6.99
   0   5   6  143.87    7.17
   0   5   6  138.35    7.49
   0   5   6  130.25    7.20
  -1  -5  -6    2.44    0.74
  -1  -5  -6    5.32    1.60
  -1  -5  -6    3.76    1.32
  -1  -5  -6    2.61    0.67
  -1  -5  -6    3.54    0.82
   1   5   6    3.36    0.73
   1   5   6    3.36    1.16
   1   5   6    2.79    0.85
   1   5   6    3.99    0.89
   1   5   6    3.10    0.66
  -2  -5  -6   58.17    4.17
  -2  -5  -6   55.04    3.32
  -2  -5  -6   67.42    4.44
  -2  -5  -6   59.72    3.93
   2   5   6   58.91    3.79
   2   5   6   59.37    3.60
   2   5   6   58.23    3.61
   2   5   6   57.53    3.66
   2   5   6   67.93    3.71
   2   5   6   72.25    4.39
  -3  -5  -6    1.85    1.51
   3   5   6    1.55    1.03
   3   5   6   -0.45    0.92
  -4  -5  -6   10.36    1.72
  -4  -5  -6    7.62    1.76
   4   5   6   10.26    1.34
   4   5   6   13.17    1.78
   4   5   6   14.32    1.69
  -5  -5  -6   -0.76    1.07
  -5  -5  -6    1.43    1.24
   5   5   6   -1.17    1.05
   5   5   6    0.00    1.04
   5   5   6   -0.02    0.81
   6   5   6    0.52    1.13
   6   5   6   -0.52    0.79
   8  -6  -6   -0.32    1.51
   8  -6  -6    1.43    1.20
   8  -6  -6    0.69    0.76
   8  -6  -6    0.22    1.38
   8  -6  -6    0.48    1.24
  -8   6   6   -1.12    0.76
  -8   6   6   -0.35    0.98
   7  -6  -6    4.03    1.25
   7  -6  -6    2.66    0.90
   7  -6  -6    6.40    1.53
   7  -6  -6    3.76    0.57
   7  -6  -6    2.57    0.62
  -7   6   6    4.77    1.04
  -7   6   6    4.87    1.14
   6  -6  -6    0.83    0.95
   6  -6  -6   -0.04    1.18
   6  -6  -6   -0.11    0.64
   6  -6  -6   -0.30    0.34
   6  -6  -6   -0.81    1.36
  -6   6   6    0.22    0.74
  -6   6   6    0.44    0.84
   5  -6  -6   -0.16    1.59
   5  -6  -6    0.34    0.89
   5  -6  -6   -0.58    0.54
   5  -6  -6    1.51    1.25
  -5   6   6   -0.16    0.62
  -5   6   6    0.45    0.79
   4  -6  -6   26.82    2.10
   4  -6  -6   19.28    1.92
   4  -6  -6   19.56    1.41
   4  -6  -6   18.29    1.85
  -4   6   6   21.40    1.74
  -4   6   6   20.98    1.81
   3  -6  -6   21.02    1.87
   3  -6  -6   18.44    1.26
   3  -6  -6   12.64    2.38
   3  -6  -6   17.61    1.81
   3  -6  -6   15.96    1.56
  -3   6   6   21.01    1.71
  -3   6   6   16.82    1.60
   2  -6  -6    4.64    0.74
   2  -6  -6    2.15    1.33
   2  -6  -6    1.31    1.03
   2  -6  -6    2.34    1.62
  -2   6   6    2.89    0.91
  -2   6   6    2.26    0.52
  -2   6   6    2.85    0.94
   1  -6  -6  133.87    8.05
   1  -6  -6  124.59    7.24
   1  -6  -6  132.55    7.51
  -1   6   6  150.65    7.41
  -1   6   6  134.38    7.50
  -1   6   6  136.00    7.11
  -1   6   6  127.19    6.94
   0  -6  -6   68.06    4.20
   0  -6  -6   65.22    3.80
   0   6   6   67.16    4.06
   0   6   6   70.18    3.70
   0   6   6   59.39    3.86
  -1  -6  -6    2.89    1.12
  -1  -6  -6    9.05    3.37
  -1  -6  -6    3.24    0.70
   1   6   6    2.64    0.66
   1   6   6    2.32    0.72
   1   6   6    2.94    1.05
   1   6   6    2.19    0.89
   1   6   6    1.77    0.85
  -2  -6  -6    3.02    1.19
  -2  -6  -6    2.27    0.35
  -2  -6  -6    1.89    2.05
   2   6   6    1.77    1.28
   2   6   6    1.91    0.95
   2   6   6    2.09    0.61
   2   6   6    2.57    0.82
  -3  -6  -6    1.85    1.15
  -3  -6  -6    1.53    1.48
   3   6   6    1.91    0.93
   3   6   6    1.69    1.13
   3   6   6    1.06    1.24
  -4  -6  -6    6.40    1.56
   4   6   6    7.86    1.41
   4   6   6    8.01    1.59
   4   6   6    4.50    1.79
  -5  -6  -6    2.77    1.41
   5   6   6    4.27    1.33
   5   6   6    4.71    1.09
   5   6   6    4.97    1.56
   8  -7  -6   -0.25    1.67
   8  -7  -6    3.18    1.57
   8  -7  -6    3.44    1.37
  -8   7   6    0.99    0.52
   7  -7  -6    2.33    1.21
   7  -7  -6   -0.45    1.67
   7  -7  -6   -0.69    1.23
  -7   7   6    1.18    0.76
   6  -7  -6    0.66    1.07
   6  -7  -6    4.11    1.46
   6  -7  -6   -2.27    1.46
  -6   7   6    0.18    0.72
  -6   7   6    0.98    0.89
   5  -7  -6   -0.94    1.49
   5  -7  -6   -1.31    0.91
   5  -7  -6   -0.28    1.23
  -5   7   6    0.82    0.89
  -5   7   6    0.96    0.76
   4  -7  -6    2.92    1.44
   4  -7  -6    0.34    1.24
   4  -7  -6   -0.14    1.55
  -4   7   6    4.11    1.09
  -4   7   6    2.54    0.84
   3  -7  -6   24.68    1.63
   3  -7  -6   28.04    2.39
   3  -7  -6   18.40    2.44
  -3   7   6   22.45    1.91
  -3   7   6   21.96    1.98
   2  -7  -6   12.68    1.85
   2  -7  -6   14.45    1.69
   2  -7  -6   14.74    1.27
   2  -7  -6   20.66    3.83
  -2   7   6   11.52    1.49
  -2   7   6   13.48    1.57
   1  -7  -6   10.93    1.74
   1  -7  -6   10.05    2.18
  -1   7   6    7.63    1.30
  -1   7   6   10.31    1.65
   0  -7  -6    9.36    1.22
   0  -7  -6    9.25    2.07
   0  -7  -6   10.42    1.68
   0  -7  -6   11.14    1.37
   0   7   6    8.75    1.41
   0   7   6   10.26    1.48
  -1  -7  -6    7.94    1.57
  -1  -7  -6    7.48    1.05
  -1  -7  -6    9.02    2.07
   1   7   6    7.91    1.30
   1   7   6    8.22    1.44
  -2  -7  -6    4.51    1.85
  -2  -7  -6    2.02    1.20
   2   7   6    0.66    1.09
   2   7   6    3.21    1.01
   2   7   6    2.55    0.85
  -3  -7  -6    4.63    1.50
  -3  -7  -6    5.09    1.68
   3   7   6    8.21    1.29
   3   7   6    6.15    1.47
   3   7   6    6.08    1.21
  -4  -7  -6    3.48    0.98
  -4  -7  -6    5.33    1.92
   4   7   6    7.88    1.43
   4   7   6    6.26    1.21
   4   7   6    5.87    1.63
   7  -8  -6   -0.96    1.79
   7  -8  -6    3.05    1.55
  -7   8   6    2.80    1.26
  -7   8   6    1.46    0.60
   6  -8  -6    6.22    1.90
   6  -8  -6   -1.05    0.73
   6  -8  -6    0.73    1.18
   6  -8  -6    0.18    1.88
  -6   8   6    2.49    1.06
  -6   8   6    0.43    0.65
   5  -8  -6   -1.21    1.68
   5  -8  -6   -1.11    1.44
   5  -8  -6   -1.61    1.07
  -5   8   6   -0.16    0.67
  -5   8   6    0.23    0.88
   4  -8  -6    2.73    1.39
   4  -8  -6    0.67    1.19
   4  -8  -6   -0.70    1.63
  -4   8   6    1.54    0.80
  -4   8   6    1.52    0.80
   3  -8  -6    8.10    1.56
   3  -8  -6    1.35    1.78
   3  -8  -6    8.70    1.32
   3  -8  -6    4.39    1.47
  -3   8   6    4.60    1.22
  -3   8   6    6.44    1.19
   2  -8  -6   -0.17    1.90
   2  -8  -6    0.24    1.12
   2  -8  -6    0.44    1.24
  -2   8   6    1.03    0.92
  -2   8   6    1.49    0.93
  -2   8   6    0.17    0.34
   1  -8  -6    0.38    0.98
   1  -8  -6   -0.15    1.12
   1  -8  -6   -0.72    1.68
  -1   8   6    0.40    0.91
  -1   8   6   -0.04    1.01
  -1   8   6   -0.76    0.34
   0  -8  -6   26.02    1.92
   0  -8  -6   19.14    2.27
   0  -8  -6   18.25    2.92
   0   8   6   20.21    1.98
   0   8   6   22.91    2.07
  -1  -8  -6   -0.19    1.13
  -1  -8  -6    1.62    0.59
  -1  -8  -6    1.23    1.58
   1   8   6    0.79    1.13
   1   8   6    0.03    0.93
   1   8   6    0.66    0.34
  -2  -8  -6    2.96    1.84
  -2  -8  -6    0.08    1.18
   2   8   6    0.33    1.10
   2   8   6    0.04    0.90
  -3  -8  -6    6.40    1.60
  -3  -8  -6    1.93    1.38
   3   8   6    2.98    1.21
   5  -9  -6   -0.66    1.29
   5  -9  -6   -0.78    1.96
  -5   9   6    0.08    0.95
   4  -9  -6    0.57    1.38
   4  -9  -6   -0.68    2.09
   4  -9  -6   -2.45    1.22
  -4   9   6    0.99    1.20
  -4   9   6    0.97    0.91
   3  -9  -6    0.38    1.91
   3  -9  -6   -2.20    1.19
   3  -9  -6    0.81    1.27
  -3   9   6   -0.35    0.72
  -3   9   6    1.08    1.00
   2  -9  -6   -1.37    1.98
   2  -9  -6   -1.53    1.21
   2  -9  -6    2.60    1.40
  -2   9   6    0.97    0.95
  -2   9   6    1.54    1.01
   1  -9  -6   -0.93    1.97
   1  -9  -6    0.47    1.35
   1  -9  -6    0.97    1.19
  -1   9   6   -0.58    0.88
  -1   9   6   -0.88    0.93
   0  -9  -6    2.80    1.86
   0  -9  -6    4.51    2.15
   0   9   6    2.56    1.15
   0   9   6    6.09    1.38
  -1  -9  -6    5.96    1.72
  -1  -9  -6    5.85    2.13
   1   9   6    4.66    1.46
   3   9  -7    2.96    1.34
   3   9  -7    4.40    1.40
   3   9  -7    0.78    0.98
  -3  -9   7    2.58    0.94
  -3  -9   7    3.01    1.53
  -3  -9   7    4.47    1.37
   2   9  -7    2.08    1.27
   2   9  -7    5.53    1.52
   2   9  -7    1.01    0.63
  -2  -9   7    1.91    0.83
  -2  -9   7    0.76    0.49
  -2  -9   7    3.73    1.49
   1   9  -7    2.18    1.31
   1   9  -7    0.26    0.41
   1   9  -7    3.31    1.09
  -1  -9   7    1.44    1.30
  -1  -9   7    1.32    0.57
  -1  -9   7    2.75    0.79
  -1  -9   7    4.02    1.52
   0   9  -7    3.61    1.19
   0   9  -7    0.65    1.25
   0  -9   7    0.91    1.29
   0  -9   7    2.47    0.94
   0  -9   7    2.29    1.38
  -1   9  -7    1.86    1.31
  -1   9  -7    1.99    1.06
   1  -9   7    0.70    0.61
   1  -9   7    2.84    1.37
   1  -9   7    2.11    1.26
   1  -9   7    3.16    1.44
  -2   9  -7    2.39    1.38
  -2   9  -7    2.94    1.07
   2  -9   7    1.49    1.21
   2  -9   7    3.27    0.73
   2  -9   7    4.27    1.55
   2  -9   7    3.42    1.72
  -3   9  -7    0.18    1.36
  -3   9  -7   -0.63    0.72
   3  -9   7    0.89    1.24
   3  -9   7   -0.67    1.55
   3  -9   7   -2.29    1.64
  -4   9  -7    1.42    0.81
  -4   9  -7    1.98    1.49
   4  -9   7    0.72    1.19
   4  -9   7   -0.61    1.27
   5   8  -7    1.37    1.21
   5   8  -7    1.21    1.36
  -5  -8   7    2.62    1.00
  -5  -8   7    1.14    0.93
  -5  -8   7    2.25    1.30
   4   8  -7    0.49    1.03
   4   8  -7    1.47    1.30
   4   8  -7    1.38    1.13
  -4  -8   7   -1.16    0.95
  -4  -8   7    0.75    0.81
  -4  -8   7    1.45    1.35
   3   8  -7    0.52    0.84
   3   8  -7    2.53    1.14
   3   8  -7    0.02    1.14
  -3  -8   7    1.96    1.15
  -3  -8   7    2.04    0.90
  -3  -8   7    1.70    2.17
   2   8  -7    2.42    1.21
   2   8  -7    1.16    1.11
  -2  -8   7    1.64    1.14
  -2  -8   7    0.97    0.79
   1   8  -7    5.58    1.30
   1   8  -7    3.49    1.34
  -1  -8   7    4.30    1.39
  -1  -8   7    3.40    0.86
  -1  -8   7    6.69    1.29
  -1  -8   7    3.54    1.56
   0   8  -7    0.71    0.24
   0   8  -7    1.21    1.23
   0   8  -7    0.80    0.98
   0  -8   7    1.58    1.20
   0  -8   7    1.57    0.71
   0  -8   7    3.63    2.25
   0  -8   7    1.98    1.31
  -1   8  -7    6.53    1.59
  -1   8  -7    4.81    1.34
   1  -8   7    4.78    1.27
   1  -8   7    7.20    1.54
   1  -8   7    5.27    0.91
  -2   8  -7    3.72    1.01
  -2   8  -7    5.79    1.57
  -2   8  -7    3.42    1.35
   2  -8   7    4.05    1.26
   2  -8   7    1.82    1.28
   2  -8   7    4.15    0.83
  -3   8  -7   14.38    2.02
  -3   8  -7   17.82    1.62
  -3   8  -7   18.27    2.55
   3  -8   7   12.78    2.01
   3  -8   7   15.93    1.47
   3  -8   7   15.86    1.94
  -4   8  -7    5.78    0.96
  -4   8  -7    8.63    1.75
   4  -8   7    3.88    1.47
   4  -8   7    7.71    1.69
  -5   8  -7   -0.08    2.46
  -5   8  -7    1.33    0.42
   5  -8   7   -0.48    0.67
   6   7  -7   -0.35    1.32
   6   7  -7    1.03    1.04
   5   7  -7    0.56    1.01
   5   7  -7    1.42    1.28
   5   7  -7    1.00    1.05
  -5  -7   7   -0.77    0.76
  -5  -7   7    1.91    1.07
  -5  -7   7    0.92    1.08
   4   7  -7    2.54    1.07
   4   7  -7    2.46    1.15
   4   7  -7   -0.38    1.08
  -4  -7   7    2.25    0.99
  -4  -7   7    1.04    1.08
  -4  -7   7    1.87    0.96
   3   7  -7    0.90    1.09
   3   7  -7    0.43    1.10
   3   7  -7    0.33    0.84
  -3  -7   7    0.33    0.25
  -3  -7   7    0.74    1.01
  -3  -7   7    0.32    0.98
  -3  -7   7    1.04    0.83
   2   7  -7    4.23    1.27
   2   7  -7    7.13    1.03
   2   7  -7    5.57    1.32
   2   7  -7    7.46    0.90
  -2  -7   7    8.66    2.29
  -2  -7   7    5.10    0.62
  -2  -7   7    5.66    1.36
  -2  -7   7    5.84    1.08
  -2  -7   7    8.06    1.43
   1   7  -7    2.47    1.06
   1   7  -7    4.44    1.13
   1   7  -7    3.62    1.29
  -1  -7   7    2.69    1.20
  -1  -7   7    2.23    1.14
  -1  -7   7    3.71    1.12
  -1  -7   7    3.65    0.92
   0   7  -7    4.06    1.07
   0   7  -7    1.94    0.76
   0   7  -7    4.15    1.32
   0  -7   7    3.21    0.81
   0  -7   7    3.57    1.06
   0  -7   7    3.67    1.01
   0  -7   7    4.56    1.24
  -1   7  -7   15.40    1.40
  -1   7  -7   15.65    2.17
  -1   7  -7   14.81    1.87
  -1   7  -7   16.74    1.57
   1  -7   7   14.36    1.65
   1  -7   7   15.38    1.90
   1  -7   7   15.56    1.47
  -2   7  -7   -1.91    1.03
  -2   7  -7    0.39    1.36
  -2   7  -7    1.16    0.45
   2  -7   7   -1.10    0.71
   2  -7   7    0.72    0.66
   2  -7   7    0.90    0.93
  -3   7  -7    0.14    1.15
  -3   7  -7    2.55    0.70
  -3   7  -7    1.48    1.51
  -3   7  -7    0.71    0.30
   3  -7   7    1.39    0.74
   3  -7   7    0.09    0.93
   3  -7   7    0.06    0.82
  -4   7  -7    1.87    0.64
  -4   7  -7    0.41    1.60
  -4   7  -7    1.22    1.15
   4  -7   7    1.72    0.62
   4  -7   7    1.69    1.23
   4  -7   7    0.73    1.06
   4  -7   7    2.24    0.86
  -5   7  -7    8.62    2.20
  -5   7  -7   10.71    1.74
   5  -7   7    9.06    1.65
   5  -7   7    9.46    1.39
   5  -7   7    6.66    1.63
  -6   7  -7    2.72    1.29
  -6   7  -7    2.45    1.97
   6  -7   7    2.51    1.48
   6  -7   7    0.11    1.52
   7   6  -7   20.90    3.09
   7   6  -7   21.03    1.79
   7   6  -7   14.30    2.11
  -7  -6   7   14.97    2.43
  -7  -6   7   17.11    1.11
   6   6  -7    4.32    1.45
   6   6  -7    2.14    1.05
   6   6  -7    1.90    1.30
  -6  -6   7    1.58    1.06
   5   6  -7   -1.61    0.98
   5   6  -7    1.13    1.01
   5   6  -7   -1.60    1.07
  -5  -6   7    1.12    0.95
  -5  -6   7   -0.47    0.72
  -5  -6   7   -0.05    1.01
   4   6  -7   14.11    1.40
   4   6  -7   10.88    1.61
   4   6  -7   10.47    1.21
   4   6  -7    9.26    1.33
  -4  -6   7    7.30    1.21
  -4  -6   7    8.61    1.35
  -4  -6   7   10.18    1.58
   3   6  -7    4.64    0.87
   3   6  -7    3.34    1.00
   3   6  -7    1.82    1.03
   3   6  -7    3.15    1.02
  -3  -6   7    2.37    0.90
  -3  -6   7    4.91    1.07
  -3  -6   7    3.20    1.93
   2   6  -7   88.11    5.20
   2   6  -7   88.61    5.15
   2   6  -7   93.56    4.95
   2   6  -7   89.65    5.20
   2   6  -7   90.32    5.00
  -2  -6   7   88.84    5.13
  -2  -6   7   83.15    5.32
  -2  -6   7   88.28    5.11
   1   6  -7   32.91    2.44
   1   6  -7   32.30    2.31
   1   6  -7   32.65    2.61
   1   6  -7   29.62    2.09
   1   6  -7   36.84    2.32
   1   6  -7   32.71    2.12
   1   6  -7   37.71    2.64
  -1  -6   7   32.85    2.37
  -1  -6   7   42.10    2.77
  -1  -6   7   37.28    2.50
  -1  -6   7   33.76    2.54
   0   6  -7    5.38    0.96
   0   6  -7    5.41    1.01
   0   6  -7    5.39    1.29
   0   6  -7    4.95    1.36
   0   6  -7    7.39    1.15
   0   6  -7    5.13    0.68
   0  -6   7    9.32    1.47
   0  -6   7    5.16    1.06
   0  -6   7    6.04    1.81
   0  -6   7    6.34    0.99
  -1   6  -7    6.72    1.07
  -1   6  -7    8.42    1.12
  -1   6  -7    9.23    1.73
  -1   6  -7    8.35    1.48
   1  -6   7    9.78    1.64
   1  -6   7    7.68    1.25
   1  -6   7    7.45    1.07
   1  -6   7    7.22    1.02
   1  -6   7    8.45    1.44
  -2   6  -7    1.57    1.17
  -2   6  -7    1.31    0.61
  -2   6  -7    1.09    0.72
  -2   6  -7    0.09    1.47
   2  -6   7    1.19    0.85
   2  -6   7    1.29    0.87
   2  -6   7    0.86    0.53
   2  -6   7    2.47    0.78
  -3   6  -7   -0.81    1.48
  -3   6  -7    0.11    0.52
  -3   6  -7    0.13    0.54
   3  -6   7   -0.22    0.67
   3  -6   7   -0.46    1.71
   3  -6   7   -0.03    0.83
   3  -6   7    0.03    0.47
  -4   6  -7   11.68    1.61
  -4   6  -7    9.84    1.25
  -4   6  -7   10.09    2.18
   4  -6   7    9.23    1.60
   4  -6   7   10.41    1.33
   4  -6   7    9.03    1.44
   4  -6   7    9.69    0.96
  -5   6  -7    5.30    1.99
  -5   6  -7    4.49    1.32
   5  -6   7    2.84    1.23
   5  -6   7    4.19    0.62
   5  -6   7    2.60    1.00
   5  -6   7    2.96    1.13
  -6   6  -7    2.53    1.23
  -6   6  -7    2.38    1.95
   6  -6   7    4.57    1.30
   6  -6   7    5.07    1.40
   6  -6   7    3.27    1.83
  -7   6  -7    1.39    1.11
  -7   6  -7   -0.72    1.67
   7  -6   7   -1.36    1.09
   7  -6   7    0.09    0.96
   7  -6   7    0.88    1.15
  -8  -5   7   19.09    1.26
   7   5  -7   13.85    1.99
   7   5  -7   16.38    2.07
  -7  -5   7   16.70    2.03
  -7  -5   7   16.85    1.37
   6   5  -7    3.79    0.93
   6   5  -7    3.51    1.30
   6   5  -7    4.55    1.32
  -6  -5   7    3.09    1.17
   5   5  -7   30.15    2.43
   5   5  -7   33.29    2.46
   5   5  -7   29.88    2.14
  -5  -5   7   28.81    2.11
  -5  -5   7   29.02    2.43
  -5  -5   7   31.00    2.41
   4   5  -7   49.78    3.12
   4   5  -7   52.14    3.33
   4   5  -7   55.58    3.27
   4   5  -7   53.84    3.42
  -4  -5   7   51.58    3.43
  -4  -5   7   50.16    3.51
   3   5  -7    0.90    0.80
   3   5  -7    1.31    0.79
   3   5  -7    0.71    0.62
   3   5  -7    1.67    1.00
   3   5  -7    0.73    0.95
  -3  -5   7    0.10    0.85
  -3  -5   7    0.29    0.70
  -3  -5   7    1.42    0.91
  -3  -5   7    1.58    1.13
   2   5  -7   48.23    2.73
   2   5  -7   53.60    2.75
   2   5  -7   45.96    2.91
   2   5  -7   41.98    2.72
   2   5  -7   41.51    2.90
   2   5  -7   42.17    2.78
   2   5  -7   46.63    3.02
  -2  -5   7   43.70    3.02
  -2  -5   7   46.05    2.92
  -2  -5   7   47.93    2.83
  -2  -5   7   40.68    2.78
   1   5  -7   55.46    3.15
   1   5  -7   51.06    3.28
   1   5  -7   50.02    3.27
   1   5  -7   54.00    3.02
   1   5  -7   46.71    3.14
   1   5  -7   47.72    2.91
   1   5  -7   50.39    2.87
  -1  -5   7   50.98    3.26
  -1  -5   7   56.88    3.39
  -1  -5   7   52.56    3.17
  -1  -5   7   47.28    3.00
  -1  -5   7   53.42    3.69
  -1  -5   7   48.42    3.30
   0   5  -7   -0.78    0.67
   0   5  -7   -0.25    0.63
   0   5  -7   -0.40    0.37
   0   5  -7   -0.62    0.99
   0   5  -7    0.20    0.55
   0   5  -7   -0.61    0.86
   0  -5   7    0.02    0.76
   0  -5   7    1.55    0.97
   0  -5   7   -0.49    0.59
   0  -5   7   -0.65    0.67
  -1   5  -7    1.67    1.14
  -1   5  -7    0.76    1.24
  -1   5  -7    2.54    0.75
  -1   5  -7    2.00    0.30
  -1   5  -7    2.78    0.76
   1  -5   7    2.16    0.54
   1  -5   7    2.20    0.78
   1  -5   7    2.78    0.82
   1  -5   7    2.65    1.03
   1  -5   7    2.27    0.79
   1  -5   7    2.21    0.98
  -2   5  -7   -0.59    1.31
  -2   5  -7    0.05    0.53
   2  -5   7   -0.33    0.67
   2  -5   7    0.13    0.95
   2  -5   7    0.18    0.82
   2  -5   7    0.69    0.46
   2  -5   7   -0.30    0.67
  -3   5  -7   -0.56    1.33
  -3   5  -7    0.79    1.00
  -3   5  -7    2.76    0.72
  -3   5  -7    1.83    0.54
   3  -5   7    1.99    0.51
   3  -5   7    2.62    0.84
   3  -5   7    2.20    0.89
  -4   5  -7    0.22    0.97
  -4   5  -7    0.57    1.67
  -4   5  -7    0.39    0.37
   4  -5   7    0.78    0.43
   4  -5   7    0.58    0.77
   4  -5   7    0.90    0.94
   4  -5   7    0.48    0.83
  -5   5  -7    5.82    1.93
   5  -5   7    4.92    1.20
   5  -5   7    4.01    1.08
   5  -5   7    2.97    1.15
  -6   5  -7    1.03    1.56
  -6   5  -7    0.68    1.08
   6  -5   7   -0.10    1.01
   6  -5   7    0.70    1.03
   6  -5   7    0.58    1.51
   6  -5   7    0.39    0.15
  -7   5  -7    4.18    2.54
  -7   5  -7    3.38    1.13
   7  -5   7    5.01    2.15
   7  -5   7    1.94    1.08
   7  -5   7    3.22    1.34
   8   4  -7    1.59    2.63
   8   4  -7    0.97    1.26
   7   4  -7    1.60    1.23
   7   4  -7    0.13    0.99
   7   4  -7    0.27    1.06
  -7  -4   7    1.27    1.06
   6   4  -7   28.96    2.19
   6   4  -7   28.11    2.30
   6   4  -7   22.62    1.91
  -6  -4   7   27.93    2.18
  -6  -4   7   28.58    2.17
  -6  -4   7   29.19    2.39
   5   4  -7  120.55    6.92
   5   4  -7  127.07    6.86
   5   4  -7  120.64    6.64
  -5  -4   7  121.27    6.68
  -5  -4   7  120.57    7.05
  -5  -4   7  126.78    7.05
  -5  -4   7  132.60    6.81
   4   4  -7   10.36    1.18
   4   4  -7   12.85    1.41
   4   4  -7   11.67    1.41
   4   4  -7    9.47    1.05
  -4  -4   7   11.66    1.31
  -4  -4   7    7.70    1.01
  -4  -4   7    9.01    1.45
  -4  -4   7    9.83    1.37
   3   4  -7    1.20    0.82
   3   4  -7    0.48    0.83
   3   4  -7    1.40    0.87
   3   4  -7    0.03    0.46
   3   4  -7   -0.30    0.46
   3   4  -7   -0.64    0.65
   3   4  -7   -0.67    0.73
   3   4  -7   -0.36    0.70
  -3  -4   7   -0.01    0.79
  -3  -4   7    0.07    0.70
  -3  -4   7    0.56    0.60
  -3  -4   7    0.27    0.73
   2   4  -7   14.57    1.26
   2   4  -7   16.79    1.42
   2   4  -7   17.05    1.52
   2   4  -7   16.06    1.56
   2   4  -7   17.07    1.25
   2   4  -7   17.94    1.17
   2   4  -7   15.31    1.49
   2   4  -7   15.81    1.41
  -2  -4   7   14.44    1.27
  -2  -4   7   14.96    1.49
  -2  -4   7   15.04    1.54
  -2  -4   7   16.45    1.29
  -2  -4   7   15.48    1.42
   1   4  -7   -0.40    0.76
   1   4  -7   -0.18    0.65
   1   4  -7    0.16    0.42
   1   4  -7   -0.48    0.40
   1   4  -7   -0.31    0.58
   1   4  -7   -0.28    0.42
   1   4  -7   -0.40    0.70
   1   4  -7   -0.16    0.61
  -1  -4   7   -0.21    0.47
  -1  -4   7   -0.50    0.41
  -1  -4   7    1.07    0.74
  -1  -4   7   -0.27    0.65
  -1  -4   7    0.02    0.58
  -1  -4   7    0.46    0.63
   0   4  -7   34.72    2.50
   0   4  -7   34.23    1.87
   0   4  -7   30.41    2.14
   0   4  -7   32.31    2.22
   0   4  -7   35.23    2.07
   0   4  -7   32.95    2.30
   0   4  -7   31.35    1.97
   0  -4   7   32.26    2.07
   0  -4   7   32.86    2.42
   0  -4   7   32.87    2.18
   0  -4   7   33.00    2.08
   0  -4   7   35.37    2.02
   0  -4   7   32.25    2.29
   0  -4   7   31.93    2.16
  -1   4  -7   -0.53    0.75
  -1   4  -7    0.08    0.50
  -1   4  -7   -0.14    0.22
  -1   4  -7    0.21    0.58
  -1   4  -7    0.33    0.26
  -1   4  -7    0.10    0.96
  -1   4  -7    0.17    0.57
   1  -4   7   -0.05    0.67
   1  -4   7    0.69    0.62
   1  -4   7   -0.24    0.51
   1  -4   7   -0.07    0.67
   1  -4   7   -0.28    0.49
   1  -4   7   -0.03    0.37
   1  -4   7    0.24    0.74
  -2   4  -7    0.52    0.64
  -2   4  -7   -0.52    1.08
  -2   4  -7   -0.89    0.75
  -2   4  -7    0.23    0.40
  -2   4  -7    0.11    0.56
   2  -4   7    0.54    0.37
   2  -4   7   -0.18    0.56
   2  -4   7   -0.22    0.66
   2  -4   7   -0.55    0.59
   2  -4   7    0.57    0.88
   2  -4   7   -0.81    0.65
  -3   4  -7    0.97    0.92
  -3   4  -7    2.33    0.73
  -3   4  -7    1.75    0.41
   3  -4   7    2.41    0.86
   3  -4   7    3.92    1.18
   3  -4   7    3.18    0.88
  -4   4  -7   -0.40    1.42
   4  -4   7   -0.31    0.72
   4  -4   7    0.66    0.83
   4  -4   7   -0.27    0.78
   4  -4   7    0.65    0.28
  -5   4  -7   10.59    1.55
  -5   4  -7   12.29    2.22
   5  -4   7   11.90    1.58
   5  -4   7   10.33    1.41
   5  -4   7   10.33    0.73
   5  -4   7   12.20    1.55
  -6   4  -7   13.60    1.66
  -6   4  -7   15.07    2.60
   6  -4   7   12.11    1.72
   6  -4   7   12.21    1.11
   6  -4   7   12.32    0.95
   6  -4   7   10.84    1.59
   6  -4   7   13.79    1.85
  -7   4  -7    8.45    2.26
  -7   4  -7   12.43    1.64
   7  -4   7    7.39    0.92
   7  -4   7   11.72    1.75
   7  -4   7    9.15    1.67
   7  -4   7    8.24    1.51
  -8   4  -7    2.90    0.96
   8  -4   7    2.38    1.25
   8  -4   7    1.87    1.29
   8  -4   7    0.42    1.12
   9   3  -7    1.70    1.55
   9   3  -7    1.62    1.25
   9   3  -7    0.12    0.90
   9   3  -7   -0.19    1.44
   8   3  -7    0.90    1.12
   8   3  -7    1.25    1.15
  -8  -3   7    2.04    1.19
   7   3  -7    1.04    0.91
   7   3  -7    1.04    1.01
   7   3  -7    1.11    1.10
  -7  -3   7    0.86    1.01
   6   3  -7    0.60    1.00
   6   3  -7    0.77    1.14
   6   3  -7    2.13    0.98
  -6  -3   7    1.27    0.78
  -6  -3   7   -0.57    0.63
   5   3  -7    7.23    1.24
   5   3  -7    5.21    1.16
   5   3  -7    5.09    1.03
   5   3  -7    5.88    0.85
  -5  -3   7    6.69    1.22
  -5  -3   7    6.29    0.88
  -5  -3   7    8.01    1.14
   4   3  -7   25.58    1.85
   4   3  -7   25.65    1.63
   4   3  -7   23.55    1.76
   4   3  -7   27.73    1.99
   4   3  -7   23.61    1.87
   4   3  -7   22.68    1.93
  -4  -3   7   23.43    1.56
  -4  -3   7   25.69    2.00
  -4  -3   7   23.51    1.94
   3   3  -7   13.94    1.37
   3   3  -7   11.63    1.19
   3   3  -7    9.92    1.23
   3   3  -7   10.51    1.08
   3   3  -7   12.67    1.27
   3   3  -7    9.93    1.05
   3   3  -7   11.13    0.82
   3   3  -7   11.40    1.35
  -3  -3   7   12.84    1.09
  -3  -3   7    9.72    0.99
  -3  -3   7   10.73    1.13
  -3  -3   7    9.88    0.85
  -3  -3   7   11.80    1.28
  -3  -3   7   11.12    1.21
   2   3  -7   14.62    1.17
   2   3  -7   15.33    1.00
   2   3  -7   15.48    1.41
   2   3  -7   14.72    1.25
   2   3  -7   14.65    1.31
   2   3  -7   14.45    1.30
   2   3  -7   15.21    1.36
  -2  -3   7   13.99    1.32
  -2  -3   7   17.34    1.42
  -2  -3   7   11.69    1.13
  -2  -3   7   16.30    1.08
  -2  -3   7   17.79    1.20
  -2  -3   7   15.10    1.35
   1   3  -7   17.15    1.27
   1   3  -7   15.96    1.18
   1   3  -7   17.10    1.47
   1   3  -7   17.35    1.58
   1   3  -7   17.85    1.42
   1   3  -7   18.04    1.39
  -1  -3   7   15.47    1.54
  -1  -3   7   16.79    1.40
  -1  -3   7   17.45    1.16
  -1  -3   7   19.41    1.24
  -1  -3   7   15.59    1.18
  -1  -3   7   14.57    1.28
   0   3  -7  142.21    7.61
   0   3  -7  136.84    7.56
   0   3  -7  137.59    7.59
   0   3  -7  148.64    7.64
   0   3  -7  144.70    7.81
   0   3  -7  145.31    7.44
   0  -3   7  137.90    7.81
   0  -3   7  143.30    7.48
   0  -3   7  146.59    7.38
   0  -3   7  140.15    7.40
   0  -3   7  139.55    7.58
   0  -3   7  151.79    7.82
   0  -3   7  137.71    7.45
   0  -3   7  140.61    7.78
  -1   3  -7    9.57    1.17
  -1   3  -7   10.36    0.82
  -1   3  -7    9.87    1.05
  -1   3  -7   13.78    1.81
  -1   3  -7    9.68    1.04
  -1   3  -7    9.22    0.74
   1  -3   7    9.13    1.12
   1  -3   7    9.03    1.09
   1  -3   7    8.93    1.39
   1  -3   7   11.01    0.78
   1  -3   7    8.31    1.24
   1  -3   7   12.11    0.98
   1  -3   7   10.03    1.05
   1  -3   7   10.30    0.75
  -2   3  -7   28.00    1.59
  -2   3  -7   28.60    1.95
  -2   3  -7   27.88    1.93
  -2   3  -7   27.37    2.45
  -2   3  -7   27.81    1.57
  -2   3  -7   29.45    2.02
   2  -3   7   28.73    2.04
   2  -3   7   28.90    1.58
   2  -3   7   29.03    2.37
   2  -3   7   30.16    1.99
   2  -3   7   27.40    1.88
   2  -3   7   26.46    1.92
   2  -3   7   25.30    2.03
  -3   3  -7   -0.33    1.14
  -3   3  -7   -0.24    0.67
  -3   3  -7    0.10    0.27
  -3   3  -7   -0.07    0.58
  -3   3  -7    1.35    0.79
   3  -3   7   -0.71    0.58
   3  -3   7   -1.07    0.56
   3  -3   7   -0.04    0.71
   3  -3   7   -0.18    0.52
   3  -3   7   -0.06    0.18
   3  -3   7   -0.16    0.34
   3  -3   7   -0.16    0.61
   3  -3   7   -0.15    1.16
  -4   3  -7   -1.03    0.81
  -4   3  -7    0.02    1.37
   4  -3   7    0.17    0.78
   4  -3   7   -0.85    0.72
   4  -3   7    0.85    0.82
   4  -3   7   -0.46    0.75
   4  -3   7    1.25    0.44
  -5   3  -7   -0.04    1.47
  -5   3  -7    3.30    1.01
   5  -3   7    3.78    0.67
   5  -3   7    3.26    0.92
   5  -3   7    2.72    1.04
   5  -3   7    3.78    0.93
  -6   3  -7   37.06    3.64
   6  -3   7   32.99    2.64
   6  -3   7   37.12    2.83
   6  -3   7   38.13    2.70
   6  -3   7   37.37    2.78
   6  -3   7   33.11    2.17
  -7   3  -7   22.76    1.84
  -7   3  -7   23.90    3.26
   7  -3   7   18.81    2.15
   7  -3   7   21.69    2.11
   7  -3   7   21.47    1.67
   7  -3   7   23.24    2.31
   7  -3   7   20.48    1.65
  -8   3  -7    1.56    0.43
   8  -3   7    1.52    1.13
   8  -3   7    0.54    1.12
   8  -3   7    2.45    1.33
   9   2  -7    3.17    1.88
   9   2  -7    3.63    1.39
   9   2  -7    3.49    1.14
   8   2  -7    3.45    1.16
   8   2  -7    2.12    1.08
   8   2  -7    3.33    1.21
  -8  -2   7    2.43    1.16
   7   2  -7    3.80    1.17
   7   2  -7    3.87    0.99
   7   2  -7    4.37    1.06
  -7  -2   7    5.11    0.76
  -7  -2   7    4.14    1.20
   6   2  -7    3.64    0.98
   6   2  -7    4.14    1.08
   6   2  -7    1.49    0.97
  -6  -2   7    2.48    1.00
  -6  -2   7    3.15    0.88
  -6  -2   7    2.42    0.69
   5   2  -7    9.77    0.84
   5   2  -7    7.89    1.21
   5   2  -7    9.00    0.87
   5   2  -7    7.76    2.03
   5   2  -7   11.70    1.82
   5   2  -7   11.64    0.95
   5   2  -7   12.41    1.44
  -5  -2   7   10.69    0.89
  -5  -2   7   11.67    2.12
  -5  -2   7    8.27    1.31
   4   2  -7    6.77    1.01
   4   2  -7    5.55    0.87
   4   2  -7    6.73    1.02
   4   2  -7    6.68    0.57
   4   2  -7    8.72    1.19
   4   2  -7    6.77    1.08
   4   2  -7    7.08    1.02
   4   2  -7    8.34    1.30
  -4  -2   7    6.23    0.98
  -4  -2   7    7.19    1.09
  -4  -2   7    6.47    0.86
  -4  -2   7    6.26    0.72
  -4  -2   7    6.37    0.97
  -4  -2   7    6.45    0.58
   3   2  -7    9.99    0.65
   3   2  -7   12.00    1.21
   3   2  -7   10.34    0.98
   3   2  -7   11.50    1.07
   3   2  -7    9.89    1.14
   3   2  -7   12.62    1.13
   3   2  -7   13.13    1.36
  -3  -2   7   11.37    1.13
  -3  -2   7    9.95    0.97
  -3  -2   7   11.62    1.10
  -3  -2   7   13.25    1.25
  -3  -2   7   11.63    1.11
  -3  -2   7   11.06    1.07
   2   2  -7   45.42    2.78
   2   2  -7   46.63    2.89
   2   2  -7   48.34    2.90
   2   2  -7   49.95    2.82
   2   2  -7   47.78    2.83
   2   2  -7   49.99    2.94
  -2  -2   7   48.40    2.55
  -2  -2   7   46.08    2.84
  -2  -2   7   47.68    2.55
  -2  -2   7   44.20    2.84
  -2  -2   7   47.88    2.73
  -2  -2   7   52.40    2.83
  -2  -2   7   54.07    3.32
   1   2  -7    8.67    0.80
   1   2  -7    8.90    1.02
   1   2  -7    6.36    1.18
   1   2  -7    8.05    1.04
   1   2  -7    6.78    0.79
   1   2  -7    8.22    0.88
  -1  -2   7    8.80    0.75
  -1  -2   7    7.78    0.95
  -1  -2   7    7.75    1.01
  -1  -2   7    8.40    0.82
  -1  -2   7    7.57    1.26
  -1  -2   7    7.26    0.68
  -1  -2   7    7.22    0.96
  -1  -2   7    7.44    0.71
   0   2  -7   48.08    2.87
   0   2  -7   50.08    2.94
   0   2  -7   50.21    2.74
   0   2  -7   50.02    3.21
   0   2  -7   51.29    2.77
   0   2  -7   53.35    2.95
   0  -2   7   52.99    2.81
   0  -2   7   44.16    2.72
   0  -2   7   52.99    2.77
   0  -2   7   50.52    2.92
   0  -2   7   46.99    3.18
   0  -2   7   43.22    2.68
   0  -2   7   51.69    2.94
   0  -2   7   50.99    2.98
  -1   2  -7   -0.15    0.62
  -1   2  -7    0.62    0.53
  -1   2  -7    0.48    0.47
  -1   2  -7    0.79    0.31
  -1   2  -7   -0.01    0.84
  -1   2  -7    0.59    0.55
  -1   2  -7    0.66    0.38
   1  -2   7    0.48    0.62
   1  -2   7    1.34    0.80
   1  -2   7    0.49    0.47
   1  -2   7    0.05    0.55
   1  -2   7    0.39    0.37
   1  -2   7    0.39    0.52
   1  -2   7    0.40    0.27
  -2   2  -7   47.55    2.65
  -2   2  -7   52.32    3.54
  -2   2  -7   45.74    2.96
  -2   2  -7   49.48    3.04
  -2   2  -7   51.60    3.05
  -2   2  -7   54.34    3.61
   2  -2   7   53.43    3.12
   2  -2   7   54.32    2.84
   2  -2   7   52.60    3.08
   2  -2   7   51.15    3.02
   2  -2   7   53.26    3.09
   2  -2   7   53.54    3.52
  -3   2  -7   66.72    4.17
  -3   2  -7   72.31    4.75
  -3   2  -7   72.46    4.27
  -3   2  -7   73.18    3.96
  -3   2  -7   82.27    4.25
   3  -2   7   70.00    4.12
   3  -2   7   78.05    4.32
   3  -2   7   77.48    4.01
   3  -2   7   70.94    4.28
   3  -2   7   73.16    4.69
   3  -2   7   76.29    4.31
  -4   2  -7    0.14    0.40
  -4   2  -7   -0.40    1.48
  -4   2  -7   -1.31    0.61
  -4   2  -7    1.26    2.12
   4  -2   7   -0.01    0.77
   4  -2   7   -1.10    0.55
   4  -2   7    0.29    1.23
   4  -2   7    0.21    0.51
  -5   2  -7   -0.06    0.79
  -5   2  -7    0.48    0.44
  -5   2  -7   -1.04    1.35
  -5   2  -7   -0.30    0.71
   5  -2   7   -0.24    0.82
   5  -2   7   -0.05    0.80
  -6   2  -7    2.44    1.61
  -6   2  -7    2.53    1.30
  -6   2  -7    2.78    0.88
   6  -2   7    1.81    0.99
   6  -2   7    2.48    0.82
   6  -2   7    3.76    0.88
   6  -2   7    2.63    1.15
  -7   2  -7   37.36    3.63
  -7   2  -7   27.23    2.70
   7  -2   7   24.49    2.03
   7  -2   7   35.19    2.79
   7  -2   7   29.95    2.58
   7  -2   7   30.37    2.92
  -8   2  -7    2.88    1.81
  -8   2  -7    3.30    1.54
   8  -2   7    2.01    0.98
   8  -2   7    3.95    2.21
   8  -2   7    2.81    1.23
   9   1  -7    0.76    1.10
   9   1  -7    1.62    1.10
   9   1  -7   -0.65    1.10
   9   1  -7    0.87    1.15
   8   1  -7    0.31    0.97
   8   1  -7   -0.12    1.00
   8   1  -7    0.56    1.02
   8   1  -7    0.86    0.64
  -8  -1   7    0.16    0.98
   7   1  -7    4.91    1.13
   7   1  -7    0.57    0.88
   7   1  -7    3.94    1.05
   7   1  -7    3.21    1.74
   7   1  -7    2.58    0.72
   6   1  -7    0.35    0.84
   6   1  -7    0.74    0.76
   6   1  -7    0.54    0.69
   6   1  -7   -0.54    0.79
   6   1  -7    0.23    0.70
   6   1  -7    0.73    0.84
   6   1  -7   -0.28    0.47
  -6  -1   7   -0.10    0.78
  -6  -1   7    1.01    0.81
   5   1  -7    5.00    0.63
   5   1  -7    8.00    1.13
   5   1  -7    5.69    0.90
   5   1  -7    7.37    1.15
   5   1  -7    6.05    0.94
   5   1  -7    7.47    1.77
   5   1  -7    6.02    1.00
   5   1  -7    4.83    1.01
  -5  -1   7    7.45    1.05
  -5  -1   7    8.23    1.16
  -5  -1   7    5.86    1.08
   4   1  -7   18.34    1.65
   4   1  -7   19.05    1.42
   4   1  -7   16.99    1.39
   4   1  -7   15.59    1.38
   4   1  -7   16.61    1.48
   4   1  -7   17.31    1.02
   4   1  -7   16.57    0.94
   4   1  -7   19.78    1.51
  -4  -1   7   20.31    1.51
  -4  -1   7   18.20    1.55
  -4  -1   7   15.45    1.35
  -4  -1   7   17.04    1.33
   3   1  -7   25.38    1.68
   3   1  -7   27.14    2.07
   3   1  -7   27.32    1.78
   3   1  -7   25.31    1.74
   3   1  -7   28.29    2.01
   3   1  -7   25.71    1.90
   3   1  -7   28.32    1.88
  -3  -1   7   24.23    2.03
  -3  -1   7   22.20    2.46
  -3  -1   7   27.19    1.78
  -3  -1   7   27.43    1.74
   2   1  -7   88.64    4.77
   2   1  -7   85.49    4.69
   2   1  -7   93.25    4.78
   2   1  -7   82.55    4.65
   2   1  -7   76.66    4.62
   2   1  -7   86.37    4.64
   2   1  -7   84.60    4.85
  -2  -1   7   87.37    4.83
  -2  -1   7   87.09    4.65
  -2  -1   7   86.68    4.78
  -2  -1   7   89.99    4.73
  -2  -1   7   88.87    4.71
   1   1  -7    3.38    0.64
   1   1  -7    3.92    0.74
   1   1  -7    3.65    1.06
   1   1  -7    2.89    0.53
   1   1  -7    3.06    0.54
   1   1  -7    3.01    0.58
   1   1  -7    4.66    0.85
  -1  -1   7    3.31    0.45
  -1  -1   7    4.45    0.76
  -1  -1   7    4.11    0.76
  -1  -1   7    3.06    0.60
  -1  -1   7    2.79    0.57
   0   1  -7   10.84    1.03
   0   1  -7    8.19    0.81
   0   1  -7    8.56    0.72
   0   1  -7    9.42    0.84
   0   1  -7    7.56    1.47
   0   1  -7    8.74    0.86
   0   1  -7    8.92    1.01
   0   1  -7    8.86    0.71
   0  -1   7    9.21    0.85
   0  -1   7    9.84    0.88
   0  -1   7    9.92    0.86
   0  -1   7    7.67    1.40
   0  -1   7    7.73    0.94
   0  -1   7    8.78    1.04
  -1   1  -7    7.42    0.91
  -1   1  -7    8.66    0.81
  -1   1  -7    7.33    1.35
  -1   1  -7    7.38    0.55
  -1   1  -7    7.23    0.74
  -1   1  -7    7.66    0.93
  -1   1  -7    8.05    0.91
  -1   1  -7    7.82    0.55
   1  -1   7    7.29    0.76
   1  -1   7    8.72    1.05
   1  -1   7    6.97    0.85
   1  -1   7    5.58    0.82
   1  -1   7    7.70    0.92
   1  -1   7    7.17    1.29
  -2   1  -7    2.83    1.07
  -2   1  -7    3.37    0.74
  -2   1  -7    3.29    0.58
  -2   1  -7    1.79    0.71
  -2   1  -7    3.54    0.70
  -2   1  -7    2.47    0.60
   2  -1   7    2.77    1.06
   2  -1   7    2.86    1.06
   2  -1   7    3.96    0.81
   2  -1   7    3.79    0.65
   2  -1   7    2.93    0.72
   2  -1   7    3.45    0.65
  -3   1  -7    3.24    0.78
  -3   1  -7    1.61    0.84
  -3   1  -7    3.42    0.61
  -3   1  -7    2.27    0.71
  -3   1  -7    2.23    1.14
   3  -1   7    2.02    0.62
   3  -1   7    2.79    0.77
   3  -1   7    2.59    0.63
   3  -1   7    2.11    1.08
   3  -1   7    2.86    0.85
   3  -1   7    2.33    0.76
  -4   1  -7    2.55    0.74
  -4   1  -7    1.36    0.59
  -4   1  -7    2.01    1.01
  -4   1  -7    2.42    1.24
   4  -1   7    3.05    1.00
   4  -1   7    1.55    0.77
   4  -1   7    3.38    0.71
  -5   1  -7   14.10    1.61
  -5   1  -7   18.22    1.37
  -5   1  -7   17.18    2.44
  -5   1  -7   18.05    1.36
   5  -1   7   14.97    1.36
   5  -1   7   19.94    1.56
   5  -1   7   18.95    1.63
   5  -1   7   17.65    1.83
  -6   1  -7   -0.12    1.07
  -6   1  -7    0.87    0.82
   6  -1   7   -0.62    0.54
   6  -1   7    1.05    0.81
   6  -1   7   -0.90    0.96
   6  -1   7   -0.21    0.85
  -7   1  -7    0.38    1.58
  -7   1  -7    0.50    1.28
   7  -1   7    1.40    1.12
   7  -1   7    1.93    0.95
  -8   1  -7    0.67    1.69
  -8   1  -7    1.76    1.33
   8  -1   7    2.94    2.24
   8  -1   7   -0.20    1.04
   8  -1   7    0.84    1.02
   9   0  -7    3.62    1.10
   9   0  -7    4.65    1.50
   9   0  -7    0.18    1.33
   9   0  -7    2.79    1.18
   8   0  -7    3.90    0.86
   8   0  -7    5.32    1.20
   8   0  -7    4.28    1.22
   8   0  -7    4.14    1.19
  -8   0   7    4.19    1.21
   7   0  -7   -1.22    0.98
   7   0  -7   -0.65    0.82
   7   0  -7   -0.15    0.56
   7   0  -7   -0.09    0.97
   7   0  -7    1.35    0.88
   7   0  -7    1.29    0.53
  -7   0   7    0.45    0.92
   6   0  -7   26.19    1.93
   6   0  -7   26.26    1.88
   6   0  -7   25.41    2.42
   6   0  -7   25.42    2.09
   6   0  -7   26.61    2.04
   6   0  -7   26.88    1.69
   6   0  -7   26.15    1.66
  -6   0   7   24.45    2.77
  -6   0   7   28.48    2.06
   5   0  -7   34.84    2.20
   5   0  -7   34.79    1.95
   5   0  -7   27.73    2.39
   5   0  -7   32.45    2.24
   5   0  -7   35.01    2.37
   5   0  -7   32.79    2.30
   5   0  -7   34.18    1.96
   5   0  -7   38.43    2.35
   5   0  -7   35.16    2.20
  -5   0   7   37.81    2.43
  -5   0   7   34.43    2.23
  -5   0   7   35.43    2.36
   4   0  -7    0.44    0.58
   4   0  -7    1.11    0.23
   4   0  -7    1.26    0.75
   4   0  -7    1.08    0.64
   4   0  -7    0.48    0.71
   4   0  -7    0.52    0.48
   4   0  -7    0.59    0.90
  -4   0   7    0.84    0.62
  -4   0   7    1.29    0.65
  -4   0   7    0.74    0.62
  -4   0   7    0.45    0.62
   3   0  -7   27.42    1.75
   3   0  -7   23.45    1.62
   3   0  -7   23.29    1.97
   3   0  -7   27.21    1.58
   3   0  -7   23.90    1.70
   3   0  -7   24.93    1.87
   3   0  -7   22.17    1.62
  -3   0   7   23.00    1.77
  -3   0   7   24.68    1.88
  -3   0   7   24.41    1.53
  -3   0   7   24.26    1.75
  -3   0   7   22.52    1.65
   2   0  -7   41.29    2.76
   2   0  -7   50.27    2.57
   2   0  -7   50.43    3.18
   2   0  -7   52.99    2.96
   2   0  -7   49.68    2.72
   2   0  -7   54.41    2.94
   2   0  -7   49.78    2.82
   2   0  -7   50.06    2.89
  -2   0   7   52.23    2.74
  -2   0   7   50.48    2.93
  -2   0   7   46.04    2.87
  -2   0   7   48.30    3.10
  -2   0   7   53.20    2.93
  -2   0   7   50.26    2.57
   1   0  -7    1.56    0.46
   1   0  -7    1.82    0.57
   1   0  -7    1.85    0.40
   1   0  -7    1.17    0.64
   1   0  -7    1.60    0.45
   1   0  -7    1.70    0.41
   1   0  -7    2.86    0.73
  -1   0   7    1.63    0.45
  -1   0   7    1.18    0.62
  -1   0   7    1.73    0.60
  -1   0   7    1.54    0.56
   0   0  -7    5.79    0.84
   0   0  -7    2.97    0.48
   0   0  -7    3.72    1.28
   0   0  -7    3.96    0.69
   0   0  -7    3.46    0.49
   0   0  -7    3.44    0.71
   0   0  -7    2.39    0.58
   0   0  -7    3.37    0.62
   0   0   7    4.40    0.73
   0   0   7    4.34    0.77
   0   0   7    3.32    0.55
   0   0   7    3.23    0.82
   0   0   7    3.71    1.01
   0   0   7    4.25    0.68
  -1   0  -7   45.84    2.56
  -1   0  -7   43.46    2.61
  -1   0  -7   42.45    2.35
  -1   0  -7   42.83    2.63
  -1   0  -7   45.49    2.58
  -1   0  -7   44.53    3.05
   1   0   7   43.08    2.61
   1   0   7   41.92    3.03
   1   0   7   47.04    2.72
   1   0   7   46.31    2.60
   1   0   7   40.79    2.52
   1   0   7   45.36    2.55
  -2   0  -7    3.31    0.73
  -2   0  -7    2.81    0.59
  -2   0  -7    2.98    0.26
  -2   0  -7    3.17    0.65
  -2   0  -7    2.96    0.35
  -2   0  -7    3.67    1.23
  -2   0  -7    3.66    1.17
   2   0   7    2.60    0.67
   2   0   7    3.18    0.60
   2   0   7    3.30    0.65
   2   0   7    2.95    0.80
   2   0   7    3.18    0.73
   2   0   7    2.42    1.05
  -3   0  -7   44.42    2.64
  -3   0  -7   43.37    3.20
  -3   0  -7   40.32    2.48
  -3   0  -7   39.50    2.41
  -3   0  -7   41.70    2.72
   3   0   7   42.10    3.05
   3   0   7   41.67    2.69
   3   0   7   43.52    2.73
   3   0   7   42.42    2.60
   3   0   7   37.90    3.06
   3   0   7   39.12    2.38
  -4   0  -7   94.64    5.30
  -4   0  -7  102.78    5.53
  -4   0  -7   95.00    6.06
  -4   0  -7  109.66    6.85
   4   0   7  101.79    5.53
   4   0   7  109.93    5.66
   4   0   7   90.09    5.28
   4   0   7   98.62    6.60
  -5   0  -7    0.75    1.04
  -5   0  -7    1.05    1.34
  -5   0  -7    2.20    0.56
   5   0   7    1.49    0.53
   5   0   7    3.27    0.94
   5   0   7    2.12    1.05
   5   0   7    3.16    0.90
  -6   0  -7    0.80    1.16
  -6   0  -7    1.81    1.58
   6   0   7    0.15    0.81
   6   0   7    0.95    1.06
   6   0   7    0.73    0.88
  -7   0  -7    0.44    1.24
  -7   0  -7    0.49    1.54
   7   0   7   -0.32    0.89
   7   0   7    1.17    1.14
   7   0   7    0.70    0.96
  -8   0  -7    1.62    1.64
  -8   0  -7   -0.34    1.26
   8   0   7    1.31    1.26
   8   0   7   -0.01    0.99
   8   0   7    0.56    1.03
   9  -1  -7    6.38    1.20
   9  -1  -7    4.78    1.30
   9  -1  -7    4.95    1.20
   9  -1  -7    3.52    1.15
   9  -1  -7    3.91    1.27
   8  -1  -7   19.29    1.91
   8  -1  -7   27.70    2.58
   8  -1  -7   19.02    2.04
   8  -1  -7   18.75    1.91
   8  -1  -7   21.76    1.69
   8  -1  -7   26.42    1.71
  -8   1   7   19.80    2.10
   7  -1  -7    9.82    1.42
   7  -1  -7   12.11    1.15
   7  -1  -7    8.71    1.32
   7  -1  -7   10.18    1.21
   7  -1  -7    8.45    1.22
   7  -1  -7   10.08    1.27
   7  -1  -7   12.49    1.71
  -7   1   7   10.50    1.46
   6  -1  -7   15.79    1.39
   6  -1  -7   18.84    1.36
   6  -1  -7   19.54    1.32
   6  -1  -7   17.87    2.51
   6  -1  -7   16.91    1.77
   6  -1  -7   16.51    1.86
   6  -1  -7   18.36    1.55
   6  -1  -7   16.32    1.76
  -6   1   7   16.73    1.69
  -6   1   7   16.77    1.69
   5  -1  -7   -0.03    0.41
   5  -1  -7   -0.48    0.75
   5  -1  -7   -0.57    0.58
   5  -1  -7    0.11    0.67
   5  -1  -7   -0.17    0.57
   5  -1  -7    0.73    1.13
   5  -1  -7   -0.60    0.99
   5  -1  -7    0.10    0.41
   5  -1  -7    0.16    0.63
  -5   1   7    0.07    0.66
  -5   1   7   -0.10    0.62
   4  -1  -7    1.76    0.39
   4  -1  -7    2.25    0.72
   4  -1  -7    1.69    0.87
   4  -1  -7    2.17    1.09
   4  -1  -7    1.74    0.60
   4  -1  -7    2.07    0.78
   4  -1  -7    1.04    0.42
   4  -1  -7    1.55    0.63
   4  -1  -7    0.76    0.65
  -4   1   7    1.72    0.73
  -4   1   7    1.38    0.80
  -4   1   7    0.85    0.70
  -4   1   7    0.88    0.61
   3  -1  -7   -0.16    0.29
   3  -1  -7   -0.14    0.51
   3  -1  -7    0.57    0.56
   3  -1  -7   -0.10    0.49
   3  -1  -7    0.32    0.29
   3  -1  -7    0.64    1.09
  -3   1   7    0.71    0.52
  -3   1   7    0.42    0.57
  -3   1   7    0.56    0.25
  -3   1   7   -0.80    0.88
  -3   1   7    0.07    0.62
   2  -1  -7   24.06    1.60
   2  -1  -7   25.28    1.68
   2  -1  -7   25.76    1.72
   2  -1  -7   24.96    2.13
   2  -1  -7   24.01    1.34
   2  -1  -7   22.53    1.63
   2  -1  -7   24.01    1.65
  -2   1   7   25.20    1.69
  -2   1   7   24.84    1.45
  -2   1   7   26.00    1.68
  -2   1   7   23.63    1.39
  -2   1   7   25.11    1.60
  -2   1   7   24.51    2.01
  -2   1   7   24.13    1.62
   1  -1  -7   49.82    2.85
   1  -1  -7   47.93    2.84
   1  -1  -7   49.35    2.76
   1  -1  -7   51.09    2.74
   1  -1  -7   47.82    2.84
  -1   1   7   48.48    2.61
  -1   1   7   52.13    2.75
  -1   1   7   48.24    2.86
  -1   1   7   51.01    2.87
  -1   1   7   47.86    2.80
  -1   1   7   46.45    3.19
  -1   1   7   48.69    2.75
   0  -1  -7   40.81    2.31
   0  -1  -7   36.58    2.13
   0  -1  -7   38.91    2.30
   0  -1  -7   40.10    2.88
   0  -1  -7   39.08    2.30
   0  -1  -7   36.20    2.29
   0   1   7   32.38    2.11
   0   1   7   41.56    2.77
   0   1   7   39.99    2.35
   0   1   7   38.54    2.34
   0   1   7   35.33    2.20
   0   1   7   36.70    2.28
   0   1   7   39.58    2.16
  -1  -1  -7  121.77    6.31
  -1  -1  -7  121.15    7.31
  -1  -1  -7  112.33    6.25
  -1  -1  -7  117.20    6.24
  -1  -1  -7  114.11    6.05
  -1  -1  -7  114.44    6.13
   1   1   7  116.96    6.25
   1   1   7  110.85    6.11
   1   1   7  120.49    6.31
   1   1   7  116.39    6.27
   1   1   7  124.36    6.06
   1   1   7  113.39    6.15
   1   1   7  114.12    6.58
  -2  -1  -7   20.60    1.43
  -2  -1  -7   21.84    1.62
  -2  -1  -7   21.01    1.70
  -2  -1  -7   22.47    2.29
  -2  -1  -7   22.15    1.30
  -2  -1  -7   20.80    1.54
   2   1   7   23.09    1.69
   2   1   7   19.52    2.08
   2   1   7   22.22    1.61
   2   1   7   21.59    1.70
   2   1   7   23.44    1.45
   2   1   7   24.71    1.58
   2   1   7   24.23    1.33
  -3  -1  -7  118.00    6.96
  -3  -1  -7  115.20    6.64
  -3  -1  -7  119.95    6.14
  -3  -1  -7  120.30    6.24
  -3  -1  -7  122.84    6.67
   3   1   7  111.28    6.89
   3   1   7  110.15    6.58
   3   1   7  129.79    6.51
   3   1   7  126.74    6.52
   3   1   7  120.54    6.59
  -4  -1  -7    0.54    0.71
  -4  -1  -7   -0.23    1.17
  -4  -1  -7   -0.37    0.95
  -4  -1  -7    0.41    0.45
  -4  -1  -7    1.41    0.28
   4   1   7    0.79    0.85
   4   1   7    1.52    0.80
   4   1   7    1.47    0.87
   4   1   7    0.95    0.38
   4   1   7    1.57    0.41
  -5  -1  -7    1.09    1.09
  -5  -1  -7    2.11    1.38
   5   1   7    1.55    1.00
   5   1   7    1.95    0.29
   5   1   7    2.03    1.06
   5   1   7    1.31    0.85
   5   1   7    1.56    0.34
  -6  -1  -7   12.85    1.90
  -6  -1  -7   21.85    2.64
   6   1   7   18.28    2.03
   6   1   7   17.88    1.79
   6   1   7   16.83    0.94
   6   1   7   17.52    2.45
  -7  -1  -7    0.58    1.27
  -7  -1  -7    0.35    1.49
   7   1   7    1.45    1.24
   7   1   7    1.12    1.10
   7   1   7    1.36    0.93
  -8  -1  -7    2.85    1.49
   8   1   7    4.70    1.35
   8   1   7    5.92    1.31
   8   1   7    3.43    1.44
   9  -2  -7    5.53    1.42
   9  -2  -7    4.60    1.96
   9  -2  -7    5.60    1.21
   9  -2  -7    8.58    1.39
   9  -2  -7    7.46    1.21
   8  -2  -7    3.10    1.16
   8  -2  -7    3.46    1.04
   8  -2  -7    3.29    1.07
   8  -2  -7    2.45    0.83
   8  -2  -7   -0.05    1.71
   8  -2  -7    1.85    1.25
  -8   2   7    3.95    1.06
   7  -2  -7    1.51    1.01
   7  -2  -7    1.06    1.08
   7  -2  -7   -0.46    1.21
   7  -2  -7    0.74    0.65
   7  -2  -7    0.47    0.71
   7  -2  -7    0.78    0.88
   7  -2  -7    1.97    0.70
  -7   2   7    0.30    0.82
  -7   2   7    0.17    0.94
   6  -2  -7   52.49    3.18
   6  -2  -7   54.58    3.32
   6  -2  -7   58.04    3.71
   6  -2  -7   53.99    3.30
   6  -2  -7   50.07    3.08
   6  -2  -7   54.73    3.18
   6  -2  -7   49.36    3.64
   6  -2  -7   55.80    3.16
  -6   2   7   61.87    3.74
  -6   2   7   56.16    3.38
   5  -2  -7   14.39    1.36
   5  -2  -7   14.85    1.20
   5  -2  -7   16.41    1.25
   5  -2  -7   17.15    1.56
   5  -2  -7   14.53    1.40
   5  -2  -7   14.40    1.55
   5  -2  -7   16.29    1.15
   5  -2  -7   16.34    1.38
   5  -2  -7   10.56    1.85
   5  -2  -7   15.46    1.09
  -5   2   7   15.28    1.41
  -5   2   7   15.36    1.40
  -5   2   7   15.48    1.41
   4  -2  -7    0.47    0.49
   4  -2  -7    0.51    0.54
   4  -2  -7    0.53    0.31
   4  -2  -7    1.25    0.78
   4  -2  -7    1.34    0.39
   4  -2  -7    1.80    0.67
   4  -2  -7    2.69    1.17
   4  -2  -7    1.45    0.65
   4  -2  -7    1.05    1.05
  -4   2   7    2.21    0.97
  -4   2   7    0.64    0.64
  -4   2   7    1.20    0.60
  -4   2   7    1.82    0.65
   3  -2  -7   29.39    1.87
   3  -2  -7   29.25    1.98
   3  -2  -7   28.43    1.90
   3  -2  -7   31.04    1.95
   3  -2  -7   29.07    1.78
   3  -2  -7   22.33    2.81
   3  -2  -7   27.74    1.91
  -3   2   7   30.76    1.95
  -3   2   7   31.18    1.91
  -3   2   7   29.71    1.87
  -3   2   7   27.24    1.79
  -3   2   7   28.76    2.18
   2  -2  -7  174.16    9.44
   2  -2  -7  179.71    9.39
   2  -2  -7  168.65    9.48
   2  -2  -7  186.22    9.43
   2  -2  -7  180.76    9.82
   2  -2  -7  176.18    9.48
  -2   2   7  204.77    9.47
  -2   2   7  176.68    9.41
  -2   2   7  176.98    9.37
  -2   2   7  182.71    9.74
  -2   2   7  186.26    9.45
  -2   2   7  179.28    9.75
   1  -2  -7  134.92    7.09
   1  -2  -7  131.60    7.05
   1  -2  -7  133.74    7.05
   1  -2  -7  132.62    7.12
   1  -2  -7  143.80    7.57
   1  -2  -7  130.27    7.03
  -1   2   7  119.13    6.99
  -1   2   7  127.97    7.02
  -1   2   7  140.80    7.08
  -1   2   7  135.79    7.43
  -1   2   7  136.22    7.16
  -1   2   7  139.47    7.08
   0  -2  -7   23.70    1.59
   0  -2  -7   21.71    2.84
   0  -2  -7   23.62    1.63
   0  -2  -7   25.27    1.65
   0  -2  -7   23.34    1.50
   0  -2  -7   24.48    1.62
   0   2   7   20.74    1.49
   0   2   7   23.15    1.40
   0   2   7   25.63    1.73
   0   2   7   24.41    1.54
   0   2   7   24.98    1.65
   0   2   7   23.14    2.12
  -1  -2  -7  106.44    6.31
  -1  -2  -7  114.89    5.91
  -1  -2  -7  106.83    5.79
  -1  -2  -7  109.59    5.96
  -1  -2  -7  105.58    5.76
  -1  -2  -7  100.35    6.43
   1   2   7  116.10    5.74
   1   2   7  107.00    5.98
   1   2   7  115.96    5.80
   1   2   7  112.04    5.97
   1   2   7  111.10    5.78
   1   2   7  109.89    5.95
   1   2   7  107.83    6.27
  -2  -2  -7  109.12    6.23
  -2  -2  -7  100.93    5.75
  -2  -2  -7   91.52    6.31
  -2  -2  -7  109.92    5.54
  -2  -2  -7  103.99    5.51
  -2  -2  -7  105.99    5.89
   2   2   7  100.60    5.89
   2   2   7  107.55    5.54
   2   2   7  106.71    5.81
   2   2   7  111.37    5.82
   2   2   7  107.03    5.68
  -3  -2  -7   10.61    1.53
  -3  -2  -7   15.63    1.31
  -3  -2  -7   13.86    0.99
  -3  -2  -7   11.56    2.14
   3   2   7   11.93    1.96
   3   2   7   15.21    1.04
   3   2   7   15.28    1.49
   3   2   7   13.70    1.48
  -4  -2  -7    9.48    0.86
  -4  -2  -7   13.27    2.08
  -4  -2  -7   11.42    1.59
   4   2   7   11.21    1.34
   4   2   7   11.50    0.94
   4   2   7   11.97    1.60
   4   2   7   12.35    1.51
  -5  -2  -7   55.95    4.24
  -5  -2  -7   52.52    3.81
   5   2   7   62.30    3.93
   5   2   7   54.71    3.67
   5   2   7   54.78    3.14
   5   2   7   64.14    3.77
  -6  -2  -7   11.92    2.33
  -6  -2  -7    7.30    1.61
   6   2   7    9.12    1.39
   6   2   7    8.93    0.84
   6   2   7    8.38    1.62
   6   2   7    8.68    1.50
  -7  -2  -7    8.53    1.84
  -7  -2  -7    7.16    1.81
   7   2   7    8.22    1.42
   7   2   7    5.18    1.39
   7   2   7    7.22    1.65
   7   2   7    6.68    0.71
   9  -3  -7    1.11    0.97
   9  -3  -7    1.59    0.95
   9  -3  -7    4.87    1.26
   9  -3  -7    1.54    1.47
   9  -3  -7   -0.19    0.89
   9  -3  -7    0.71    0.90
   9  -3  -7    0.87    0.91
   8  -3  -7    1.77    1.50
   8  -3  -7    1.49    0.90
   8  -3  -7   -0.44    1.30
   8  -3  -7    0.76    0.80
   8  -3  -7   -0.55    0.81
   8  -3  -7    1.72    0.84
   8  -3  -7    0.98    1.06
   7  -3  -7   22.97    2.16
   7  -3  -7   15.46    1.99
   7  -3  -7   19.66    1.46
   7  -3  -7   18.69    1.52
   7  -3  -7   20.10    1.58
   7  -3  -7   17.91    1.69
  -7   3   7   14.69    1.63
  -7   3   7   17.75    1.68
   6  -3  -7   43.66    2.56
   6  -3  -7   41.38    2.65
   6  -3  -7   43.32    2.72
   6  -3  -7   42.40    2.52
   6  -3  -7   39.61    2.89
  -6   3   7   41.20    3.04
  -6   3   7   43.42    2.80
  -6   3   7   44.14    2.73
   5  -3  -7    9.52    0.81
   5  -3  -7    4.62    1.51
   5  -3  -7    6.49    0.92
   5  -3  -7    8.13    0.76
   5  -3  -7    7.96    1.06
   5  -3  -7    7.19    1.11
   5  -3  -7    8.01    0.99
  -5   3   7    8.94    1.39
  -5   3   7    8.23    1.24
  -5   3   7    7.17    1.05
   4  -3  -7    5.89    1.50
   4  -3  -7    5.52    0.79
   4  -3  -7    6.17    0.47
   4  -3  -7    5.89    0.85
   4  -3  -7    6.00    1.01
   4  -3  -7    5.97    0.91
   4  -3  -7    6.22    0.89
   4  -3  -7    7.86    1.17
  -4   3   7    6.76    0.77
  -4   3   7    5.24    0.94
  -4   3   7    6.61    0.97
  -4   3   7    5.20    0.76
  -4   3   7    7.84    1.49
   3  -3  -7    2.43    1.36
   3  -3  -7    2.64    0.58
   3  -3  -7    2.39    0.85
   3  -3  -7    2.82    0.71
   3  -3  -7    1.79    0.75
   3  -3  -7    1.61    0.56
  -3   3   7    2.76    0.72
  -3   3   7    3.03    0.56
  -3   3   7    3.35    0.65
  -3   3   7    3.36    1.62
  -3   3   7    2.55    0.54
   2  -3  -7   79.99    4.35
   2  -3  -7   77.41    4.37
   2  -3  -7   75.33    4.36
   2  -3  -7   80.37    4.84
   2  -3  -7   76.62    4.32
   2  -3  -7   75.50    4.33
   2  -3  -7   74.79    4.21
  -2   3   7   71.01    4.63
  -2   3   7   80.01    4.32
  -2   3   7   80.30    4.40
  -2   3   7   83.49    4.36
  -2   3   7   81.08    4.23
   1  -3  -7   11.34    1.13
   1  -3  -7   13.71    1.16
   1  -3  -7   12.05    1.91
   1  -3  -7   12.94    1.15
   1  -3  -7   13.89    1.06
   1  -3  -7   13.32    1.17
   1  -3  -7   11.93    1.07
  -1   3   7   11.87    1.61
  -1   3   7   12.41    1.25
  -1   3   7   13.05    0.80
  -1   3   7   14.85    1.11
  -1   3   7   13.04    0.77
  -1   3   7   13.28    1.41
  -1   3   7   12.88    1.16
   0  -3  -7   29.91    2.73
   0  -3  -7   31.16    1.87
   0  -3  -7   30.89    2.50
   0  -3  -7   26.07    1.82
   0  -3  -7   31.06    1.90
   0  -3  -7   30.95    2.18
   0  -3  -7   24.50    1.82
   0   3   7   29.08    1.93
   0   3   7   29.75    2.48
   0   3   7   29.50    1.77
   0   3   7   31.55    1.89
   0   3   7   31.12    2.02
   0   3   7   29.45    2.04
  -1  -3  -7   66.96    3.60
  -1  -3  -7   70.32    4.38
  -1  -3  -7   63.29    3.66
  -1  -3  -7   65.06    3.90
  -1  -3  -7   66.43    3.62
  -1  -3  -7   71.43    3.87
   1   3   7   64.67    4.51
   1   3   7   58.83    4.19
   1   3   7   68.93    3.87
   1   3   7   66.55    3.68
   1   3   7   63.33    3.67
  -2  -3  -7   13.19    0.96
  -2  -3  -7   12.72    2.31
  -2  -3  -7   11.13    0.99
  -2  -3  -7   11.61    1.22
  -2  -3  -7   14.49    1.46
  -2  -3  -7   11.06    0.97
  -2  -3  -7   11.35    1.43
   2   3   7   12.64    1.32
   2   3   7   13.00    1.52
   2   3   7   12.18    1.29
   2   3   7   10.42    1.85
   2   3   7   12.76    1.08
  -3  -3  -7   -0.30    0.90
  -3  -3  -7   -0.09    0.22
  -3  -3  -7   -0.40    0.43
  -3  -3  -7   -1.48    1.32
   3   3   7   -0.07    0.88
   3   3   7   -0.98    1.06
   3   3   7   -0.11    0.50
   3   3   7   -0.02    0.78
  -4  -3  -7    1.15    0.48
  -4  -3  -7    0.17    1.08
  -4  -3  -7   -1.18    1.46
   4   3   7    0.16    0.90
   4   3   7    0.85    0.57
   4   3   7    0.78    0.95
  -5  -3  -7    1.97    1.19
  -5  -3  -7    1.18    1.31
   5   3   7    1.05    1.04
   5   3   7    1.31    1.09
  -6  -3  -7   11.48    1.86
  -6  -3  -7   11.82    2.19
   6   3   7   10.12    1.12
   6   3   7   14.15    1.92
   6   3   7   12.65    1.88
   6   3   7   12.79    1.60
  -7  -3  -7    7.10    1.75
   7   3   7    9.27    2.08
   7   3   7    9.47    2.02
   9  -4  -7    0.25    1.11
   9  -4  -7   -0.06    0.82
   9  -4  -7    0.87    0.84
   9  -4  -7    0.08    1.03
   9  -4  -7   -0.31    0.89
   9  -4  -7    1.95    0.90
   9  -4  -7   -0.65    1.47
   8  -4  -7    0.55    0.73
   8  -4  -7    0.69    0.96
   8  -4  -7   -0.26    1.09
   8  -4  -7   -0.83    1.32
   8  -4  -7    0.11    0.96
   8  -4  -7    2.23    0.86
  -8   4   7   -0.26    0.93
   7  -4  -7    1.18    1.10
   7  -4  -7    1.30    1.03
   7  -4  -7    1.05    1.38
   7  -4  -7    1.19    0.63
   7  -4  -7    2.49    1.16
  -7   4   7    1.35    0.84
  -7   4   7    1.35    0.85
   6  -4  -7    0.64    0.82
   6  -4  -7    0.85    0.62
   6  -4  -7    0.49    0.54
   6  -4  -7    0.43    1.00
   6  -4  -7   -0.22    1.28
   6  -4  -7   -0.46    0.52
  -6   4   7   -1.07    0.80
  -6   4   7    0.63    1.04
  -6   4   7   -0.06    0.75
   5  -4  -7   38.23    2.54
   5  -4  -7   35.66    2.39
   5  -4  -7   26.63    3.24
   5  -4  -7   34.12    1.97
   5  -4  -7   33.63    2.15
  -5   4   7   34.11    2.12
  -5   4   7   35.08    2.40
  -5   4   7   35.73    2.37
  -5   4   7   30.17    2.55
   4  -4  -7   44.50    2.80
   4  -4  -7   41.07    2.62
   4  -4  -7   38.52    2.33
   4  -4  -7   35.27    2.52
  -4   4   7   42.00    2.46
  -4   4   7   37.77    2.55
  -4   4   7   38.92    2.55
  -4   4   7   38.13    2.31
   3  -4  -7    5.04    0.93
   3  -4  -7    7.90    1.16
   3  -4  -7    6.35    0.99
   3  -4  -7    6.10    0.81
   3  -4  -7    6.05    1.00
   3  -4  -7   10.37    2.05
  -3   4   7    7.05    1.01
  -3   4   7    9.14    1.51
  -3   4   7    5.53    0.85
  -3   4   7    6.84    1.00
  -3   4   7    5.79    0.72
   2  -4  -7   18.91    1.58
   2  -4  -7   20.68    2.31
   2  -4  -7   19.19    1.52
   2  -4  -7   17.96    1.58
   2  -4  -7   21.69    1.60
  -2   4   7   19.52    1.31
  -2   4   7   19.49    1.98
  -2   4   7   21.03    1.65
  -2   4   7   19.85    1.58
  -2   4   7   19.66    1.55
   1  -4  -7    0.33    1.40
   1  -4  -7    0.70    0.42
   1  -4  -7    0.47    0.59
   1  -4  -7    1.07    0.66
   1  -4  -7    1.30    0.64
   1  -4  -7    0.74    0.70
   1  -4  -7    0.45    0.65
  -1   4   7    0.68    0.66
  -1   4   7    0.55    0.82
  -1   4   7    1.09    0.50
  -1   4   7    0.93    0.67
  -1   4   7    0.24    0.46
  -1   4   7    1.42    0.36
   0  -4  -7   52.92    3.02
   0  -4  -7   51.85    3.28
   0  -4  -7   51.01    3.19
   0  -4  -7   54.92    3.09
   0  -4  -7   54.32    3.25
   0  -4  -7   55.80    3.84
   0  -4  -7   50.57    3.04
   0   4   7   50.14    2.96
   0   4   7   50.41    3.26
   0   4   7   54.26    3.29
   0   4   7   55.65    3.10
   0   4   7   56.23    3.14
   0   4   7   51.97    3.60
  -1  -4  -7    7.78    0.95
  -1  -4  -7    7.09    0.95
  -1  -4  -7    9.77    1.33
  -1  -4  -7    8.67    0.95
   1   4   7    7.89    1.19
   1   4   7   10.44    1.17
   1   4   7    8.16    1.03
   1   4   7   10.69    1.61
   1   4   7    9.38    1.02
  -2  -4  -7   11.63    1.25
  -2  -4  -7   10.73    1.49
  -2  -4  -7   12.74    2.37
  -2  -4  -7   11.18    1.47
  -2  -4  -7   10.51    0.93
   2   4   7   11.66    1.38
   2   4   7    9.42    1.27
   2   4   7   10.55    1.44
   2   4   7   10.60    1.10
   2   4   7   10.94    1.95
  -3  -4  -7   13.10    2.39
  -3  -4  -7   14.55    1.77
  -3  -4  -7   15.90    1.37
   3   4   7   16.62    1.38
   3   4   7   15.49    1.65
   3   4   7   16.06    1.70
  -4  -4  -7    5.28    1.41
  -4  -4  -7    5.95    0.87
  -4  -4  -7    7.50    1.81
   4   4   7    5.75    0.93
   4   4   7    5.63    1.41
   4   4   7    5.51    1.25
  -5  -4  -7    1.08    1.22
  -5  -4  -7    0.94    1.32
  -5  -4  -7    0.98    0.38
   5   4   7    0.87    0.72
   5   4   7    0.97    1.07
   5   4   7    1.36    1.30
  -6  -4  -7   -0.81    1.19
   6   4   7    2.01    0.85
   6   4   7   -0.69    1.10
   6   4   7   -0.01    1.08
   9  -5  -7    1.66    0.86
   9  -5  -7    1.67    1.04
   9  -5  -7    2.83    1.79
   9  -5  -7    3.51    0.94
   9  -5  -7    0.46    1.08
   9  -5  -7    1.44    0.87
   8  -5  -7   -0.11    0.94
   8  -5  -7    0.98    0.75
   8  -5  -7   -0.49    1.10
   8  -5  -7   -0.22    1.46
   8  -5  -7    0.98    0.75
  -8   5   7    1.19    0.95
  -8   5   7    0.37    0.94
   7  -5  -7    2.04    0.67
   7  -5  -7    3.33    1.33
   7  -5  -7    2.72    0.78
   7  -5  -7    2.85    1.11
   7  -5  -7    1.84    1.54
  -7   5   7    2.40    1.01
  -7   5   7    2.74    0.99
   6  -5  -7   -0.11    0.53
   6  -5  -7    0.58    0.94
   6  -5  -7    0.44    1.14
   6  -5  -7    0.16    0.56
   6  -5  -7    0.10    2.79
  -6   5   7    1.94    0.72
  -6   5   7   -0.54    0.76
   5  -5  -7    0.55    0.95
   5  -5  -7    0.80    1.53
   5  -5  -7    0.32    1.05
   5  -5  -7   -0.36    0.46
  -5   5   7   -0.20    0.72
   4  -5  -7   -0.06    0.77
   4  -5  -7    0.06    0.34
   4  -5  -7   -1.45    1.32
   4  -5  -7   -1.11    0.94
  -4   5   7   -0.61    0.63
  -4   5   7   -0.01    0.58
  -4   5   7    0.04    0.33
  -4   5   7   -0.71    0.69
   3  -5  -7    2.76    1.68
   3  -5  -7    4.19    1.06
   3  -5  -7    3.47    0.96
   3  -5  -7    3.89    0.54
  -3   5   7    3.30    0.88
  -3   5   7    3.58    0.94
  -3   5   7    4.05    1.02
   2  -5  -7   12.72    0.95
   2  -5  -7   12.32    1.37
   2  -5  -7   14.44    1.35
   2  -5  -7   19.96    3.72
   2  -5  -7   14.81    1.50
   2  -5  -7   13.99    1.41
  -2   5   7   12.59    0.96
  -2   5   7   13.31    1.35
  -2   5   7   12.02    0.84
  -2   5   7   12.28    1.46
  -2   5   7   12.75    0.96
  -2   5   7   13.98    1.59
   1  -5  -7   56.87    3.46
   1  -5  -7   70.13    4.60
   1  -5  -7   70.27    3.74
   1  -5  -7   67.03    3.95
   1  -5  -7   71.58    3.98
  -1   5   7   62.81    3.53
  -1   5   7   55.83    3.82
  -1   5   7   62.55    4.10
  -1   5   7   58.97    3.75
   0  -5  -7   70.62    4.82
   0  -5  -7   73.95    4.14
   0  -5  -7   61.85    3.99
   0  -5  -7   84.49    4.91
   0  -5  -7   67.22    4.08
   0  -5  -7   76.14    4.97
   0   5   7   81.42    4.27
   0   5   7   74.45    4.10
   0   5   7   70.78    4.05
  -1  -5  -7   -0.70    0.79
  -1  -5  -7    1.26    0.53
  -1  -5  -7    4.73    1.73
  -1  -5  -7   -1.27    0.58
  -1  -5  -7    0.40    0.94
   1   5   7    0.75    0.56
   1   5   7   -1.15    0.80
   1   5   7   -0.19    0.66
   1   5   7   -0.47    0.61
  -2  -5  -7   32.21    4.63
  -2  -5  -7   21.63    2.09
  -2  -5  -7   19.03    1.44
   2   5   7   24.91    1.90
   2   5   7   23.41    1.75
   2   5   7   22.07    1.78
   2   5   7   25.43    1.79
   2   5   7   22.91    2.10
  -3  -5  -7    9.96    1.70
  -3  -5  -7    8.74    1.93
   3   5   7   13.43    1.80
   3   5   7   12.77    1.49
  -4  -5  -7    0.88    1.40
  -4  -5  -7    1.60    1.15
   4   5   7    2.96    1.20
   4   5   7    1.55    0.74
   4   5   7    4.28    1.17
  -5  -5  -7    0.63    1.31
  -5  -5  -7    0.70    1.24
   5   5   7    1.21    1.35
   5   5   7    1.50    0.85
   5   5   7    2.65    1.25
  -6  -5  -7    2.23    1.50
   6   5   7    1.90    1.39
   6   5   7    1.43    0.84
   8  -6  -7   11.89    1.89
   8  -6  -7   11.97    1.38
   8  -6  -7   17.15    2.33
  -8   6   7   13.42    1.68
  -8   6   7   12.03    1.51
   7  -6  -7   -0.10    1.23
   7  -6  -7    1.14    0.47
   7  -6  -7    0.88    1.63
   7  -6  -7   -0.17    0.55
   7  -6  -7    1.20    1.03
  -7   6   7    1.73    0.95
  -7   6   7    0.55    1.07
   6  -6  -7    1.26    1.75
   6  -6  -7    4.13    0.52
   6  -6  -7    2.87    0.68
   6  -6  -7    4.66    1.22
   6  -6  -7    4.46    1.44
  -6   6   7    4.67    0.97
  -6   6   7    3.38    1.02
   5  -6  -7    6.11    1.91
   5  -6  -7    2.09    1.16
   5  -6  -7    1.54    1.12
   5  -6  -7    1.52    0.48
  -5   6   7    1.24    0.86
  -5   6   7    1.12    0.88
   4  -6  -7    0.44    1.08
   4  -6  -7   -0.23    0.89
   4  -6  -7    0.33    3.20
  -4   6   7    0.06    0.72
   3  -6  -7   73.35    4.66
  -3   6   7   79.30    5.30
  -3   6   7   79.90    4.60
   2  -6  -7   74.53    5.25
   2  -6  -7   76.27    4.55
  -2   6   7   72.33    4.36
  -2   6   7   71.54    4.31
   1  -6  -7   13.80    1.69
   1  -6  -7   13.98    2.40
   1  -6  -7   11.83    1.48
   1  -6  -7   11.14    1.35
  -1   6   7   10.15    1.48
  -1   6   7   11.92    1.02
  -1   6   7   10.41    1.36
   0  -6  -7   13.54    1.30
   0  -6  -7   11.71    1.48
   0  -6  -7   17.05    2.59
   0  -6  -7   17.13    1.42
   0   6   7   13.28    1.24
   0   6   7   11.06    1.25
   0   6   7   15.12    1.65
   0   6   7   14.99    1.48
  -1  -6  -7    5.66    0.74
  -1  -6  -7   10.17    2.07
  -1  -6  -7    8.63    2.56
   1   6   7    8.15    1.07
   1   6   7    5.53    1.01
   1   6   7    8.05    1.14
   1   6   7   10.06    1.62
   1   6   7    6.64    1.17
  -2  -6  -7    1.69    1.54
  -2  -6  -7    0.04    0.98
  -2  -6  -7    0.51    0.27
   2   6   7   -0.75    0.92
   2   6   7    0.06    0.73
   2   6   7    0.03    0.71
  -3  -6  -7    2.74    1.24
  -3  -6  -7    2.25    1.65
   3   6   7    3.30    1.35
   3   6   7    4.21    1.07
   3   6   7    1.93    0.97
  -4  -6  -7   11.07    2.08
  -4  -6  -7   16.89    2.09
   4   6   7   13.44    1.85
   4   6   7   15.29    1.91
   4   6   7   16.26    1.71
  -5  -6  -7    1.20    1.31
   5   6   7    1.27    1.15
   5   6   7   -0.46    1.36
   5   6   7   -0.03    0.88
   7  -7  -7   -0.15    1.04
   7  -7  -7   -0.34    1.44
   7  -7  -7    1.82    1.99
  -7   7   7   -0.23    0.92
  -7   7   7    0.38    0.82
   6  -7  -7   12.59    1.81
   6  -7  -7   19.01    2.09
  -6   7   7   15.11    1.62
  -6   7   7   13.02    1.67
   5  -7  -7   22.36    1.52
   5  -7  -7   26.96    2.35
   5  -7  -7   23.11    2.23
  -5   7   7   22.39    1.94
  -5   7   7   25.42    2.12
   4  -7  -7   -0.29    1.05
   4  -7  -7    2.59    1.26
   4  -7  -7   -0.31    1.63
   4  -7  -7    1.85    0.46
  -4   7   7    4.74    0.99
  -4   7   7   -0.43    0.79
   3  -7  -7    6.92    1.74
   3  -7  -7    4.19    1.87
  -3   7   7    7.61    1.30
  -3   7   7    7.78    1.31
   2  -7  -7   14.64    2.80
   2  -7  -7   19.06    2.34
   2  -7  -7   20.27    1.98
  -2   7   7   18.74    1.79
  -2   7   7   17.84    1.78
   1  -7  -7    0.94    1.11
   1  -7  -7    0.09    2.68
   1  -7  -7   -1.13    0.95
  -1   7   7   -0.52    0.25
  -1   7   7    0.04    0.91
  -1   7   7    1.14    0.84
   0  -7  -7    7.83    1.15
   0  -7  -7    5.14    1.25
   0  -7  -7   10.81    2.86
   0   7   7    6.35    1.22
   0   7   7    5.47    0.49
   0   7   7    5.94    1.26
  -1  -7  -7    5.77    0.96
  -1  -7  -7    6.14    1.47
  -1  -7  -7    7.53    2.27
   1   7   7    5.13    0.89
   1   7   7    5.69    1.16
   1   7   7    8.39    1.55
  -2  -7  -7    7.10    3.41
  -2  -7  -7    4.07    0.48
  -2  -7  -7    6.41    1.52
   2   7   7    4.02    1.26
   2   7   7    4.69    1.13
   2   7   7    4.92    1.34
  -3  -7  -7    0.29    1.84
  -3  -7  -7    2.28    1.29
   3   7   7    2.78    1.43
   3   7   7    2.55    1.01
   3   7   7    1.00    1.19
  -4  -7  -7    0.27    1.24
  -4  -7  -7    1.42    1.09
   4   7   7    0.71    0.97
   4   7   7   -0.74    1.34
   4   7   7    1.72    1.08
   6  -8  -7    1.38    3.40
   6  -8  -7    2.51    1.41
  -6   8   7    3.35    1.00
  -6   8   7    3.67    1.43
   5  -8  -7   -1.24    1.14
   5  -8  -7    1.38    1.35
   5  -8  -7   -2.04    1.78
  -5   8   7   -0.91    0.85
   4  -8  -7    2.36    1.39
   4  -8  -7    5.82    1.58
   4  -8  -7    1.03    1.85
  -4   8   7    6.46    1.31
  -4   8   7    4.36    1.62
  -4   8   7    2.30    0.35
   3  -8  -7    9.00    1.77
  -3   8   7   11.57    1.56
   2  -8  -7   -1.62    1.09
   2  -8  -7    1.20    2.07
   2  -8  -7    1.02    1.21
  -2   8   7    0.66    0.92
  -2   8   7    0.18    0.70
  -2   8   7    0.92    0.31
   1  -8  -7   -0.81    1.97
   1  -8  -7    5.84    1.23
   1  -8  -7    0.42    1.21
  -1   8   7    5.89    1.17
  -1   8   7    0.18    1.02
   0  -8  -7    5.53    1.50
   0  -8  -7    4.05    2.03
   0  -8  -7    3.75    0.99
   0   8   7    1.93    1.09
   0   8   7    1.71    1.04
  -1  -8  -7    2.33    1.32
  -1  -8  -7    4.94    2.05
  -1  -8  -7    1.06    0.49
   1   8   7    2.21    1.05
   1   8   7    1.82    1.28
  -2  -8  -7    2.45    1.82
  -2  -8  -7    1.22    0.65
  -2  -8  -7    1.45    2.19
   2   8   7    0.41    0.38
   2   8   7    4.08    1.19
   2   8   7    6.88    1.63
  -3  -8  -7    1.73    1.35
   3   8   7    1.86    1.07
   3   8   7    0.21    1.23
   3   8   7    2.36    0.67
   5  -9  -7    0.96    1.38
   5  -9  -7   -3.29    2.02
   5  -9  -7    0.98    2.14
  -5   9   7    1.60    1.03
  -5   9   7    2.39    0.88
   4  -9  -7    0.57    1.34
   4  -9  -7   -1.18    2.99
   4  -9  -7   -2.60    1.27
  -4   9   7    0.29    0.80
  -4   9   7    0.18    0.98
   3  -9  -7    5.84    1.77
   3  -9  -7    8.79    1.64
  -3   9   7    5.84    1.23
   2  -9  -7   19.42    2.09
   2  -9  -7   13.65    2.26
  -2   9   7   16.23    2.94
  -2   9   7   13.22    1.73
   1  -9  -7    8.86    1.94
   1  -9  -7    5.00    2.38
   1  -9  -7   12.49    1.72
  -1   9   7    8.61    1.58
  -1   9   7   12.31    2.63
   0  -9  -7    2.18    1.61
   0  -9  -7    1.18    1.06
   0  -9  -7    2.64    1.94
   0   9   7    1.37    1.19
  -1  -9  -7    1.00    0.55
  -1  -9  -7    0.60    1.71
  -1  -9  -7    2.22    1.39
   1   9   7    1.68    2.07
   1   9   7   -0.39    0.92
   3   9  -8    5.34    1.35
   3   9  -8    2.89    1.02
  -3  -9   8    3.99    1.50
  -3  -9   8    6.91    1.48
   2   9  -8   12.40    2.32
   2   9  -8   12.15    1.87
  -2  -9   8   10.09    1.95
  -2  -9   8   11.27    1.89
  -2  -9   8   10.75    1.52
   1   9  -8    6.05    1.47
   1   9  -8    6.26    1.57
  -1  -9   8    6.37    1.20
  -1  -9   8    7.45    1.85
   0   9  -8    4.66    1.55
   0   9  -8    5.52    1.36
   0  -9   8    6.89    1.54
   0  -9   8    5.32    1.66
   0  -9   8    5.17    1.65
   0  -9   8    4.55    0.91
  -1   9  -8    1.11    1.02
  -1   9  -8    1.32    1.40
   1  -9   8    1.89    1.57
   1  -9   8    0.86    0.64
   1  -9   8    2.62    1.49
   1  -9   8    2.89    1.30
  -2   9  -8    4.09    1.10
   2  -9   8    3.85    1.38
   2  -9   8    5.50    1.15
  -3   9  -8    5.08    1.62
  -3   9  -8    5.23    1.11
   3  -9   8    2.82    1.58
   3  -9   8    7.52    1.15
   3  -9   8    4.81    1.79
   4   8  -8   12.09    1.57
   4   8  -8   12.93    1.86
  -4  -8   8    7.04    2.05
  -4  -8   8   10.08    1.61
   3   8  -8    5.13    1.12
   3   8  -8    4.84    1.47
   3   8  -8    6.32    1.52
  -3  -8   8    5.87    1.49
  -3  -8   8    5.00    1.42
  -3  -8   8    6.15    1.23
   2   8  -8   -0.01    1.13
   2   8  -8    1.39    1.01
   2   8  -8    1.66    1.01
  -2  -8   8    0.79    1.12
  -2  -8   8    0.27    1.19
  -2  -8   8    1.02    0.44
   1   8  -8    0.55    1.03
   1   8  -8    2.96    1.30
   1   8  -8    0.83    0.39
  -1  -8   8    1.35    1.14
  -1  -8   8    1.07    1.45
  -1  -8   8    1.84    0.84
  -1  -8   8    2.05    1.62
   0   8  -8    2.49    1.39
   0   8  -8    2.64    0.41
   0   8  -8    2.10    1.08
   0  -8   8    3.66    0.88
   0  -8   8    2.74    1.33
   0  -8   8    2.17    1.18
  -1   8  -8    3.82    1.55
  -1   8  -8    3.34    1.16
  -1   8  -8    4.32    1.55
   1  -8   8    2.62    1.17
   1  -8   8    2.02    1.01
   1  -8   8    3.71    1.42
  -2   8  -8   20.78    2.70
  -2   8  -8   21.17    2.29
  -2   8  -8   21.21    1.89
   2  -8   8   19.48    2.30
   2  -8   8   18.65    2.06
  -3   8  -8   -0.46    1.18
  -3   8  -8    0.81    1.39
  -3   8  -8    0.92    0.76
   3  -8   8   -2.44    1.08
   3  -8   8    1.20    0.70
   3  -8   8   -0.19    1.00
  -4   8  -8    0.08    1.52
  -4   8  -8   -0.04    1.45
  -4   8  -8    0.30    0.35
   4  -8   8    0.49    1.07
   4  -8   8    0.88    0.74
   4  -8   8   -1.88    1.11
  -5   8  -8    1.05    1.62
  -5   8  -8    3.44    1.51
  -5   8  -8    0.54    0.59
   5  -8   8   -1.19    1.29
   5  -8   8    1.55    1.38
   5  -8   8    0.57    0.79
   6   7  -8   -0.01    1.29
   6   7  -8    0.01    1.37
   5   7  -8    0.84    1.12
   5   7  -8    1.31    1.17
   5   7  -8    3.91    1.26
  -5  -7   8    0.62    1.07
  -5  -7   8    1.02    0.96
   4   7  -8    1.34    1.39
   4   7  -8   -0.25    1.15
   4   7  -8    1.50    1.01
  -4  -7   8   -0.35    0.79
  -4  -7   8    1.08    1.11
  -4  -7   8   -0.22    0.80
   3   7  -8   -0.42    1.09
   3   7  -8    0.63    0.83
  -3  -7   8    0.30    0.80
  -3  -7   8    2.17    1.68
   2   7  -8    1.50    0.46
   2   7  -8    4.36    1.22
   2   7  -8    5.07    1.52
   2   7  -8    3.92    0.92
  -2  -7   8    3.51    1.20
  -2  -7   8    5.05    1.86
  -2  -7   8    3.93    1.00
  -2  -7   8    2.73    0.52
  -2  -7   8    1.43    0.79
   1   7  -8   37.17    3.15
   1   7  -8   37.06    2.91
   1   7  -8   37.72    2.71
  -1  -7   8   39.68    2.68
  -1  -7   8   35.91    2.98
  -1  -7   8   42.02    2.90
   0   7  -8    0.75    1.12
   0   7  -8    1.13    0.25
   0   7  -8    0.73    0.89
   0   7  -8    1.09    1.16
   0  -7   8    1.52    1.15
   0  -7   8    0.16    0.76
   0  -7   8   -0.41    0.81
  -1   7  -8    5.57    1.55
  -1   7  -8    5.21    1.14
  -1   7  -8    5.69    1.48
   1  -7   8    5.18    1.01
   1  -7   8    4.79    1.16
   1  -7   8    5.26    1.22
  -2   7  -8    1.93    1.23
  -2   7  -8    0.24    1.64
   2  -7   8    0.67    0.69
   2  -7   8   -0.24    1.04
  -3   7  -8   -0.88    1.11
  -3   7  -8    0.61    0.60
  -3   7  -8   -1.35    1.47
   3  -7   8   -1.15    0.97
   3  -7   8   -1.38    0.80
   3  -7   8    0.04    1.21
  -4   7  -8   11.37    2.33
  -4   7  -8   12.06    1.79
   4  -7   8   10.17    1.45
   4  -7   8   10.29    1.04
   4  -7   8   11.64    1.67
   4  -7   8    9.90    1.80
  -5   7  -8   11.55    2.43
  -5   7  -8   12.72    1.85
   5  -7   8    9.58    1.85
   5  -7   8   14.03    1.84
   5  -7   8   10.79    1.57
  -6   7  -8    6.48    2.14
   6  -7   8    2.07    1.12
   6  -7   8    6.07    1.43
   6  -7   8    4.49    1.52
   7   6  -8    9.87    1.49
   7   6  -8    7.23    1.55
   7   6  -8    3.93    1.62
  -7  -6   8    8.24    1.61
   6   6  -8    1.50    1.27
   6   6  -8    1.07    1.13
   6   6  -8    1.73    1.12
  -6  -6   8   -0.16    0.94
   5   6  -8    2.71    0.78
   5   6  -8    0.21    1.10
   5   6  -8    1.91    1.18
   5   6  -8    2.84    1.31
  -5  -6   8    1.19    0.99
  -5  -6   8    0.25    0.96
   4   6  -8    0.98    1.10
   4   6  -8    1.75    1.20
   4   6  -8   -0.71    0.91
   4   6  -8    0.69    0.66
  -4  -6   8   -0.10    0.90
  -4  -6   8    0.55    0.86
  -4  -6   8   -0.38    0.67
   3   6  -8    5.90    1.32
   3   6  -8    6.20    1.83
   3   6  -8    7.17    1.65
   3   6  -8    6.68    1.08
  -3  -6   8    5.12    1.29
  -3  -6   8    7.19    1.16
  -3  -6   8    5.79    1.15
   2   6  -8    6.49    0.98
   2   6  -8    5.26    0.93
   2   6  -8    7.05    1.42
   2   6  -8    6.77    1.03
   2   6  -8    7.11    1.15
  -2  -6   8    5.33    1.35
  -2  -6   8    9.65    1.40
  -2  -6   8    5.48    1.11
   1   6  -8   47.15    2.76
   1   6  -8   41.99    2.87
   1   6  -8   42.35    2.57
   1   6  -8   45.05    3.08
   1   6  -8   42.04    3.06
  -1  -6   8   43.44    3.18
  -1  -6   8   42.22    3.02
  -1  -6   8   46.02    2.91
  -1  -6   8   40.47    2.86
   0   6  -8    3.05    0.95
   0   6  -8    2.44    1.29
   0   6  -8    4.66    1.31
   0   6  -8    2.23    0.54
   0   6  -8    3.36    0.91
   0  -6   8    3.09    0.90
   0  -6   8    3.71    1.07
   0  -6   8    3.13    0.95
  -1   6  -8    4.20    2.02
  -1   6  -8    4.27    0.88
  -1   6  -8    4.98    1.34
  -1   6  -8    5.57    0.96
   1  -6   8    5.90    1.02
   1  -6   8    3.72    1.27
   1  -6   8    5.25    1.86
   1  -6   8    6.05    0.88
  -2   6  -8   12.45    2.22
  -2   6  -8   14.76    1.31
  -2   6  -8   15.20    1.39
   2  -6   8   13.02    1.53
   2  -6   8   13.17    1.17
   2  -6   8   13.61    1.70
   2  -6   8   13.42    2.11
  -3   6  -8    4.59    1.33
  -3   6  -8    4.66    2.28
  -3   6  -8    5.63    0.82
   3  -6   8    4.45    0.71
   3  -6   8    5.05    1.21
   3  -6   8    6.98    1.33
   3  -6   8    3.53    1.22
  -4   6  -8   14.33    2.65
  -4   6  -8   11.39    1.68
   4  -6   8   10.26    0.94
   4  -6   8   12.41    1.79
   4  -6   8   10.96    1.47
  -5   6  -8    0.85    0.25
  -5   6  -8    1.19    1.13
  -5   6  -8    0.70    1.82
   5  -6   8    0.45    0.40
   5  -6   8    1.79    1.06
   5  -6   8    0.95    1.14
   5  -6   8   -0.29    0.84
  -6   6  -8    0.65    2.45
   6  -6   8   -1.34    1.01
   6  -6   8   -0.13    0.93
   6  -6   8    1.21    1.13
   7   5  -8    2.83    1.37
   7   5  -8    5.65    1.26
   7   5  -8    2.94    1.41
  -7  -5   8    3.55    1.32
   6   5  -8   12.89    1.78
   6   5  -8   12.24    1.57
  -6  -5   8   10.19    0.74
   5   5  -8   18.01    1.51
   5   5  -8   23.23    2.05
   5   5  -8   13.19    1.80
   5   5  -8   19.63    1.96
  -5  -5   8   19.11    1.93
  -5  -5   8   17.28    1.95
   4   5  -8   36.94    2.54
   4   5  -8   38.25    2.77
   4   5  -8   36.88    2.31
   4   5  -8   39.43    2.90
  -4  -5   8   35.64    2.67
  -4  -5   8   35.20    2.37
  -4  -5   8   36.48    2.80
   3   5  -8  106.78    5.69
   3   5  -8   93.88    5.70
   3   5  -8  109.94    5.58
   3   5  -8  106.48    5.85
  -3  -5   8  103.02    5.66
  -3  -5   8  102.22    6.00
  -3  -5   8   97.33    5.85
   2   5  -8    0.29    1.54
   2   5  -8    0.50    0.67
   2   5  -8    0.13    0.62
   2   5  -8    0.45    0.58
   2   5  -8   -0.19    0.78
  -2  -5   8    0.52    0.92
  -2  -5   8    1.93    0.79
  -2  -5   8   -0.69    0.68
  -2  -5   8    0.74    0.80
   1   5  -8   12.90    1.08
   1   5  -8   13.12    1.06
   1   5  -8   11.07    1.47
   1   5  -8   11.35    1.60
   1   5  -8   14.02    1.36
  -1  -5   8   11.07    1.16
  -1  -5   8   14.48    1.85
  -1  -5   8   11.69    1.52
  -1  -5   8   12.78    1.36
   0   5  -8    0.68    0.73
   0   5  -8    1.05    0.42
   0   5  -8    3.06    0.85
   0   5  -8    0.36    0.40
   0   5  -8    0.75    1.12
   0  -5   8    0.80    0.62
   0  -5   8    1.58    0.93
   0  -5   8    0.39    0.68
   0  -5   8    0.71    0.94
   0  -5   8    1.21    0.75
   0  -5   8    1.12    0.62
  -1   5  -8    0.21    1.15
  -1   5  -8    0.80    0.27
  -1   5  -8    1.38    1.03
  -1   5  -8    0.71    0.27
  -1   5  -8    0.47    0.64
  -1   5  -8    0.48    0.63
   1  -5   8    0.84    0.47
   1  -5   8    0.86    0.70
   1  -5   8    0.27    0.65
   1  -5   8    0.67    0.67
   1  -5   8    0.22    0.83
   1  -5   8    0.68    0.88
  -2   5  -8   15.58    1.77
  -2   5  -8   15.65    1.45
  -2   5  -8   18.13    1.30
  -2   5  -8   12.12    2.39
   2  -5   8   17.09    1.75
   2  -5   8   16.30    1.62
   2  -5   8   17.66    1.22
   2  -5   8   18.31    1.67
  -3   5  -8    0.90    1.52
  -3   5  -8    2.46    0.54
  -3   5  -8    2.54    1.12
   3  -5   8    2.00    0.90
   3  -5   8    1.91    0.89
   3  -5   8    2.88    1.10
   3  -5   8    2.58    0.51
  -4   5  -8    1.51    1.07
  -4   5  -8    1.39    1.62
   4  -5   8    2.00    1.05
   4  -5   8    0.90    0.81
   4  -5   8    1.33    0.62
  -5   5  -8    3.70    1.86
  -5   5  -8    5.65    1.31
   5  -5   8    5.30    1.40
   5  -5   8    6.49    1.25
   5  -5   8    5.61    1.28
   5  -5   8    4.87    0.38
  -6   5  -8   28.33    2.40
  -6   5  -8   29.52    3.34
   6  -5   8   23.02    2.45
   6  -5   8   22.86    2.35
   6  -5   8   29.22    2.44
  -7   5  -8    0.96    1.11
  -7   5  -8    2.99    1.91
   7  -5   8    0.94    1.15
   7  -5   8   -0.02    1.06
   7  -5   8    1.14    1.24
   8   4  -8    0.09    1.01
   8   4  -8   -0.67    1.36
   8   4  -8    0.76    2.40
  -8  -4   8    0.54    1.39
   7   4  -8    8.64    1.40
   7   4  -8    8.81    1.62
   7   4  -8    9.49    1.09
   7   4  -8    9.42    1.56
  -7  -4   8    8.24    0.64
  -7  -4   8    9.67    1.60
   6   4  -8    1.36    0.68
   6   4  -8    3.40    1.01
   6   4  -8    2.26    1.01
   6   4  -8    1.60    1.20
  -6  -4   8    1.90    1.06
   5   4  -8   55.44    3.85
   5   4  -8   52.50    3.13
   5   4  -8   63.58    3.77
  -5  -4   8   51.42    3.14
  -5  -4   8   50.37    3.59
  -5  -4   8   59.40    3.68
   4   4  -8    7.57    1.15
   4   4  -8    9.13    0.87
   4   4  -8    7.88    1.29
  -4  -4   8    6.88    1.25
  -4  -4   8    7.55    1.28
  -4  -4   8    5.41    0.88
   3   4  -8   43.33    2.76
   3   4  -8   38.53    2.38
   3   4  -8   44.96    2.85
   3   4  -8   33.80    2.50
   3   4  -8   42.79    2.49
   3   4  -8   44.15    2.66
  -3  -4   8   43.92    2.48
  -3  -4   8   43.53    2.86
  -3  -4   8   39.05    2.49
  -3  -4   8   46.28    2.89
  -3  -4   8   41.82    2.72
   2   4  -8    5.23    1.01
   2   4  -8    3.79    1.08
   2   4  -8    3.40    0.99
   2   4  -8    2.73    0.75
   2   4  -8    3.91    0.90
   2   4  -8    4.70    0.66
   2   4  -8    4.04    0.77
   2   4  -8    3.96    0.93
  -2  -4   8    4.24    0.93
  -2  -4   8    2.04    0.71
  -2  -4   8    6.39    1.13
  -2  -4   8    5.19    1.02
  -2  -4   8    4.64    0.95
   1   4  -8    0.26    0.80
   1   4  -8    0.24    0.46
   1   4  -8    0.37    0.87
   1   4  -8    0.25    0.64
   1   4  -8    1.46    0.79
   1   4  -8    0.93    0.47
   1   4  -8    0.21    0.68
  -1  -4   8    0.48    0.75
  -1  -4   8   -0.23    0.51
  -1  -4   8    0.30    0.67
  -1  -4   8    0.03    0.69
  -1  -4   8    2.24    0.83
  -1  -4   8    0.26    0.47
  -1  -4   8    0.28    0.50
   0   4  -8   13.44    1.38
   0   4  -8   14.78    1.06
   0   4  -8   15.90    1.80
   0   4  -8   14.33    1.56
   0   4  -8   15.78    1.23
   0  -4   8   14.06    1.33
   0  -4   8   14.06    1.40
   0  -4   8   14.99    1.26
   0  -4   8   13.70    1.50
   0  -4   8   16.59    1.15
   0  -4   8   15.39    1.29
   0  -4   8   16.71    1.72
  -1   4  -8    0.60    0.33
  -1   4  -8    0.41    1.00
  -1   4  -8   -0.20    0.62
  -1   4  -8    0.71    0.90
  -1   4  -8    0.60    0.52
  -1   4  -8   -0.73    0.62
   1  -4   8   -0.08    0.75
   1  -4   8    0.08    0.67
   1  -4   8    0.64    0.60
   1  -4   8   -0.23    0.74
   1  -4   8    0.06    0.53
   1  -4   8    0.39    0.83
   1  -4   8    0.49    0.41
  -2   4  -8    3.62    1.10
  -2   4  -8    4.58    0.89
  -2   4  -8    4.71    0.64
  -2   4  -8    4.12    1.34
  -2   4  -8    3.89    0.35
   2  -4   8    3.92    0.96
   2  -4   8    3.13    0.87
   2  -4   8    4.33    1.09
   2  -4   8    4.48    0.58
   2  -4   8    3.22    0.83
  -3   4  -8   -0.25    0.29
  -3   4  -8   -1.54    1.20
   3  -4   8   -0.06    0.77
   3  -4   8    0.00    0.29
   3  -4   8    0.79    0.82
  -4   4  -8   28.18    2.32
  -4   4  -8   27.67    3.14
   4  -4   8   29.11    2.30
   4  -4   8   27.72    2.33
   4  -4   8   30.43    2.25
  -5   4  -8    6.95    1.38
  -5   4  -8    6.43    1.89
   5  -4   8    5.34    1.29
   5  -4   8    5.85    0.55
   5  -4   8    6.75    1.28
   5  -4   8    7.77    1.35
  -6   4  -8    4.14    1.38
  -6   4  -8    2.54    1.79
   6  -4   8    1.05    1.01
   6  -4   8    1.57    1.08
   6  -4   8    3.00    0.51
   6  -4   8    0.65    0.80
  -7   4  -8   10.02    2.53
  -7   4  -8    9.91    1.49
   7  -4   8    9.67    1.89
   7  -4   8    7.36    1.04
   7  -4   8    7.74    1.92
   7  -4   8    8.84    1.60
   8   3  -8    0.28    1.02
   8   3  -8    0.02    1.06
   8   3  -8    0.81    1.16
  -8  -3   8    0.79    1.12
   7   3  -8    7.18    1.33
   7   3  -8    7.30    1.30
   7   3  -8    6.83    1.24
   7   3  -8    5.36    0.93
  -7  -3   8    9.01    1.54
   6   3  -8   28.68    2.31
   6   3  -8   31.50    2.22
   6   3  -8   25.11    1.77
   6   3  -8   24.89    2.19
  -6  -3   8   27.27    2.33
   5   3  -8    2.81    1.11
   5   3  -8    1.78    1.00
   5   3  -8    1.78    0.84
   5   3  -8    3.91    0.95
  -5  -3   8    3.45    1.02
  -5  -3   8    1.68    0.57
  -5  -3   8    1.87    0.95
  -5  -3   8   -0.58    1.44
   4   3  -8   53.14    3.34
   4   3  -8   49.63    3.93
   4   3  -8   50.42    2.65
   4   3  -8   45.72    3.11
   4   3  -8   47.95    3.10
   4   3  -8   55.86    3.07
   4   3  -8   49.10    2.72
  -4  -3   8   48.27    3.14
  -4  -3   8   56.33    4.19
  -4  -3   8   44.17    2.67
  -4  -3   8   45.23    3.00
   3   3  -8   75.39    4.28
   3   3  -8   81.10    4.36
   3   3  -8   77.85    4.45
   3   3  -8   71.60    4.48
   3   3  -8   79.34    4.52
   3   3  -8   82.24    4.81
   3   3  -8   72.55    4.02
  -3  -3   8   83.75    4.33
  -3  -3   8   75.31    4.39
  -3  -3   8   71.29    4.26
  -3  -3   8   78.85    4.52
  -3  -3   8   79.79    4.48
   2   3  -8   15.38    1.43
   2   3  -8   15.81    1.47
   2   3  -8   14.17    1.46
   2   3  -8   15.22    1.28
   2   3  -8   13.05    1.21
   2   3  -8   15.05    1.36
  -2  -3   8   15.23    1.42
  -2  -3   8   14.71    1.41
  -2  -3   8   12.94    1.44
  -2  -3   8   12.06    1.44
  -2  -3   8   17.45    1.07
  -2  -3   8   16.66    1.21
  -2  -3   8   15.57    1.02
   1   3  -8   22.33    1.50
   1   3  -8   22.44    1.88
   1   3  -8   22.25    1.52
   1   3  -8   21.19    1.69
   1   3  -8   19.95    1.61
   1   3  -8   23.03    1.78
  -1  -3   8   22.71    1.47
  -1  -3   8   21.91    1.43
  -1  -3   8   24.50    1.73
  -1  -3   8   21.68    1.41
  -1  -3   8   23.36    1.91
  -1  -3   8   23.07    1.76
  -1  -3   8   19.75    1.43
   0   3  -8   25.92    1.87
   0   3  -8   28.68    2.38
   0   3  -8   26.23    1.66
   0   3  -8   27.32    1.73
   0   3  -8   28.10    2.01
   0   3  -8   26.08    1.91
   0  -3   8   30.33    1.67
   0  -3   8   27.40    1.77
   0  -3   8   25.51    1.93
   0  -3   8   28.67    1.75
   0  -3   8   26.21    2.18
   0  -3   8   27.20    1.97
   0  -3   8   28.11    1.68
  -1   3  -8    4.97    0.62
  -1   3  -8    5.21    0.61
  -1   3  -8    4.65    0.76
  -1   3  -8    5.06    1.19
  -1   3  -8    7.25    1.15
  -1   3  -8    5.83    1.06
   1  -3   8    7.87    1.52
   1  -3   8    5.40    0.62
   1  -3   8    5.29    0.97
   1  -3   8    6.73    0.94
   1  -3   8    5.68    0.97
   1  -3   8    5.24    0.94
   1  -3   8    3.83    0.52
   1  -3   8    5.24    0.74
  -2   3  -8   46.42    3.41
  -2   3  -8   45.49    2.47
  -2   3  -8   45.47    2.82
  -2   3  -8   46.78    2.45
  -2   3  -8   43.09    2.80
  -2   3  -8   45.14    2.87
   2  -3   8   41.90    2.78
   2  -3   8   45.12    2.90
   2  -3   8   42.68    3.27
   2  -3   8   47.69    2.77
   2  -3   8   44.00    2.89
   2  -3   8   44.04    2.47
   2  -3   8   46.10    2.41
  -3   3  -8    0.99    2.66
  -3   3  -8    3.01    0.69
  -3   3  -8    2.30    0.80
  -3   3  -8    1.45    0.92
   3  -3   8    2.74    1.02
   3  -3   8    3.57    0.88
   3  -3   8    2.58    0.85
   3  -3   8    3.10    0.52
   3  -3   8    2.87    0.93
   3  -3   8    1.46    1.45
  -4   3  -8   -1.71    1.34
  -4   3  -8    0.55    0.21
  -4   3  -8   -0.27    0.91
   4  -3   8   -1.15    0.68
   4  -3   8    0.97    0.88
   4  -3   8    0.55    0.47
   4  -3   8   -0.48    0.77
  -5   3  -8    6.13    1.31
  -5   3  -8    5.36    1.86
   5  -3   8    7.90    1.34
   5  -3   8    7.53    0.86
   5  -3   8    9.47    1.45
  -6   3  -8   13.71    1.48
  -6   3  -8   15.23    2.81
   6  -3   8   10.70    1.67
   6  -3   8   15.16    1.66
   6  -3   8   11.26    1.06
   6  -3   8   11.33    1.72
  -7   3  -8    0.55    1.79
  -7   3  -8    0.82    0.76
   7  -3   8    0.46    0.72
   7  -3   8    0.45    1.00
   7  -3   8    1.42    1.06
   7  -3   8    1.31    1.12
   9   2  -8    0.68    1.12
   9   2  -8    1.30    1.43
   9   2  -8    2.22    0.73
  -9  -2   8    1.37    1.22
   8   2  -8    2.46    1.17
   8   2  -8   -0.65    1.06
   8   2  -8   -0.20    1.08
  -8  -2   8    0.98    1.07
   7   2  -8    6.79    1.38
   7   2  -8    5.13    1.19
  -7  -2   8    4.85    1.29
  -7  -2   8    7.43    0.54
   6   2  -8    1.33    1.01
   6   2  -8    2.03    0.99
   6   2  -8    2.61    0.54
   6   2  -8    1.70    0.89
  -6  -2   8    2.06    1.01
   5   2  -8   10.22    1.18
   5   2  -8    6.98    1.27
   5   2  -8   10.37    1.39
   5   2  -8   11.65    1.33
   5   2  -8    8.70    0.68
  -5  -2   8   10.03    1.38
  -5  -2   8    8.58    1.14
  -5  -2   8    8.00    0.70
   4   2  -8    1.96    0.84
   4   2  -8    2.36    0.92
   4   2  -8    1.64    0.75
   4   2  -8    3.02    0.91
   4   2  -8    4.34    0.82
   4   2  -8    3.01    0.91
  -4  -2   8    3.95    0.74
  -4  -2   8    2.70    0.91
  -4  -2   8    2.71    0.90
  -4  -2   8    3.21    0.84
  -4  -2   8    3.32    0.73
  -4  -2   8    3.06    0.86
   3   2  -8   18.53    1.58
   3   2  -8   19.59    1.47
   3   2  -8   16.51    1.44
   3   2  -8   17.54    1.59
   3   2  -8   20.88    1.65
   3   2  -8   17.37    1.47
  -3  -2   8   23.25    1.90
  -3  -2   8   18.67    1.45
  -3  -2   8   17.80    1.47
  -3  -2   8   18.63    1.61
  -3  -2   8   22.73    1.62
   2   2  -8   53.64    3.48
   2   2  -8   57.70    3.38
   2   2  -8   59.19    3.54
   2   2  -8   61.57    3.46
   2   2  -8   59.36    3.37
   2   2  -8   60.92    3.52
  -2  -2   8   60.57    3.08
  -2  -2   8   51.23    3.25
  -2  -2   8   59.78    3.45
  -2  -2   8   61.68    3.52
  -2  -2   8   56.91    3.51
  -2  -2   8   63.71    3.47
  -2  -2   8   59.25    3.16
  -2  -2   8   61.33    3.37
   1   2  -8    4.96    1.01
   1   2  -8    6.57    0.95
   1   2  -8    3.87    0.70
   1   2  -8    4.36    0.71
   1   2  -8    4.90    0.85
   1   2  -8    4.59    0.67
  -1  -2   8    4.48    0.60
  -1  -2   8    3.82    0.97
  -1  -2   8    4.40    0.84
  -1  -2   8    3.35    0.54
  -1  -2   8    4.52    0.64
  -1  -2   8    4.81    0.89
  -1  -2   8    4.49    0.83
  -1  -2   8    5.29    0.53
   0   2  -8    0.20    0.40
   0   2  -8    0.19    0.87
   0   2  -8    0.12    0.59
   0   2  -8    0.12    0.69
   0   2  -8    0.35    0.41
   0   2  -8   -0.16    0.42
   0  -2   8   -0.37    0.74
   0  -2   8   -0.46    0.38
   0  -2   8   -0.02    0.37
   0  -2   8   -0.11    0.53
   0  -2   8    0.18    0.40
   0  -2   8    0.18    0.61
   0  -2   8   -0.12    0.58
   0  -2   8    0.31    0.33
  -1   2  -8   11.40    1.13
  -1   2  -8   10.96    1.18
  -1   2  -8   10.88    1.06
  -1   2  -8   12.60    0.82
  -1   2  -8   11.23    0.92
  -1   2  -8   11.81    1.17
  -1   2  -8   11.19    1.59
   1  -2   8   12.03    1.24
   1  -2   8   13.02    1.18
   1  -2   8   11.42    1.13
   1  -2   8   11.81    0.94
   1  -2   8   10.56    1.58
   1  -2   8   11.81    1.13
  -2   2  -8   -0.01    0.15
  -2   2  -8    0.18    0.68
  -2   2  -8    0.37    0.67
  -2   2  -8   -0.07    0.59
  -2   2  -8    0.12    0.38
  -2   2  -8    0.23    1.09
  -2   2  -8    0.16    0.53
   2  -2   8    0.97    0.95
   2  -2   8    0.03    0.40
   2  -2   8   -0.13    0.67
   2  -2   8    0.19    0.57
   2  -2   8    0.59    0.58
   2  -2   8    0.12    0.57
  -3   2  -8    1.28    0.71
  -3   2  -8   -0.22    0.71
  -3   2  -8    0.08    1.16
  -3   2  -8    0.63    0.76
  -3   2  -8    0.33    0.83
  -3   2  -8    0.63    0.43
   3  -2   8    2.43    0.83
   3  -2   8    0.97    0.51
   3  -2   8   -0.03    0.67
   3  -2   8   -0.16    0.66
   3  -2   8    0.98    0.82
  -4   2  -8   -0.92    1.22
  -4   2  -8    0.61    0.45
  -4   2  -8   -0.41    0.89
  -4   2  -8   -0.45    0.77
   4  -2   8   -0.45    0.70
   4  -2   8   -0.15    0.53
   4  -2   8    0.48    0.89
  -5   2  -8   54.99    3.27
  -5   2  -8   58.97    5.21
   5  -2   8   44.44    3.15
   5  -2   8   54.39    3.15
   5  -2   8   56.74    3.63
  -6   2  -8   40.49    3.71
  -6   2  -8   34.97    2.92
  -6   2  -8   37.73    2.42
   6  -2   8   37.15    2.41
   6  -2   8   35.53    2.80
   6  -2   8   30.36    2.33
   6  -2   8   38.79    2.96
  -7   2  -8    2.44    1.45
  -7   2  -8    1.07    1.83
   7  -2   8    2.25    1.12
   7  -2   8    2.93    1.32
   7  -2   8    2.57    0.91
   8  -2   8   13.12    1.97
   9   1  -8    2.48    1.47
   9   1  -8    2.36    1.24
   9   1  -8    0.76    1.13
   9   1  -8    2.61    0.75
  -9  -1   8    0.80    1.10
   8   1  -8    4.30    1.21
   8   1  -8    5.14    1.20
   8   1  -8    4.02    1.26
  -8  -1   8    4.30    1.24
   7   1  -8   21.54    2.05
   7   1  -8   23.83    1.91
   7   1  -8   26.21    2.15
   7   1  -8   31.08    2.19
  -7  -1   8   26.76    2.28
   6   1  -8    1.06    0.72
   6   1  -8    0.38    0.41
   6   1  -8   -0.39    0.79
   6   1  -8   -0.50    0.82
   6   1  -8    1.24    0.73
   6   1  -8   -1.31    0.67
   6   1  -8    0.51    0.88
  -6  -1   8   -0.05    0.83
   5   1  -8   21.84    1.26
   5   1  -8   24.54    1.91
   5   1  -8   21.10    1.86
   5   1  -8   22.43    2.02
   5   1  -8   22.46    1.74
  -5  -1   8   24.06    1.97
  -5  -1   8   25.18    2.12
  -5  -1   8   27.80    1.82
   4   1  -8   59.90    3.55
   4   1  -8   61.64    3.60
   4   1  -8   57.46    3.55
   4   1  -8   56.58    3.45
   4   1  -8   66.30    3.57
   4   1  -8   58.75    3.41
   4   1  -8   58.15    3.46
  -4  -1   8   56.83    3.41
  -4  -1   8   61.11    3.67
  -4  -1   8   61.90    3.61
  -4  -1   8   55.22    3.42
  -4  -1   8   61.01    3.52
   3   1  -8    2.64    0.69
   3   1  -8    3.93    0.97
   3   1  -8    4.30    0.78
   3   1  -8    4.09    0.66
   3   1  -8    4.03    0.92
   3   1  -8    2.99    0.78
   3   1  -8    3.88    0.64
  -3  -1   8    3.89    0.79
  -3  -1   8    2.92    0.79
  -3  -1   8    3.91    0.79
  -3  -1   8    3.84    0.71
  -3  -1   8    2.78    0.80
   2   1  -8    2.96    0.75
   2   1  -8    2.34    0.60
   2   1  -8    1.97    0.66
   2   1  -8    2.68    0.63
   2   1  -8    2.50    0.91
   2   1  -8    2.97    1.03
   2   1  -8    3.62    0.60
  -2  -1   8    2.51    0.60
  -2  -1   8    1.80    0.70
  -2  -1   8    3.88    0.79
  -2  -1   8    2.87    0.66
  -2  -1   8    2.52    0.86
   1   1  -8    7.99    0.80
   1   1  -8    7.08    0.73
   1   1  -8    6.26    0.70
   1   1  -8    7.83    1.00
   1   1  -8    7.71    1.00
   1   1  -8    6.54    0.77
   1   1  -8    7.94    1.44
  -1  -1   8    8.79    1.40
  -1  -1   8    6.63    0.78
  -1  -1   8    6.15    0.82
  -1  -1   8    6.27    0.79
  -1  -1   8    6.77    0.61
  -1  -1   8    6.66    1.15
   0   1  -8   14.34    1.08
   0   1  -8   14.47    1.27
   0   1  -8   13.79    1.25
   0   1  -8   13.43    0.95
   0   1  -8   12.15    1.72
   0   1  -8   14.45    1.08
   0   1  -8   13.91    1.09
   0   1  -8   12.82    1.09
   0  -1   8   13.07    1.06
   0  -1   8   14.92    1.12
   0  -1   8   14.04    1.96
   0  -1   8   15.69    1.15
   0  -1   8   13.08    1.17
   0  -1   8   13.23    1.65
  -1   1  -8   46.46    2.93
  -1   1  -8   48.80    2.60
  -1   1  -8   50.72    3.35
  -1   1  -8   52.87    2.85
  -1   1  -8   50.24    2.90
  -1   1  -8   46.92    2.78
  -1   1  -8   49.93    2.93
   1  -1   8   49.30    2.99
   1  -1   8   46.73    3.29
   1  -1   8   49.81    2.91
   1  -1   8   48.95    2.87
   1  -1   8   50.15    2.81
   1  -1   8   45.05    2.84
  -2   1  -8   18.25    1.49
  -2   1  -8   16.17    1.23
  -2   1  -8   16.40    1.36
  -2   1  -8   19.07    1.49
  -2   1  -8   16.00    2.01
  -2   1  -8   19.91    1.37
   2  -1   8   16.91    1.42
   2  -1   8   18.03    1.29
   2  -1   8   15.71    1.35
   2  -1   8   14.52    1.94
   2  -1   8   19.43    1.60
   2  -1   8   15.57    1.38
  -3   1  -8    4.52    1.05
  -3   1  -8    6.74    0.97
  -3   1  -8    6.17    1.21
  -3   1  -8    5.27    0.74
  -3   1  -8    5.35    1.51
   3  -1   8    5.33    1.05
   3  -1   8    4.60    1.03
   3  -1   8    3.29    1.84
   3  -1   8    6.67    0.90
   3  -1   8    4.48    0.92
   3  -1   8    5.33    0.83
  -4   1  -8   10.23    1.04
  -4   1  -8   11.82    2.22
  -4   1  -8   12.14    1.51
  -4   1  -8   10.34    1.44
   4  -1   8   10.35    1.10
   4  -1   8   12.93    1.57
   4  -1   8   10.97    1.23
   4  -1   8    9.57    1.29
  -5   1  -8   79.08    4.18
  -5   1  -8   76.34    5.66
  -5   1  -8   73.15    5.13
   5  -1   8   74.65    4.89
   5  -1   8   73.99    4.28
   5  -1   8   67.61    4.10
  -6   1  -8    4.27    1.71
  -6   1  -8    1.38    1.25
  -6   1  -8    0.50    0.55
   6  -1   8    1.37    0.66
   6  -1   8    3.92    0.93
   6  -1   8    2.46    1.04
   6  -1   8    2.48    1.19
  -7   1  -8    0.35    1.71
  -7   1  -8    0.04    1.25
   7  -1   8   -0.91    1.09
   7  -1   8    0.24    0.98
   7  -1   8    0.35    0.90
   9   0  -8    1.55    1.04
   9   0  -8    1.44    0.75
   9   0  -8   -0.18    0.97
   9   0  -8   -1.13    1.00
   9   0  -8   -0.14    1.36
  -9   0   8   -0.31    1.03
   8   0  -8    2.60    0.59
   8   0  -8   -0.84    1.06
   8   0  -8    3.17    1.44
   8   0  -8    0.97    0.94
   8   0  -8    1.47    1.05
  -8   0   8    0.96    0.96
   7   0  -8    7.10    0.82
   7   0  -8    5.09    0.84
   7   0  -8    6.33    1.20
   7   0  -8    7.98    1.40
   7   0  -8    5.41    1.30
  -7   0   8    4.64    1.19
   6   0  -8    1.03    0.72
   6   0  -8    0.89    0.45
   6   0  -8    0.83    1.01
   6   0  -8    0.74    0.88
   6   0  -8    1.70    0.50
   6   0  -8    1.06    0.86
   6   0  -8    0.28    1.07
  -6   0   8    0.22    0.80
  -6   0   8    0.07    0.81
   5   0  -8    7.90    0.59
   5   0  -8    8.22    1.19
   5   0  -8    7.32    0.61
   5   0  -8    6.47    1.35
   5   0  -8    6.44    0.95
   5   0  -8    8.40    1.26
   5   0  -8    6.77    0.91
  -5   0   8    9.51    1.21
  -5   0   8    8.06    1.19
  -5   0   8    7.69    1.04
  -5   0   8    8.01    1.12
   4   0  -8    1.09    1.02
   4   0  -8   -0.08    0.57
   4   0  -8    0.94    0.64
   4   0  -8    1.44    1.19
   4   0  -8    0.85    0.77
   4   0  -8    0.28    0.64
   4   0  -8    0.46    0.50
  -4   0   8    1.60    0.73
  -4   0   8    1.33    0.70
  -4   0   8    0.92    0.70
  -4   0   8    1.50    0.69
   3   0  -8   52.09    3.04
   3   0  -8   50.08    3.00
   3   0  -8   53.47    3.14
   3   0  -8   53.33    3.12
   3   0  -8   52.78    3.36
   3   0  -8   55.86    3.17
  -3   0   8   54.70    2.93
  -3   0   8   50.26    3.07
  -3   0   8   52.75    3.18
  -3   0   8   50.00    3.24
  -3   0   8   53.59    3.12
   2   0  -8  134.83    7.20
   2   0  -8  133.28    7.12
   2   0  -8  131.22    7.02
   2   0  -8  140.07    7.47
   2   0  -8  140.06    7.10
   2   0  -8  139.40    7.24
  -2   0   8  134.72    7.19
  -2   0   8  134.51    7.21
  -2   0   8  132.58    7.41
  -2   0   8  134.42    7.24
  -2   0   8  134.88    6.90
  -2   0   8  134.19    7.03
   1   0  -8    7.49    1.00
   1   0  -8    9.15    0.80
   1   0  -8    6.90    0.70
   1   0  -8    6.87    0.73
   1   0  -8   11.25    1.63
   1   0  -8    7.63    0.69
   1   0  -8    6.76    1.01
   1   0  -8    6.94    0.85
  -1   0   8    7.93    0.76
  -1   0   8    7.83    0.88
  -1   0   8    8.81    1.06
  -1   0   8    7.40    0.91
  -1   0   8    8.75    0.76
   0   0  -8   44.49    2.68
   0   0  -8   41.19    2.51
   0   0  -8   42.16    2.55
   0   0  -8   47.44    3.32
   0   0  -8   43.86    2.46
   0   0  -8   44.61    2.52
   0   0  -8   44.23    2.61
   0   0   8   40.17    2.95
   0   0   8   45.45    2.74
   0   0   8   42.32    2.52
   0   0   8   43.47    2.56
   0   0   8   43.23    2.51
   0   0   8   44.97    2.61
  -1   0  -8    0.23    0.54
  -1   0  -8   -0.07    0.44
  -1   0  -8   -0.36    0.31
  -1   0  -8   -0.48    0.52
  -1   0  -8   -0.04    1.04
  -1   0  -8   -0.10    0.24
  -1   0  -8   -0.56    0.50
   1   0   8    0.15    0.64
   1   0   8    0.22    0.55
   1   0   8   -0.17    0.44
   1   0   8    0.04    0.46
   1   0   8    0.35    0.92
   1   0   8    0.19    0.44
  -2   0  -8    1.72    1.12
  -2   0  -8    1.71    0.68
  -2   0  -8    1.95    0.24
  -2   0  -8    1.77    0.65
  -2   0  -8    2.06    0.65
  -2   0  -8    1.62    0.75
   2   0   8    1.16    1.11
   2   0   8    1.95    0.82
   2   0   8    2.00    0.68
   2   0   8    1.95    0.55
   2   0   8    2.21    0.82
   2   0   8    1.46    0.65
  -3   0  -8    4.72    0.78
  -3   0  -8    3.09    1.40
  -3   0  -8    3.92    1.04
  -3   0  -8    4.99    0.82
   3   0   8    5.09    0.73
   3   0   8    4.96    0.92
   3   0   8    1.91    1.32
   3   0   8    4.13    1.02
   3   0   8    3.43    0.94
   3   0   8    5.00    0.91
  -4   0  -8    7.64    1.03
  -4   0  -8    9.74    0.99
  -4   0  -8    9.25    1.86
  -4   0  -8    8.68    1.40
   4   0   8    7.81    1.19
   4   0   8    8.25    0.91
   4   0   8    7.69    1.18
   4   0   8    8.85    1.38
  -5   0  -8    6.71    0.80
  -5   0  -8   11.07    2.03
  -5   0  -8    4.22    2.13
   5   0   8   10.23    1.90
   5   0   8    8.71    0.90
   5   0   8    8.42    1.35
  -6   0  -8    0.36    1.12
  -6   0  -8    0.23    1.35
   6   0   8   -0.92    0.98
   6   0   8    0.58    0.93
   6   0   8    1.67    0.99
   6   0   8    0.43    0.62
  -7   0  -8    2.44    1.70
  -7   0  -8    1.46    1.35
   7   0   8    1.66    1.28
   7   0   8    2.49    1.11
   7   0   8    3.48    1.17
   9  -1  -8    0.20    0.98
   9  -1  -8    0.54    0.94
   9  -1  -8   -0.21    0.84
   9  -1  -8   -1.56    1.36
   9  -1  -8    0.68    0.81
   9  -1  -8    0.67    0.99
  -9   1   8    1.70    1.08
   8  -1  -8    1.38    1.03
   8  -1  -8   -0.55    0.81
   8  -1  -8   -0.43    1.27
   8  -1  -8    0.77    0.69
  -8   1   8   -0.09    0.88
   7  -1  -8    5.11    1.56
   7  -1  -8    3.86    1.13
   7  -1  -8    3.70    0.76
   7  -1  -8    1.48    1.27
   7  -1  -8    3.78    0.77
   7  -1  -8    3.15    1.23
  -7   1   8    3.44    1.10
  -7   1   8    3.22    1.56
   6  -1  -8    0.21    1.08
   6  -1  -8   -0.27    0.78
   6  -1  -8   -1.30    1.13
   6  -1  -8    0.76    0.51
   6  -1  -8    1.57    1.11
   6  -1  -8    0.99    0.59
   6  -1  -8    0.80    0.54
  -6   1   8    0.08    0.76
  -6   1   8   -1.42    0.72
   5  -1  -8    5.55    1.10
   5  -1  -8    6.25    1.01
   5  -1  -8    4.45    0.73
   5  -1  -8    6.30    1.09
   5  -1  -8    4.72    0.92
   5  -1  -8    5.31    0.64
   5  -1  -8    4.39    0.66
  -5   1   8    4.97    1.00
  -5   1   8    8.01    1.26
  -5   1   8    5.49    1.04
   4  -1  -8   19.96    1.69
   4  -1  -8   21.12    1.59
   4  -1  -8   20.84    1.64
   4  -1  -8   20.50    1.65
   4  -1  -8   20.53    1.35
   4  -1  -8   20.62    2.12
   4  -1  -8   20.51    1.27
   4  -1  -8   23.31    1.51
   4  -1  -8   20.49    1.25
  -4   1   8   22.52    1.88
  -4   1   8   22.42    1.66
  -4   1   8   21.64    1.67
  -4   1   8   20.94    1.58
   3  -1  -8   10.39    1.08
   3  -1  -8    8.88    1.60
   3  -1  -8    9.76    0.92
   3  -1  -8   10.27    0.73
   3  -1  -8   10.81    0.74
   3  -1  -8   11.48    1.20
   3  -1  -8    9.95    1.05
  -3   1   8    8.95    1.05
  -3   1   8   12.97    1.08
  -3   1   8   10.81    0.70
  -3   1   8   10.01    1.03
  -3   1   8    9.90    1.34
  -3   1   8    9.23    1.05
   2  -1  -8   10.80    0.79
   2  -1  -8    9.05    0.66
   2  -1  -8   11.46    1.07
   2  -1  -8   12.12    0.99
   2  -1  -8   13.78    1.72
   2  -1  -8   10.49    1.03
  -2   1   8   10.62    1.06
  -2   1   8   11.36    1.14
  -2   1   8    9.78    1.00
  -2   1   8    9.27    1.45
  -2   1   8    9.61    0.69
  -2   1   8   10.34    0.78
  -2   1   8    9.67    0.95
   1  -1  -8  219.10   11.60
   1  -1  -8  249.95   12.25
   1  -1  -8  216.95   11.60
   1  -1  -8  224.98   11.50
   1  -1  -8  216.44   11.61
   1  -1  -8  214.79   11.51
  -1   1   8  216.95   11.90
  -1   1   8  234.60   11.64
  -1   1   8  222.15   11.62
  -1   1   8  235.73   11.74
  -1   1   8  217.41   11.51
  -1   1   8  229.29   11.64
  -1   1   8  205.26   11.54
   0  -1  -8   80.34    4.29
   0  -1  -8   72.82    4.12
   0  -1  -8   73.82    4.29
   0  -1  -8   75.68    4.25
   0  -1  -8   83.26    4.88
   0  -1  -8   73.76    4.28
   0   1   8   77.37    4.27
   0   1   8   78.76    4.34
   0   1   8   74.90    4.13
   0   1   8   76.93    4.52
   0   1   8   84.72    4.15
   0   1   8   76.67    4.69
   0   1   8   76.49    4.21
  -1  -1  -8    6.56    0.93
  -1  -1  -8    5.55    0.82
  -1  -1  -8    6.46    0.94
  -1  -1  -8    6.65    0.87
  -1  -1  -8    7.62    1.58
  -1  -1  -8    5.39    0.90
   1   1   8    5.49    0.75
   1   1   8    6.09    0.88
   1   1   8    7.12    1.01
   1   1   8    6.23    0.62
   1   1   8    5.34    0.69
   1   1   8    7.30    1.38
   1   1   8    6.62    1.02
  -2  -1  -8   19.15    1.41
  -2  -1  -8   19.13    2.30
  -2  -1  -8   21.29    1.56
  -2  -1  -8   19.80    1.20
  -2  -1  -8   20.40    1.69
  -2  -1  -8   22.10    1.63
   2   1   8   18.92    1.32
   2   1   8   17.37    1.59
   2   1   8   19.72    1.20
   2   1   8   21.44    1.62
   2   1   8   18.19    2.09
   2   1   8   22.94    1.74
  -3  -1  -8   -1.20    0.81
  -3  -1  -8   -0.03    0.49
  -3  -1  -8    0.53    0.59
  -3  -1  -8    0.09    0.24
   3   1   8    1.55    0.81
   3   1   8   -0.65    0.55
   3   1   8   -2.05    1.30
   3   1   8   -0.07    0.78
   3   1   8    0.17    0.36
   3   1   8    0.03    0.43
  -4  -1  -8    9.75    0.90
  -4  -1  -8    8.59    1.88
  -4  -1  -8   14.50    1.64
   4   1   8   12.55    1.56
   4   1   8   11.37    1.52
   4   1   8    8.47    1.20
  -5  -1  -8   16.45    2.57
  -5  -1  -8   17.23    1.97
   5   1   8   17.87    1.68
   5   1   8   18.12    1.97
   5   1   8   15.30    2.50
   5   1   8   18.30    1.05
  -6  -1  -8    1.28    1.41
  -6  -1  -8    1.20    1.19
   6   1   8    2.66    1.23
   6   1   8    1.29    1.07
   6   1   8    2.11    0.99
  -7  -1  -8    3.74    1.74
  -7  -1  -8    3.43    1.54
   7   1   8    4.09    1.21
   7   1   8    2.79    1.34
   7   1   8    1.59    1.09
   9  -2  -8    1.44    1.12
   9  -2  -8    4.09    1.15
   9  -2  -8    1.54    0.89
   9  -2  -8    1.71    1.39
   9  -2  -8    1.06    1.05
   9  -2  -8   -0.62    1.50
   8  -2  -8    3.25    0.83
   8  -2  -8    3.21    0.94
   8  -2  -8    2.68    0.83
   8  -2  -8    2.55    1.13
   8  -2  -8    4.08    1.04
  -8   2   8    1.76    1.45
   7  -2  -8   22.44    2.08
   7  -2  -8   24.17    2.19
   7  -2  -8   23.31    1.71
   7  -2  -8   22.06    1.65
   7  -2  -8   22.20    2.35
   7  -2  -8   25.71    1.68
  -7   2   8   21.56    1.98
  -7   2   8   20.29    2.05
   6  -2  -8   53.74    3.93
   6  -2  -8   57.94    3.59
   6  -2  -8   59.93    3.39
   6  -2  -8   61.56    3.42
   6  -2  -8   59.27    3.33
   6  -2  -8   61.95    3.40
   6  -2  -8   62.70    3.76
   6  -2  -8   58.71    3.58
  -6   2   8   59.67    3.71
  -6   2   8   59.09    3.63
   5  -2  -8    5.94    1.12
   5  -2  -8    5.17    0.89
   5  -2  -8    4.37    1.42
   5  -2  -8    3.00    1.05
   5  -2  -8    4.56    0.72
   5  -2  -8    4.06    0.57
   5  -2  -8    4.48    0.73
  -5   2   8    5.18    1.05
  -5   2   8    2.96    0.95
  -5   2   8    3.67    0.86
  -5   2   8    4.20    1.44
   4  -2  -8    6.19    0.57
   4  -2  -8    6.38    0.85
   4  -2  -8    8.08    1.13
   4  -2  -8    8.71    1.08
   4  -2  -8    7.27    0.54
   4  -2  -8    7.09    0.81
   4  -2  -8    7.06    1.03
   4  -2  -8    8.42    1.21
   4  -2  -8   10.40    1.71
  -4   2   8    7.36    0.94
  -4   2   8    7.96    1.41
  -4   2   8    7.50    1.03
  -4   2   8    9.01    0.71
  -4   2   8    6.57    0.98
   3  -2  -8   56.87    3.28
   3  -2  -8   54.65    3.03
   3  -2  -8   54.02    3.16
   3  -2  -8   58.04    3.76
   3  -2  -8   50.82    3.34
  -3   2   8   57.18    3.19
  -3   2   8   53.80    3.01
  -3   2   8   53.66    3.23
  -3   2   8   51.58    3.43
  -3   2   8   53.04    3.15
   2  -2  -8   13.28    1.18
   2  -2  -8   11.75    1.15
   2  -2  -8   14.04    1.78
   2  -2  -8   11.25    1.08
   2  -2  -8   13.01    1.04
   2  -2  -8   13.65    1.17
  -2   2   8   12.30    1.52
  -2   2   8   12.92    1.12
  -2   2   8   14.33    1.15
  -2   2   8   12.79    1.12
  -2   2   8   13.00    1.20
  -2   2   8   12.91    1.05
   1  -2  -8    8.22    0.81
   1  -2  -8    7.46    0.88
   1  -2  -8    7.03    0.81
   1  -2  -8    7.63    1.00
   1  -2  -8    8.41    0.97
   1  -2  -8    8.96    1.59
  -1   2   8    8.73    0.96
  -1   2   8    6.92    0.99
  -1   2   8    6.53    0.54
  -1   2   8    8.90    1.12
  -1   2   8    8.18    0.82
  -1   2   8    7.95    1.37
  -1   2   8    7.52    0.83
   0  -2  -8   28.86    2.09
   0  -2  -8   33.24    2.15
   0  -2  -8   34.25    2.02
   0  -2  -8   36.28    2.89
   0  -2  -8   34.97    2.19
   0  -2  -8   33.18    2.06
   0   2   8   32.25    1.90
   0   2   8   30.54    1.99
   0   2   8   31.48    1.98
   0   2   8   35.55    2.72
   0   2   8   32.57    2.14
   0   2   8   35.85    2.21
   0   2   8   34.80    2.20
  -1  -2  -8    6.43    0.95
  -1  -2  -8    7.91    1.05
  -1  -2  -8    9.75    1.74
  -1  -2  -8    6.69    1.03
  -1  -2  -8    6.52    0.72
  -1  -2  -8    6.64    0.93
   1   2   8    8.43    1.48
   1   2   8    6.80    1.05
   1   2   8    7.82    1.02
   1   2   8    6.15    0.74
   1   2   8    6.76    0.99
   1   2   8    6.74    0.75
   1   2   8    7.82    0.79
  -2  -2  -8   10.89    0.99
  -2  -2  -8   10.91    1.33
  -2  -2  -8   10.31    0.86
  -2  -2  -8   10.37    1.22
  -2  -2  -8   10.96    1.18
  -2  -2  -8   11.77    1.91
   2   2   8   10.58    1.85
   2   2   8    8.64    1.28
   2   2   8   11.44    1.38
   2   2   8    7.32    1.00
   2   2   8   11.07    1.21
   2   2   8   10.06    0.84
   2   2   8    9.24    0.84
  -3  -2  -8   24.53    1.48
  -3  -2  -8   23.29    2.69
  -3  -2  -8   22.34    2.10
  -3  -2  -8   22.63    1.48
   3   2   8   24.65    1.51
   3   2   8   27.24    1.83
   3   2   8   21.69    2.18
  -4  -2  -8   -1.69    1.30
  -4  -2  -8    0.35    1.02
  -4  -2  -8    0.12    0.17
   4   2   8    0.00    0.83
   4   2   8   -0.50    0.36
   4   2   8    0.92    0.89
   4   2   8    0.23    0.70
  -5  -2  -8   29.71    2.64
  -5  -2  -8   28.69    3.12
   5   2   8   31.30    2.59
   5   2   8   30.65    1.83
   5   2   8   33.82    2.41
   5   2   8   36.16    2.85
  -6  -2  -8    1.59    1.44
  -6  -2  -8    1.61    1.29
   6   2   8    2.21    0.53
   6   2   8    0.98    1.07
   6   2   8    2.24    1.21
   6   2   8    1.48    0.96
  -7  -2  -8    0.69    1.38
  -7  -2  -8   -0.61    1.38
   7   2   8   -0.38    1.19
   7   2   8    0.64    1.09
   9  -3  -8    0.14    0.95
   9  -3  -8    0.55    1.11
   9  -3  -8    2.06    0.87
   9  -3  -8    0.52    0.81
   9  -3  -8    1.21    1.55
   9  -3  -8    0.46    0.90
   9  -3  -8   -0.29    0.96
   8  -3  -8   -0.01    1.40
   8  -3  -8   -0.25    0.89
   8  -3  -8   -0.19    0.98
   8  -3  -8    0.39    0.70
   8  -3  -8   -0.84    0.77
  -8   3   8    0.32    0.75
  -8   3   8   -1.31    0.91
   7  -3  -8    0.84    1.38
   7  -3  -8    3.36    1.22
   7  -3  -8    1.64    0.98
   7  -3  -8    1.04    0.80
   7  -3  -8    0.53    1.44
  -7   3   8    2.76    1.15
  -7   3   8    1.37    0.76
   6  -3  -8   14.64    1.13
   6  -3  -8   13.13    1.46
   6  -3  -8   14.87    1.29
   6  -3  -8   14.05    1.14
   6  -3  -8   17.53    1.77
   6  -3  -8   11.50    1.37
  -6   3   8   14.74    1.49
  -6   3   8   12.85    1.44
  -6   3   8   12.35    1.45
   5  -3  -8   70.22    4.03
   5  -3  -8   73.35    4.10
   5  -3  -8   66.16    4.07
   5  -3  -8   75.05    4.35
   5  -3  -8   72.11    3.80
  -5   3   8   74.23    4.23
  -5   3   8   77.93    4.81
  -5   3   8   68.12    4.33
   4  -3  -8  228.51   11.58
   4  -3  -8  219.85   11.55
   4  -3  -8  206.47   12.12
   4  -3  -8  229.27   11.75
   4  -3  -8  207.16   11.68
  -4   3   8  228.99   11.51
  -4   3   8  217.88   11.54
  -4   3   8  218.29   11.72
  -4   3   8  214.21   11.66
  -4   3   8  249.32   12.06
   3  -3  -8   12.05    1.96
   3  -3  -8    7.61    0.86
   3  -3  -8    7.78    1.12
   3  -3  -8    6.41    0.96
   3  -3  -8    7.26    0.93
   3  -3  -8    8.93    1.21
   3  -3  -8    7.67    1.03
  -3   3   8    6.93    1.03
  -3   3   8    7.32    0.98
  -3   3   8    8.00    0.93
  -3   3   8    6.92    0.84
  -3   3   8    9.95    1.48
   2  -3  -8    7.53    0.99
   2  -3  -8    9.50    0.95
   2  -3  -8    9.97    1.14
   2  -3  -8   11.51    1.49
   2  -3  -8   11.02    1.85
   2  -3  -8   10.06    1.14
   2  -3  -8    7.84    0.95
  -2   3   8    9.03    1.07
  -2   3   8    7.53    1.36
  -2   3   8    9.03    1.00
  -2   3   8    8.37    0.95
  -2   3   8    8.75    0.92
   1  -3  -8   25.82    1.74
   1  -3  -8   24.93    1.72
   1  -3  -8   24.87    1.82
   1  -3  -8   27.87    2.59
   1  -3  -8   23.78    1.72
   1  -3  -8   26.51    1.81
  -1   3   8   24.73    2.28
  -1   3   8   26.75    1.88
  -1   3   8   26.30    1.42
  -1   3   8   27.66    1.80
  -1   3   8   27.38    1.77
  -1   3   8   25.45    1.81
  -1   3   8   26.36    1.44
   0  -3  -8   22.05    1.77
   0  -3  -8   25.36    2.46
   0  -3  -8   23.67    1.63
   0  -3  -8   27.89    1.75
   0  -3  -8   28.66    1.77
   0  -3  -8   22.39    1.63
   0  -3  -8   24.76    1.84
   0   3   8   26.93    1.51
   0   3   8   25.83    1.87
   0   3   8   24.70    1.79
   0   3   8   21.74    2.30
   0   3   8   26.01    1.96
  -1  -3  -8   11.42    1.02
  -1  -3  -8   10.59    1.08
  -1  -3  -8   11.16    1.29
  -1  -3  -8    8.68    1.03
  -1  -3  -8    9.21    0.91
  -1  -3  -8    7.77    1.08
   1   3   8   13.62    1.90
   1   3   8   10.63    1.20
   1   3   8   13.49    1.08
   1   3   8   11.10    1.36
   1   3   8    7.78    1.17
  -2  -3  -8   -0.96    1.55
  -2  -3  -8    0.36    0.47
  -2  -3  -8   -0.94    0.84
  -2  -3  -8    0.58    0.71
  -2  -3  -8    0.33    0.52
  -2  -3  -8    0.35    0.45
   2   3   8   -0.72    1.78
   2   3   8    0.03    0.76
   2   3   8   -0.22    0.49
  -3  -3  -8    0.60    1.01
  -3  -3  -8    0.49    0.47
   3   3   8    0.04    0.50
   3   3   8    0.49    0.87
   3   3   8    1.43    1.01
  -4  -3  -8   44.49    3.42
  -4  -3  -8   48.11    3.89
   4   3   8   55.64    3.45
   4   3   8   49.06    2.86
  -5  -3  -8    0.54    0.90
  -5  -3  -8    0.23    0.25
  -5  -3  -8    0.11    1.35
   5   3   8    1.45    1.11
   5   3   8    1.88    0.92
   5   3   8    0.34    0.78
   5   3   8    2.04    1.12
  -6  -3  -8   -0.15    1.37
  -6  -3  -8    0.61    1.30
  -6  -3  -8    0.54    0.51
   6   3   8   -0.21    1.20
   6   3   8    0.73    0.90
   6   3   8   -0.39    1.05
  -7  -3  -8    6.84    1.75
   7   3   8    4.39    1.61
   9  -4  -8    1.78    0.85
   9  -4  -8    0.35    0.96
   9  -4  -8   -1.14    0.77
   9  -4  -8   -1.30    1.55
   9  -4  -8    2.61    0.92
   9  -4  -8    0.58    1.29
   9  -4  -8    2.54    1.26
   8  -4  -8    1.07    0.82
   8  -4  -8   -0.35    0.97
   8  -4  -8    0.23    0.88
   8  -4  -8    0.53    0.73
   8  -4  -8    0.20    1.29
   8  -4  -8    1.41    1.62
  -8   4   8   -0.30    0.87
   7  -4  -8    0.35    1.09
   7  -4  -8   -0.56    0.58
   7  -4  -8    0.47    0.59
   7  -4  -8    0.51    0.85
   7  -4  -8   -0.04    2.48
  -7   4   8    1.88    0.85
  -7   4   8    0.13    0.61
  -7   4   8    2.93    1.71
   6  -4  -8    9.58    0.89
   6  -4  -8    9.67    1.16
   6  -4  -8    8.20    1.25
   6  -4  -8    7.91    1.06
  -6   4   8    9.36    1.10
  -6   4   8    6.29    1.27
   5  -4  -8   15.76    1.51
   5  -4  -8   16.04    0.86
   5  -4  -8   15.44    1.34
   5  -4  -8   13.94    1.72
  -5   4   8   10.09    1.63
  -5   4   8   15.60    1.30
  -5   4   8   14.21    1.61
  -5   4   8   12.73    1.43
   4  -4  -8  125.96    6.74
   4  -4  -8  121.86    6.41
   4  -4  -8   98.65    8.17
   4  -4  -8  125.87    6.62
  -4   4   8  122.00    6.61
  -4   4   8  123.43    6.51
  -4   4   8  121.01    6.40
  -4   4   8  119.84    6.67
   3  -4  -8   14.09    1.19
   3  -4  -8   17.75    2.47
   3  -4  -8   11.80    1.43
   3  -4  -8   16.00    1.41
   3  -4  -8   16.31    1.56
  -3   4   8   13.12    1.25
  -3   4   8   15.10    1.18
  -3   4   8   14.57    1.46
  -3   4   8   14.81    1.28
   2  -4  -8   13.44    2.36
   2  -4  -8   12.48    1.32
   2  -4  -8   12.49    1.27
   2  -4  -8   14.25    1.31
   2  -4  -8   13.95    1.42
   2  -4  -8   14.46    1.37
   2  -4  -8   14.31    1.14
  -2   4   8   12.28    1.14
  -2   4   8   17.71    1.44
  -2   4   8   14.39    1.40
  -2   4   8   15.33    1.25
   1  -4  -8   -0.69    0.44
   1  -4  -8   -0.63    0.52
   1  -4  -8   -0.99    0.59
   1  -4  -8   -0.70    0.64
   1  -4  -8   -0.74    0.54
   1  -4  -8    0.47    1.43
   1  -4  -8    0.87    0.72
  -1   4   8   -0.86    0.54
  -1   4   8   -0.55    0.69
  -1   4   8    0.96    0.35
  -1   4   8   -0.99    0.65
  -1   4   8    0.35    0.55
  -1   4   8   -0.02    1.34
   0  -4  -8    2.15    0.89
   0  -4  -8    3.27    0.77
   0  -4  -8    4.22    0.97
   0  -4  -8    3.52    0.71
   0   4   8    3.21    0.62
   0   4   8    4.73    0.87
   0   4   8    5.29    0.88
   0   4   8    4.96    1.08
   0   4   8    3.52    0.96
  -1  -4  -8   36.14    2.53
  -1  -4  -8   39.57    3.30
  -1  -4  -8   29.65    2.14
  -1  -4  -8   29.10    2.01
  -1  -4  -8   30.82    2.01
   1   4   8   31.57    2.09
   1   4   8   29.50    2.03
   1   4   8   30.37    2.36
   1   4   8   33.35    2.27
  -2  -4  -8    2.00    1.00
  -2  -4  -8    1.53    0.56
  -2  -4  -8    3.26    3.28
  -2  -4  -8    0.54    0.37
  -2  -4  -8    1.42    0.68
   2   4   8    0.76    0.64
   2   4   8    1.01    0.93
   2   4   8    1.71    0.89
   2   4   8    1.01    0.64
  -3  -4  -8   14.23    2.28
  -3  -4  -8   13.18    1.18
  -3  -4  -8   14.19    2.85
   3   4   8   14.13    1.60
   3   4   8   11.52    1.24
  -4  -4  -8   -0.20    1.06
  -4  -4  -8   -0.26    0.29
  -4  -4  -8    0.16    1.32
   4   4   8   -0.01    0.94
   4   4   8    0.41    0.65
   4   4   8   -0.15    0.97
  -5  -4  -8    0.32    0.39
  -5  -4  -8   -0.33    1.14
   5   4   8    0.38    0.66
   5   4   8   -0.16    1.21
   5   4   8   -0.06    1.06
  -6  -4  -8    1.51    1.32
  -6  -4  -8    1.35    1.60
   6   4   8    1.73    1.20
   6   4   8    1.80    0.71
   6   4   8    0.21    0.93
   6   4   8   -0.02    1.84
   9  -5  -8    4.72    1.54
   9  -5  -8    6.02    1.06
   9  -5  -8    4.22    1.48
   9  -5  -8    4.31    1.31
   9  -5  -8    1.04    1.82
   8  -5  -8    0.93    1.86
   8  -5  -8    0.18    1.23
   8  -5  -8    1.83    0.80
   8  -5  -8   -0.26    1.63
   8  -5  -8    1.40    0.73
  -8   5   8    0.91    0.97
  -8   5   8   -0.46    1.02
   7  -5  -8    1.86    0.70
   7  -5  -8    2.65    1.09
   7  -5  -8    3.60    0.73
   7  -5  -8    3.19    1.31
   7  -5  -8    1.81    0.75
   7  -5  -8    1.40    1.68
  -7   5   8    3.98    1.10
  -7   5   8    4.70    1.34
   6  -5  -8    8.39    1.43
   6  -5  -8    9.98    1.61
   6  -5  -8    7.06    0.94
   6  -5  -8    4.12    1.88
  -6   5   8   11.22    1.39
  -6   5   8    7.89    1.32
   5  -5  -8   -1.04    0.83
   5  -5  -8   -0.71    0.45
   5  -5  -8   -1.17    1.60
  -5   5   8    0.22    0.27
  -5   5   8   -0.33    0.74
   4  -5  -8    4.28    1.20
   4  -5  -8    4.68    1.18
   4  -5  -8    1.50    1.78
  -4   5   8    2.90    0.94
  -4   5   8    5.16    0.89
  -4   5   8    4.35    0.59
  -4   5   8    4.05    0.99
   3  -5  -8    4.63    1.15
   3  -5  -8    3.40    1.02
   3  -5  -8    3.49    1.81
  -3   5   8    3.27    0.94
  -3   5   8    2.80    0.55
  -3   5   8    3.81    0.87
   2  -5  -8  292.71   13.24
   2  -5  -8  255.53   13.61
   2  -5  -8  266.97   13.51
   2  -5  -8  239.42   14.09
  -2   5   8  244.57   13.23
  -2   5   8  255.74   13.54
  -2   5   8  247.88   13.63
   1  -5  -8   38.25    3.20
   1  -5  -8   28.91    2.00
   1  -5  -8   32.76    2.26
   1  -5  -8   37.84    2.51
   1  -5  -8   32.72    2.21
  -1   5   8   31.60    2.43
  -1   5   8   28.93    1.98
  -1   5   8   35.59    2.11
   0  -5  -8   15.55    1.44
   0  -5  -8   17.36    1.34
   0  -5  -8   16.86    1.37
   0  -5  -8   16.25    1.72
   0  -5  -8   17.87    2.41
   0   5   8   14.75    1.47
   0   5   8   14.07    1.53
   0   5   8   13.84    1.25
   0   5   8   15.16    1.59
  -1  -5  -8    1.39    1.00
  -1  -5  -8    1.05    0.54
  -1  -5  -8    2.04    0.70
   1   5   8    0.26    0.72
   1   5   8    1.24    0.77
   1   5   8    0.63    0.62
   1   5   8    1.34    1.07
  -2  -5  -8   12.24    2.24
   2   5   8   10.41    1.14
   2   5   8   10.70    1.83
   2   5   8   14.33    1.60
  -3  -5  -8    8.88    2.01
  -3  -5  -8    6.96    1.51
   3   5   8   11.60    1.50
   3   5   8    7.83    1.11
   3   5   8    8.31    1.52
  -4  -5  -8   -0.21    1.12
  -4  -5  -8   -0.06    1.41
   4   5   8    0.54    0.96
   4   5   8   -0.09    1.04
   4   5   8    0.48    0.69
  -5  -5  -8    0.36    1.28
  -5  -5  -8    0.12    1.25
   5   5   8   -0.08    0.73
   5   5   8   -0.63    1.13
   5   5   8    0.94    1.11
   8  -6  -8   15.74    2.05
   8  -6  -8   21.67    1.65
   8  -6  -8   17.99    2.67
  -8   6   8   15.84    1.99
  -8   6   8   14.39    1.77
   7  -6  -8    0.00    1.08
   7  -6  -8   -0.79    0.56
   7  -6  -8    0.09    1.71
   7  -6  -8    1.44    1.41
  -7   6   8    0.88    0.95
  -7   6   8    2.43    1.07
   6  -6  -8    4.24    0.66
   6  -6  -8    4.02    0.65
   6  -6  -8    7.19    1.56
   6  -6  -8    1.61    1.87
   6  -6  -8    5.80    1.37
  -6   6   8    5.31    1.24
  -6   6   8    6.20    1.19
   5  -6  -8    5.76    1.32
   5  -6  -8    7.39    0.55
   5  -6  -8    9.00    1.59
  -5   6   8    8.19    1.33
  -5   6   8    8.75    1.34
   4  -6  -8   14.22    1.72
  -4   6   8   16.05    1.65
  -4   6   8   18.46    1.70
   3  -6  -8   13.38    3.44
   3  -6  -8   10.51    1.61
   3  -6  -8   15.90    0.88
   3  -6  -8   12.17    1.65
  -3   6   8   12.28    1.58
   2  -6  -8   37.27    2.56
   2  -6  -8   37.53    3.70
   2  -6  -8   42.22    2.24
   2  -6  -8   29.23    2.61
  -2   6   8   34.60    2.61
  -2   6   8   33.25    2.52
   1  -6  -8    3.21    1.16
   1  -6  -8    6.51    1.18
   1  -6  -8    4.17    1.91
  -1   6   8    3.96    1.09
  -1   6   8    4.17    0.90
  -1   6   8    3.30    0.64
   0  -6  -8    3.10    1.77
   0  -6  -8    0.97    0.65
   0  -6  -8    1.00    1.01
   0  -6  -8    1.67    0.86
   0   6   8    0.13    0.74
   0   6   8    1.45    0.97
  -1  -6  -8    2.23    1.10
  -1  -6  -8    4.79    1.81
  -1  -6  -8    3.40    0.81
   1   6   8    2.46    0.53
   1   6   8    4.21    1.08
   1   6   8    3.45    0.87
   1   6   8    2.10    1.07
  -2  -6  -8    0.70    0.30
  -2  -6  -8    1.84    1.14
  -2  -6  -8    2.96    1.97
   2   6   8    0.49    0.75
   2   6   8    0.31    0.74
   2   6   8    0.54    1.04
  -3  -6  -8   13.26    1.88
   3   6   8   11.64    1.72
   3   6   8   11.32    2.14
  -4  -6  -8    3.45    1.42
  -4  -6  -8   -0.96    1.26
   4   6   8   -0.18    0.76
   4   6   8    0.17    1.02
   4   6   8   -0.39    1.17
  -5  -6  -8    9.70    1.89
   5   6   8    6.63    1.21
   5   6   8    6.49    1.62
   7  -7  -8    1.03    3.01
   7  -7  -8    1.80    1.24
   7  -7  -8    3.84    1.77
  -7   7   8    0.65    0.96
  -7   7   8    2.63    1.71
   6  -7  -8   13.16    1.86
   6  -7  -8   17.46    2.11
  -6   7   8   15.51    1.71
  -6   7   8   12.29    1.59
   5  -7  -8   17.20    2.01
   5  -7  -8   13.30    1.85
  -5   7   8   15.26    1.72
   4  -7  -8   11.15    1.75
   4  -7  -8   14.28    1.79
  -4   7   8   14.31    1.62
  -4   7   8   12.13    1.58
   3  -7  -8    2.28    1.86
   3  -7  -8    3.79    1.23
   3  -7  -8    1.89    1.19
  -3   7   8    2.42    0.85
  -3   7   8    2.21    1.05
   2  -7  -8    5.70    2.16
   2  -7  -8    5.29    1.21
   2  -7  -8    3.94    1.30
  -2   7   8    4.87    1.15
   1  -7  -8    0.16    1.76
   1  -7  -8   -0.66    1.02
   1  -7  -8   -0.27    0.92
  -1   7   8   -0.51    0.26
  -1   7   8   -0.02    0.94
  -1   7   8    0.41    0.84
   0  -7  -8    0.01    1.08
   0  -7  -8   -0.46    1.74
   0  -7  -8    0.14    0.89
   0   7   8   -0.21    0.80
   0   7   8   -0.25    1.02
  -1  -7  -8    1.27    1.11
  -1  -7  -8    1.74    1.80
  -1  -7  -8    0.49    0.49
   1   7   8    0.09    0.80
   1   7   8    0.30    0.52
   1   7   8   -1.25    1.01
  -2  -7  -8    0.74    1.15
  -2  -7  -8    3.38    1.93
  -2  -7  -8    0.54    0.40
   2   7   8   -0.45    1.15
   2   7   8    1.95    0.97
   2   7   8    0.23    0.74
  -3  -7  -8   -0.97    1.57
  -3  -7  -8    2.40    1.35
   3   7   8    0.45    0.88
   3   7   8    1.89    1.38
   3   7   8    3.60    1.04
   6  -8  -8    0.54    2.02
   6  -8  -8    0.55    1.30
   6  -8  -8   -2.24    1.11
  -6   8   8    0.48    0.93
  -6   8   8    1.16    0.91
   5  -8  -8   10.18    1.96
  -5   8   8   14.73    1.75
  -5   8   8   11.31    1.51
   4  -8  -8   15.49    1.98
   4  -8  -8    9.43    1.85
  -4   8   8   11.71    1.43
  -4   8   8   10.30    1.49
   3  -8  -8   11.64    1.72
   3  -8  -8    8.98    1.80
  -3   8   8   10.76    1.65
  -3   8   8   10.17    1.54
   2  -8  -8   -0.99    1.08
   2  -8  -8    0.97    0.99
   2  -8  -8   -2.68    1.86
  -2   8   8   -0.03    0.91
  -2   8   8    0.08    0.90
   1  -8  -8    4.13    1.45
   1  -8  -8    3.48    2.23
  -1   8   8    2.29    1.07
  -1   8   8    3.15    1.14
   0  -8  -8    1.74    0.93
   0  -8  -8    6.13    2.16
   0  -8  -8    2.98    1.35
   0   8   8    1.97    0.99
   0   8   8    1.29    1.08
  -1  -8  -8    4.09    2.03
  -1  -8  -8    2.28    1.35
  -1  -8  -8    0.17    0.45
   1   8   8    1.61    1.25
   1   8   8    1.13    0.94
  -2  -8  -8    0.93    1.26
  -2  -8  -8   -1.68    1.69
   2   8   8    0.72    0.94
   2   8   8    0.00    0.40
   4  -9  -8    0.74    2.09
  -4   9   8   -0.09    0.83
  -4   9   8   -0.47    0.92
   3  -9  -8   12.15    1.79
   3  -9  -8    2.30    2.60
  -3   9   8    6.97    1.34
  -3   9   8   12.38    1.69
   2  -9  -8    1.67    1.16
   2  -9  -8   -2.89    2.17
  -2   9   8    1.44    1.12
  -2   9   8    0.53    1.01
   1  -9  -8   -1.71    1.95
   1  -9  -8   -0.42    0.97
   1  -9  -8    0.71    1.37
  -1   9   8   -0.28    0.92
  -1   9   8   -0.53    0.93
   0  -9  -8    0.00    2.09
   0  -9  -8    2.16    0.68
   0  -9  -8    3.30    1.41
   0   9   8   -0.37    1.04
   0   9   8    0.98    1.00
   2   9  -9    1.65    1.27
   2   9  -9    1.51    1.45
   2   9  -9    0.58    0.51
  -2  -9   9    0.83    1.17
  -2  -9   9    1.19    0.59
  -2  -9   9    1.79    0.88
  -2  -9   9   -0.64    1.32
   1   9  -9    4.77    1.49
   1   9  -9    1.49    1.20
  -1  -9   9    2.53    1.41
  -1  -9   9    4.37    1.02
  -1  -9   9    1.82    0.59
  -1  -9   9    1.84    1.38
   0   9  -9    0.31    1.08
   0  -9   9    1.57    1.45
   0  -9   9    2.96    1.20
   0  -9   9    1.04    1.27
  -1   9  -9   -0.58    0.86
   1  -9   9    1.02    0.72
   1  -9   9   -0.80    1.27
   1  -9   9   -0.35    1.35
  -2   9  -9    0.71    0.87
  -2   9  -9    1.87    1.53
   2  -9   9    0.91    0.68
   2  -9   9   -0.65    1.21
   2  -9   9   -1.69    1.30
   4   8  -9    2.39    1.15
   4   8  -9    1.85    1.28
   4   8  -9    1.51    1.05
  -4  -8   9    0.77    0.89
  -4  -8   9    0.03    1.12
   3   8  -9    5.08    1.55
   3   8  -9    4.32    1.16
   3   8  -9    4.65    1.25
  -3  -8   9    3.54    1.39
  -3  -8   9    5.16    1.15
  -3  -8   9    3.03    1.23
   2   8  -9    1.18    1.22
   2   8  -9    2.77    1.35
  -2  -8   9    0.43    1.15
  -2  -8   9    3.67    0.74
  -2  -8   9    2.59    0.89
  -2  -8   9    5.31    1.33
   1   8  -9    0.58    1.25
   1   8  -9   -0.27    0.29
   1   8  -9   -0.15    1.01
   1   8  -9    1.51    0.39
  -1  -8   9   -0.65    1.13
  -1  -8   9   -0.41    1.11
  -1  -8   9    0.49    0.83
  -1  -8   9    0.70    1.26
   0   8  -9    6.07    1.31
   0   8  -9    6.12    1.55
   0  -8   9    5.17    1.01
   0  -8   9    6.83    1.59
   0  -8   9    3.49    1.31
  -1   8  -9    1.47    1.32
  -1   8  -9    1.44    1.26
  -1   8  -9    0.93    0.89
   1  -8   9    1.08    0.76
   1  -8   9    1.24    1.15
   1  -8   9    2.28    1.34
  -2   8  -9    2.34    1.32
  -2   8  -9    0.36    0.81
  -2   8  -9   -0.20    1.34
   2  -8   9   -2.00    1.13
   2  -8   9   -0.27    0.97
   2  -8   9    1.33    0.73
  -3   8  -9    7.58    1.06
  -3   8  -9    8.63    2.02
  -3   8  -9    6.37    1.62
   3  -8   9    8.62    1.30
   3  -8   9    5.37    1.63
   3  -8   9    4.90    1.38
  -4   8  -9   15.60    2.21
  -4   8  -9   14.89    4.39
   4  -8   9   11.37    2.08
   4  -8   9   14.27    2.01
   5   7  -9    1.30    1.20
   5   7  -9   -0.68    1.52
   5   7  -9    5.12    1.52
  -5  -7   9    1.54    1.20
  -5  -7   9    2.00    1.10
   4   7  -9    2.77    1.11
   4   7  -9    0.65    1.25
   4   7  -9    1.55    1.01
  -4  -7   9    1.46    1.10
  -4  -7   9    1.71    0.94
  -4  -7   9    1.68    0.46
   3   7  -9    2.35    0.90
   3   7  -9    2.35    1.03
   3   7  -9    2.39    1.24
  -3  -7   9    3.47    1.06
  -3  -7   9    1.82    1.18
  -3  -7   9    2.53    0.97
   2   7  -9    3.86    1.31
   2   7  -9    4.08    0.90
   2   7  -9    4.05    1.22
  -2  -7   9    6.05    1.52
  -2  -7   9    3.92    1.40
  -2  -7   9    4.82    1.08
   1   7  -9   15.33    2.45
   1   7  -9   16.91    1.97
   1   7  -9   15.99    2.05
  -1  -7   9   15.46    1.66
  -1  -7   9   14.63    1.73
  -1  -7   9   17.01    2.07
   0   7  -9    6.61    1.23
   0   7  -9    8.36    2.08
   0   7  -9    8.26    1.59
   0  -7   9    7.25    1.35
   0  -7   9    8.97    1.59
   0  -7   9    6.54    1.15
  -1   7  -9    1.69    0.81
  -1   7  -9    0.96    1.29
  -1   7  -9    2.52    1.34
   1  -7   9    2.30    1.22
   1  -7   9    1.67    1.02
   1  -7   9    2.70    0.87
  -2   7  -9    0.17    0.95
  -2   7  -9   -0.56    1.44
  -2   7  -9   -2.32    1.08
   2  -7   9   -1.49    0.98
   2  -7   9    0.33    0.88
   2  -7   9    0.99    0.78
  -3   7  -9    3.11    0.71
  -3   7  -9    5.58    1.46
  -3   7  -9    4.16    1.90
   3  -7   9    2.03    1.07
   3  -7   9    3.33    0.97
   3  -7   9    3.97    1.36
   3  -7   9    2.99    0.76
  -4   7  -9    5.05    1.50
  -4   7  -9    4.83    1.94
   4  -7   9    6.41    1.44
   4  -7   9    2.85    1.39
   4  -7   9    4.57    1.14
  -5   7  -9    1.19    1.39
  -5   7  -9    4.18    3.34
   5  -7   9    0.54    1.10
   5  -7   9   -0.12    0.88
   6   6  -9    3.45    1.38
   6   6  -9    1.88    1.22
   6   6  -9    1.65    1.35
  -6  -6   9    0.65    1.05
   5   6  -9    3.14    1.13
   5   6  -9   -0.37    0.92
   5   6  -9   -0.09    1.19
  -5  -6   9    2.05    1.04
  -5  -6   9    2.49    1.21
   4   6  -9    3.68    1.27
   4   6  -9    3.58    1.63
   4   6  -9    3.71    1.28
   4   6  -9    7.34    1.24
  -4  -6   9    2.06    0.51
  -4  -6   9    5.30    1.18
  -4  -6   9    6.77    1.42
   3   6  -9   12.35    1.62
   3   6  -9   12.61    1.40
   3   6  -9   12.03    1.50
   3   6  -9   11.90    1.73
  -3  -6   9   11.00    1.56
  -3  -6   9   12.48    1.46
  -3  -6   9   10.53    1.68
   2   6  -9    3.46    0.97
   2   6  -9    3.36    1.26
   2   6  -9    2.85    0.83
   2   6  -9    3.41    0.78
   2   6  -9    1.98    1.05
   2   6  -9    2.81    0.95
  -2  -6   9    5.78    1.07
  -2  -6   9    3.46    1.47
  -2  -6   9    5.08    1.06
   1   6  -9    3.74    0.76
   1   6  -9    5.19    1.17
   1   6  -9    4.63    1.37
   1   6  -9    4.90    1.26
  -1  -6   9    7.81    1.76
  -1  -6   9    6.20    1.10
  -1  -6   9    9.33    2.32
  -1  -6   9    5.34    1.04
   0   6  -9   30.18    2.82
   0   6  -9   29.11    2.57
   0  -6   9   30.63    2.63
   0  -6   9   33.46    2.54
   0  -6   9   30.21    2.44
   0  -6   9   28.41    2.23
   0  -6   9   24.85    2.88
  -1   6  -9   29.36    2.02
  -1   6  -9   30.55    2.85
   1  -6   9   25.53    3.44
   1  -6   9   30.40    2.27
   1  -6   9   29.02    1.95
   1  -6   9   23.90    3.02
  -2   6  -9   -0.19    0.60
  -2   6  -9    0.50    1.34
  -2   6  -9   -1.64    1.05
   2  -6   9    0.81    0.49
   2  -6   9   -0.96    0.91
   2  -6   9    1.40    0.83
   2  -6   9    1.12    0.83
  -3   6  -9    2.85    1.25
  -3   6  -9    2.15    1.55
  -3   6  -9    1.74    0.53
   3  -6   9    1.10    0.96
   3  -6   9    3.41    0.60
   3  -6   9    2.18    1.14
   3  -6   9    4.25    1.15
  -4   6  -9    2.11    1.22
   4  -6   9    3.46    1.16
   4  -6   9    4.02    1.34
   4  -6   9    4.29    0.62
   4  -6   9    2.96    1.07
  -5   6  -9   12.15    2.58
  -5   6  -9   11.89    1.88
   5  -6   9    9.64    1.78
   5  -6   9   13.79    1.72
   5  -6   9    8.15    1.43
  -6   6  -9   12.77    1.96
  -6   6  -9   10.67    2.59
   6  -6   9    9.15    1.82
   7   5  -9    1.26    1.29
   7   5  -9    1.01    1.56
   6   5  -9   55.99    3.77
   6   5  -9   54.36    3.19
   6   5  -9   61.85    3.74
   6   5  -9   46.81    3.52
  -6  -5   9   56.83    3.85
   5   5  -9    1.37    1.12
   5   5  -9    2.42    1.07
   5   5  -9    2.17    1.21
  -5  -5   9    1.89    1.10
  -5  -5   9    2.84    1.07
   4   5  -9   12.71    1.41
   4   5  -9   10.77    1.58
   4   5  -9   11.28    1.08
   4   5  -9   12.08    1.70
  -4  -5   9   10.90    2.28
  -4  -5   9    7.99    2.25
   3   5  -9    8.04    1.10
   3   5  -9    9.53    1.41
   3   5  -9    8.27    0.94
   3   5  -9    9.22    1.87
   3   5  -9    9.83    1.17
   3   5  -9    9.07    1.54
  -3  -5   9    8.39    1.32
  -3  -5   9    7.37    1.43
   2   5  -9    2.34    0.91
   2   5  -9    2.18    1.16
   2   5  -9    3.12    0.77
   2   5  -9    3.84    0.73
   2   5  -9    2.97    0.99
   2   5  -9    4.50    1.08
  -2  -5   9    1.94    0.90
  -2  -5   9    6.05    1.30
  -2  -5   9    3.66    0.99
   1   5  -9    8.80    1.49
   1   5  -9    8.56    1.45
   1   5  -9    9.11    1.17
   1   5  -9    6.30    0.83
   1   5  -9    6.47    0.85
  -1  -5   9    7.08    1.45
  -1  -5   9    9.07    1.60
  -1  -5   9    7.35    1.00
  -1  -5   9    9.04    1.26
  -1  -5   9    7.87    1.20
   0   5  -9    0.60    0.42
   0   5  -9    0.07    1.15
   0   5  -9   -0.42    0.40
   0   5  -9   -0.14    0.68
   0   5  -9   -0.55    0.93
   0  -5   9    1.46    0.91
   0  -5   9    0.15    0.67
   0  -5   9    0.55    0.53
   0  -5   9   -0.80    1.20
   0  -5   9   -0.28    0.70
   0  -5   9    0.37    0.90
  -1   5  -9    2.03    1.43
  -1   5  -9    1.37    1.12
  -1   5  -9    2.00    0.74
   1  -5   9    3.36    0.98
   1  -5   9    3.13    0.63
   1  -5   9    0.53    0.94
   1  -5   9    2.13    0.87
   1  -5   9    3.18    0.92
  -2   5  -9    5.06    1.65
  -2   5  -9    5.67    0.85
  -2   5  -9    6.79    1.40
   2  -5   9    8.35    2.12
   2  -5   9    8.21    1.30
   2  -5   9    8.65    1.50
   2  -5   9    6.43    0.74
  -3   5  -9   17.75    3.57
  -3   5  -9   14.45    1.78
   3  -5   9   14.93    1.69
   3  -5   9   15.91    1.10
   3  -5   9   18.20    1.77
   3  -5   9   13.39    1.59
  -4   5  -9   47.14    4.02
  -4   5  -9   46.12    3.28
   4  -5   9   43.05    2.39
   4  -5   9   42.83    3.21
   4  -5   9   40.97    3.08
  -5   5  -9    1.58    1.70
  -5   5  -9    2.31    1.22
   5  -5   9    1.35    1.11
   5  -5   9    0.18    0.96
   5  -5   9    1.35    1.05
  -6   5  -9    3.82    1.19
  -6   5  -9    3.73    2.02
   6  -5   9    2.33    1.12
   6  -5   9    2.62    1.24
   6  -5   9    3.38    1.32
   8   4  -9    3.54    1.70
   8   4  -9    0.76    1.27
   8   4  -9    1.05    1.28
  -8  -4   9    2.50    1.25
   7   4  -9    0.55    1.13
   7   4  -9    0.78    0.87
   7   4  -9    0.15    0.94
   7   4  -9    2.09    1.18
  -7  -4   9    2.79    1.18
   6   4  -9   42.37    3.14
   6   4  -9   43.78    2.60
   6   4  -9   49.74    3.09
   6   4  -9   43.53    3.05
  -6  -4   9   45.44    3.26
   5   4  -9   34.45    2.56
   5   4  -9   37.47    2.61
   5   4  -9   34.48    2.41
  -5  -4   9   29.86    2.67
  -5  -4   9   33.90    2.63
   4   4  -9   46.12    3.02
   4   4  -9   51.41    3.36
   4   4  -9   50.43    2.89
  -4  -4   9   40.65    2.53
  -4  -4   9   39.69    3.04
  -4  -4   9   45.21    3.13
   3   4  -9   54.32    3.08
   3   4  -9   53.30    3.27
   3   4  -9   48.29    3.08
   3   4  -9   50.85    3.05
  -3  -4   9   46.81    3.12
  -3  -4   9   48.60    3.56
  -3  -4   9   53.24    2.89
  -3  -4   9   49.56    3.29
   2   4  -9    0.99    0.84
   2   4  -9    0.54    0.81
   2   4  -9    0.39    0.94
   2   4  -9    0.88    0.63
   2   4  -9    0.87    0.61
  -2  -4   9    1.62    0.91
  -2  -4   9    1.38    0.84
  -2  -4   9    2.77    0.62
  -2  -4   9    1.05    0.51
  -2  -4   9    1.20    0.84
  -2  -4   9    1.68    0.63
   1   4  -9    5.82    1.52
   1   4  -9    6.60    0.98
   1   4  -9    6.52    1.25
   1   4  -9    5.42    1.05
   1   4  -9    7.31    1.14
  -1  -4   9    5.99    0.81
  -1  -4   9    5.68    0.88
  -1  -4   9    5.24    1.16
  -1  -4   9    6.53    1.11
  -1  -4   9    5.99    0.94
   0   4  -9    1.15    1.08
   0   4  -9    0.40    0.41
   0   4  -9    0.13    0.87
   0   4  -9    0.42    0.95
   0   4  -9    1.21    0.80
   0   4  -9   -0.26    1.00
   0  -4   9    1.37    0.53
   0  -4   9    0.64    0.86
   0  -4   9    0.37    0.53
   0  -4   9    0.54    0.77
   0  -4   9    1.08    0.47
  -1   4  -9    2.00    0.80
  -1   4  -9    2.50    0.57
  -1   4  -9    2.48    0.66
  -1   4  -9    1.73    1.18
   1  -4   9    2.75    0.80
   1  -4   9    2.90    1.15
   1  -4   9    3.16    0.48
   1  -4   9    1.82    0.85
   1  -4   9    2.35    0.94
   1  -4   9    3.58    0.57
   1  -4   9    2.63    0.92
  -2   4  -9   12.14    1.61
  -2   4  -9   10.65    2.15
  -2   4  -9   11.81    0.94
   2  -4   9   11.63    1.26
   2  -4   9   12.82    0.91
   2  -4   9   12.52    1.33
   2  -4   9   10.40    1.40
   2  -4   9   12.39    1.49
  -3   4  -9   -0.72    0.89
  -3   4  -9   -0.87    1.26
   3  -4   9    0.43    0.87
   3  -4   9   -0.26    0.71
   3  -4   9    0.38    0.26
   3  -4   9    0.09    0.86
  -4   4  -9    4.54    1.20
  -4   4  -9    5.51    1.87
   4  -4   9    6.50    1.23
   4  -4   9    6.46    1.37
   4  -4   9    4.86    1.20
  -5   4  -9   -0.27    0.99
  -5   4  -9    0.09    1.52
   5  -4   9    0.34    0.36
   5  -4   9    0.11    0.88
   5  -4   9    0.75    0.43
   5  -4   9   -0.36    0.98
   5  -4   9    0.39    0.99
  -6   4  -9   11.39    1.58
  -6   4  -9    9.74    2.31
   6  -4   9    8.77    0.80
   6  -4   9    7.79    1.49
   6  -4   9    9.08    1.64
   6  -4   9   11.03    1.70
  -7   4  -9    5.20    1.20
  -7   4  -9    6.90    2.20
   7  -4   9    4.78    1.46
   7  -4   9    3.86    1.35
   7  -4   9    2.48    1.17
   8   3  -9   15.69    1.82
  -8  -3   9   16.46    2.10
   7   3  -9    4.53    1.17
   7   3  -9    3.92    1.30
   7   3  -9    2.76    1.24
   7   3  -9    3.16    0.71
  -7  -3   9    3.89    1.25
   6   3  -9    4.21    1.17
   6   3  -9    5.07    1.23
   6   3  -9    5.60    1.21
   6   3  -9    4.32    0.75
  -6  -3   9    3.57    0.31
  -6  -3   9    3.23    1.10
   5   3  -9   21.20    1.71
   5   3  -9   19.63    1.84
   5   3  -9   21.54    1.15
  -5  -3   9   14.65    1.82
  -5  -3   9   20.30    1.97
   4   3  -9   18.75    1.40
   4   3  -9   17.68    1.48
   4   3  -9   16.97    1.75
   4   3  -9   15.52    1.46
   4   3  -9   17.22    1.65
  -4  -3   9   18.67    1.78
  -4  -3   9   14.59    1.24
  -4  -3   9   18.21    1.68
   3   3  -9    6.25    1.04
   3   3  -9    4.33    0.90
   3   3  -9    6.69    1.07
   3   3  -9    5.06    0.96
   3   3  -9    6.90    1.22
  -3  -3   9    6.60    0.74
  -3  -3   9    5.22    1.10
  -3  -3   9    6.33    0.95
  -3  -3   9    5.62    0.52
  -3  -3   9    4.33    1.04
  -3  -3   9    6.73    1.12
  -3  -3   9    4.18    0.50
   2   3  -9   42.18    2.62
   2   3  -9   42.30    2.86
   2   3  -9   44.09    2.83
   2   3  -9   33.73    3.41
   2   3  -9   45.80    2.67
   2   3  -9   46.68    2.86
  -2  -3   9   44.02    2.84
  -2  -3   9   43.59    2.72
  -2  -3   9   41.02    2.85
  -2  -3   9   44.58    2.40
  -2  -3   9   37.80    2.55
  -2  -3   9   43.34    2.40
  -2  -3   9   46.50    2.82
  -2  -3   9   45.26    2.64
   1   3  -9   25.28    1.94
   1   3  -9   26.56    2.21
   1   3  -9   27.11    2.02
   1   3  -9   25.28    1.69
   1   3  -9   23.75    2.34
  -1  -3   9   26.07    1.62
  -1  -3   9   25.04    1.60
  -1  -3   9   23.03    2.13
  -1  -3   9   27.31    1.65
  -1  -3   9   26.10    1.69
  -1  -3   9   25.85    1.95
  -1  -3   9   27.71    1.96
  -1  -3   9   23.32    1.87
   0   3  -9    7.62    0.97
   0   3  -9    5.85    0.75
   0   3  -9    5.79    1.33
   0   3  -9    7.57    0.79
   0   3  -9    7.34    1.22
   0   3  -9    6.76    1.07
   0  -3   9    7.28    1.04
   0  -3   9    5.90    1.02
   0  -3   9    7.27    0.86
   0  -3   9    7.93    0.81
   0  -3   9    7.73    1.14
   0  -3   9    6.50    0.77
   0  -3   9    7.17    0.72
   0  -3   9    6.03    1.25
  -1   3  -9    1.28    0.46
  -1   3  -9    0.74    0.70
  -1   3  -9    1.13    0.47
  -1   3  -9    0.52    0.89
  -1   3  -9    0.38    1.02
  -1   3  -9    1.75    0.68
   1  -3   9    1.09    0.92
   1  -3   9    1.26    0.76
   1  -3   9    0.41    0.71
   1  -3   9    1.44    0.40
   1  -3   9    1.46    0.75
   1  -3   9    0.84    0.74
   1  -3   9    1.54    0.69
   1  -3   9    1.45    0.49
  -2   3  -9    4.62    1.49
  -2   3  -9    6.73    0.73
  -2   3  -9    6.62    0.67
  -2   3  -9    8.39    1.31
  -2   3  -9    7.57    1.26
   2  -3   9    6.71    0.72
   2  -3   9    7.33    1.19
   2  -3   9    6.36    1.07
   2  -3   9    8.48    1.00
   2  -3   9    6.13    1.15
   2  -3   9    7.89    1.23
  -3   3  -9    5.64    1.20
  -3   3  -9    5.20    1.64
  -3   3  -9    6.29    0.63
   3  -3   9    5.87    1.15
   3  -3   9    5.87    0.72
   3  -3   9    6.04    1.67
   3  -3   9    5.51    1.18
  -4   3  -9    0.37    0.17
  -4   3  -9   -1.14    1.84
   4  -3   9   -0.05    0.75
   4  -3   9    0.39    0.97
   4  -3   9   -1.14    0.76
   4  -3   9    0.43    0.50
  -5   3  -9   13.41    2.68
  -5   3  -9   13.23    1.46
   5  -3   9   14.39    1.87
   5  -3   9   12.97    1.18
   5  -3   9   14.78    1.76
  -6   3  -9   15.97    2.99
  -6   3  -9   17.01    1.62
   6  -3   9   14.41    2.04
   6  -3   9   16.42    1.77
   6  -3   9   14.23    1.85
   6  -3   9   12.74    1.30
  -7   3  -9    5.12    2.45
  -7   3  -9    2.46    0.69
   7  -3   9    5.13    1.46
   7  -3   9    3.45    0.88
   9   2  -9    4.81    1.39
   9   2  -9    2.87    1.54
   9   2  -9    2.76    1.30
  -9  -2   9    3.13    1.26
   8   2  -9   23.20    1.49
   8   2  -9   22.22    2.15
   8   2  -9   20.43    2.15
  -8  -2   9   21.05    2.26
   7   2  -9    1.98    0.52
   7   2  -9    1.59    1.20
   7   2  -9    2.89    0.97
   7   2  -9    2.95    1.06
  -7  -2   9    2.43    1.12
   6   2  -9   -0.32    0.96
   6   2  -9    0.30    0.28
   6   2  -9   -1.09    1.61
   6   2  -9    0.61    0.57
  -6  -2   9    0.72    1.38
   5   2  -9    3.64    0.83
   5   2  -9    1.70    0.77
   5   2  -9    0.71    0.78
   5   2  -9    4.32    1.24
   5   2  -9   -0.60    0.89
  -5  -2   9    2.24    0.98
   4   2  -9   29.59    2.28
   4   2  -9   27.44    2.32
   4   2  -9   32.13    2.20
   4   2  -9   30.82    2.17
   4   2  -9   31.85    2.35
  -4  -2   9   28.94    2.13
  -4  -2   9   32.42    2.14
  -4  -2   9   31.44    2.16
  -4  -2   9   28.03    2.12
  -4  -2   9   31.87    2.36
   3   2  -9   40.01    2.71
   3   2  -9   40.57    2.72
   3   2  -9   45.91    2.60
   3   2  -9   37.98    2.53
   3   2  -9   40.88    2.70
   3   2  -9   38.16    2.63
  -3  -2   9   44.39    2.65
  -3  -2   9   39.73    2.81
  -3  -2   9   39.38    2.42
  -3  -2   9   42.65    2.73
  -3  -2   9   37.50    2.65
  -3  -2   9   43.84    2.58
   2   2  -9   68.50    3.85
   2   2  -9   61.92    3.69
   2   2  -9   61.19    3.68
   2   2  -9   62.84    3.83
   2   2  -9   61.97    3.65
   2   2  -9   66.25    3.95
  -2  -2   9   64.39    3.38
  -2  -2   9   63.14    3.77
  -2  -2   9   66.05    3.72
  -2  -2   9   62.52    3.90
  -2  -2   9   65.24    3.85
  -2  -2   9   69.34    3.79
  -2  -2   9   71.51    3.63
   1   2  -9   21.14    1.39
   1   2  -9   19.62    1.56
   1   2  -9   21.27    1.48
   1   2  -9   16.14    1.83
   1   2  -9   19.80    1.90
   1   2  -9   19.49    1.43
  -1  -2   9   21.03    1.29
  -1  -2   9   19.98    1.23
  -1  -2   9   17.80    1.88
  -1  -2   9   19.03    1.63
  -1  -2   9   20.52    1.43
  -1  -2   9   19.29    1.30
  -1  -2   9   19.75    1.52
   0   2  -9   27.99    2.05
   0   2  -9   27.95    2.05
   0   2  -9   29.41    1.74
   0   2  -9   29.71    1.95
   0   2  -9   30.00    1.74
   0   2  -9   30.22    2.37
   0   2  -9   27.31    1.80
   0  -2   9   29.56    2.08
   0  -2   9   23.61    2.34
   0  -2   9   28.63    1.81
   0  -2   9   27.67    2.17
   0  -2   9   30.50    1.84
   0  -2   9   29.79    1.76
  -1   2  -9   11.49    1.25
  -1   2  -9   12.05    1.14
  -1   2  -9   10.25    1.84
  -1   2  -9   12.60    1.20
  -1   2  -9   12.54    0.86
  -1   2  -9   12.13    1.31
  -1   2  -9   12.43    1.01
  -1   2  -9   13.06    0.86
   1  -2   9   12.55    1.36
   1  -2   9   12.59    1.23
   1  -2   9   12.41    1.03
   1  -2   9    8.86    1.68
   1  -2   9   11.16    1.10
  -2   2  -9   19.32    1.54
  -2   2  -9   17.77    1.23
  -2   2  -9   20.15    1.45
  -2   2  -9   17.48    1.53
  -2   2  -9   16.31    0.92
  -2   2  -9   15.48    1.50
  -2   2  -9   13.77    2.06
   2  -2   9   17.00    1.68
   2  -2   9   18.05    1.54
   2  -2   9   13.76    2.34
   2  -2   9   14.88    1.70
   2  -2   9   16.81    1.26
   2  -2   9   14.58    1.61
  -3   2  -9   22.28    1.77
  -3   2  -9   23.04    1.47
  -3   2  -9   21.12    1.88
  -3   2  -9   18.69    2.53
   3  -2   9   21.68    2.72
   3  -2   9   23.81    1.55
   3  -2   9   18.30    1.72
   3  -2   9   24.16    2.17
  -4   2  -9    5.12    1.25
  -4   2  -9    6.95    1.17
  -4   2  -9    5.56    0.74
  -4   2  -9    4.47    1.71
   4  -2   9    5.30    1.23
   4  -2   9    5.95    1.16
   4  -2   9    3.67    0.93
  -5   2  -9   18.80    1.59
  -5   2  -9   14.29    1.88
  -5   2  -9   18.83    2.57
   5  -2   9   16.52    1.80
   5  -2   9   13.78    1.87
   5  -2   9   15.45    1.43
  -6   2  -9   16.07    1.45
  -6   2  -9   16.81    2.94
  -6   2  -9   14.21    1.98
   6  -2   9   17.05    1.88
   6  -2   9   13.56    1.47
   6  -2   9   17.68    2.06
  -7   2  -9    3.83    1.97
  -7   2  -9    1.55    1.70
   7  -2   9    2.45    1.37
   7  -2   9    2.04    1.25
   7  -2   9    2.87    0.97
   9   1  -9    1.44    1.22
   9   1  -9   -0.47    1.20
  -9  -1   9    2.03    1.33
   8   1  -9    3.56    1.13
   8   1  -9    3.19    1.24
   8   1  -9    5.30    0.79
  -8  -1   9    5.54    1.33
   7   1  -9    7.76    0.89
   7   1  -9   10.50    1.49
   7   1  -9   11.80    1.32
   7   1  -9   10.15    1.33
   7   1  -9    8.33    1.47
  -7  -1   9   11.15    1.62
   6   1  -9   10.84    1.37
   6   1  -9    5.17    1.21
   6   1  -9    8.93    1.52
   6   1  -9    9.40    1.28
  -6  -1   9    8.16    1.34
  -6  -1   9    8.13    1.33
   5   1  -9    0.66    0.93
   5   1  -9   -0.53    0.72
   5   1  -9   -0.27    0.79
   5   1  -9    1.34    0.97
  -5  -1   9    0.31    0.87
  -5  -1   9    0.44    0.77
  -5  -1   9    0.08    0.65
   4   1  -9   21.37    1.69
   4   1  -9   24.29    1.90
   4   1  -9   22.58    1.84
   4   1  -9   20.83    1.96
   4   1  -9   24.14    1.73
   4   1  -9   21.95    1.68
   4   1  -9   21.89    1.63
  -4  -1   9   20.00    1.81
  -4  -1   9   19.01    1.62
  -4  -1   9   21.44    1.71
  -4  -1   9   24.52    1.81
  -4  -1   9   21.59    1.74
   3   1  -9   18.51    1.38
   3   1  -9   19.66    1.87
   3   1  -9   18.94    2.06
   3   1  -9   17.19    1.61
   3   1  -9   15.42    1.83
   3   1  -9   17.00    1.57
   3   1  -9   19.88    1.45
  -3  -1   9   18.81    1.61
  -3  -1   9   18.00    1.52
  -3  -1   9   18.08    1.39
  -3  -1   9   19.37    1.52
  -3  -1   9   16.08    1.68
   2   1  -9   43.70    2.66
   2   1  -9   45.08    2.75
   2   1  -9   45.17    2.87
   2   1  -9   46.28    3.11
   2   1  -9   45.18    2.69
   2   1  -9   48.41    3.04
   2   1  -9   43.97    2.84
  -2  -1   9   48.62    2.78
  -2  -1   9   46.64    3.07
  -2  -1   9   46.43    2.71
  -2  -1   9   46.97    2.89
   1   1  -9    6.94    1.01
   1   1  -9    6.57    1.38
   1   1  -9    6.56    0.79
   1   1  -9    6.21    0.78
   1   1  -9    7.65    1.08
   1   1  -9    5.64    0.79
   1   1  -9    5.81    0.65
   1   1  -9    6.39    0.78
  -1  -1   9    6.42    0.81
  -1  -1   9    7.44    0.86
  -1  -1   9    8.08    1.30
  -1  -1   9    6.87    1.05
  -1  -1   9    5.98    0.65
  -1  -1   9    6.96    0.81
   0   1  -9    1.87    0.43
   0   1  -9    2.05    0.46
   0   1  -9    1.54    0.51
   0   1  -9    1.48    0.76
   0   1  -9    1.43    0.57
   0   1  -9    1.31    1.04
   0   1  -9    1.40    0.56
   0   1  -9    2.52    0.83
   0  -1   9    1.13    1.00
   0  -1   9    2.20    0.57
   0  -1   9    1.56    0.58
   0  -1   9    1.75    0.75
   0  -1   9    1.41    0.63
  -1   1  -9    0.52    0.68
  -1   1  -9    1.52    0.65
  -1   1  -9    0.92    0.49
  -1   1  -9    0.83    1.00
  -1   1  -9    0.71    0.30
  -1   1  -9    1.03    0.53
  -1   1  -9    1.09    0.60
  -1   1  -9    0.79    0.31
   1  -1   9   -0.84    0.91
   1  -1   9    0.73    0.64
   1  -1   9    0.63    0.73
   1  -1   9    1.35    1.07
   1  -1   9    0.78    0.55
   1  -1   9    1.02    0.55
  -2   1  -9    4.81    0.98
  -2   1  -9    4.90    0.97
  -2   1  -9    4.43    1.36
  -2   1  -9    4.91    0.76
  -2   1  -9    4.13    0.92
   2  -1   9    3.72    0.98
   2  -1   9    2.40    1.17
   2  -1   9    5.35    0.82
   2  -1   9    3.27    0.75
   2  -1   9    3.55    1.38
   2  -1   9    5.72    0.91
  -3   1  -9  246.94   13.62
  -3   1  -9  267.09   13.47
  -3   1  -9  268.01   14.28
  -3   1  -9  259.23   13.39
   3  -1   9  259.68   13.74
   3  -1   9  245.32   13.40
   3  -1   9  260.51   13.61
   3  -1   9  261.46   13.43
  -4   1  -9   38.43    2.44
  -4   1  -9   42.29    2.54
  -4   1  -9   43.18    3.59
  -4   1  -9   37.60    2.84
   4  -1   9   40.77    2.91
   4  -1   9   40.76    2.57
   4  -1   9   34.65    2.47
  -5   1  -9   -0.57    1.09
  -5   1  -9    1.62    0.76
  -5   1  -9    0.35    1.40
  -5   1  -9    0.62    0.66
   5  -1   9   -0.10    0.75
   5  -1   9   -0.13    0.83
   5  -1   9   -0.18    0.90
   5  -1   9   -0.23    0.62
  -6   1  -9    0.07    1.59
  -6   1  -9   -1.54    1.13
  -6   1  -9    1.15    0.36
   6  -1   9    0.45    0.85
   6  -1   9   -0.20    1.07
   6  -1   9   -0.29    0.90
   6  -1   9   -0.27    0.68
  -7   1  -9    1.32    1.73
  -7   1  -9    3.10    1.68
   7  -1   9   -0.63    1.12
   7  -1   9    1.34    1.14
   7  -1   9    1.92    0.96
   9   0  -9    0.55    0.94
   9   0  -9   -1.51    0.87
   9   0  -9    1.21    1.18
   9   0  -9   -0.71    1.07
  -9   0   9   -0.11    0.97
   8   0  -9    0.23    0.90
   8   0  -9    1.53    0.63
   8   0  -9    1.74    1.13
   8   0  -9    3.62    1.25
   8   0  -9    1.02    0.57
  -8   0   9    2.67    1.13
   7   0  -9    1.90    0.92
   7   0  -9    2.36    1.08
   7   0  -9    2.55    0.57
   7   0  -9    4.05    1.04
   7   0  -9    0.89    0.90
   7   0  -9    3.24    1.22
   7   0  -9    2.62    2.00
  -7   0   9    1.81    1.61
   6   0  -9   18.57    1.75
   6   0  -9   23.37    2.02
   6   0  -9   25.20    1.92
   6   0  -9   25.22    2.04
   6   0  -9   20.60    1.30
   6   0  -9   23.42    1.44
  -6   0   9   24.70    2.02
  -6   0   9   23.72    2.02
   5   0  -9   10.64    1.44
   5   0  -9   10.91    1.61
   5   0  -9   12.51    1.21
   5   0  -9    8.24    1.11
  -5   0   9   15.18    1.47
  -5   0   9   12.51    1.38
  -5   0   9   11.47    1.52
   4   0  -9    1.29    0.66
   4   0  -9    0.94    0.55
   4   0  -9    1.44    0.74
   4   0  -9    1.29    1.12
   4   0  -9    1.24    0.79
   4   0  -9    1.41    0.72
   4   0  -9    0.83    0.88
  -4   0   9    3.05    0.83
  -4   0   9    1.78    0.78
  -4   0   9    2.31    0.75
  -4   0   9    0.99    0.74
   3   0  -9   29.57    2.45
   3   0  -9   30.36    2.14
   3   0  -9   29.87    1.97
   3   0  -9   32.11    2.17
   3   0  -9   28.06    2.25
   3   0  -9   32.70    1.89
   3   0  -9   30.78    1.92
  -3   0   9   32.27    2.09
  -3   0   9   29.96    1.84
  -3   0   9   29.75    2.06
  -3   0   9   30.05    2.33
  -3   0   9   31.21    2.15
   2   0  -9   44.70    3.19
   2   0  -9   45.54    2.90
   2   0  -9   44.22    2.82
   2   0  -9   47.27    2.86
   2   0  -9   42.37    2.74
   2   0  -9   46.48    2.44
   2   0  -9   53.04    2.70
   2   0  -9   45.80    2.68
  -2   0   9   45.01    2.44
  -2   0   9   44.94    2.59
  -2   0   9   44.93    3.10
  -2   0   9   46.36    2.85
  -2   0   9   47.12    2.79
  -2   0   9   45.81    2.79
   1   0  -9   29.48    1.78
   1   0  -9   34.29    3.17
   1   0  -9   24.99    1.73
   1   0  -9   28.33    1.94
   1   0  -9   29.56    1.75
   1   0  -9   28.78    2.01
   1   0  -9   26.04    1.77
   1   0  -9   29.80    2.01
  -1   0   9   30.42    1.76
  -1   0   9   29.59    1.93
  -1   0   9   32.64    2.09
  -1   0   9   29.67    2.12
  -1   0   9   29.92    2.41
  -1   0   9   29.33    1.79
   0   0  -9   12.36    0.84
   0   0  -9    9.41    1.13
   0   0  -9    9.41    1.25
   0   0  -9    9.58    0.98
   0   0  -9   10.63    0.85
   0   0  -9   10.28    1.68
   0   0  -9   10.33    1.01
   0   0   9   12.22    1.06
   0   0   9   10.21    0.96
   0   0   9   11.48    1.66
   0   0   9    9.44    1.65
   0   0   9    9.33    0.97
   0   0   9   11.76    1.24
  -1   0  -9   30.07    2.11
  -1   0  -9   31.22    2.06
  -1   0  -9   30.92    1.98
  -1   0  -9   29.72    1.73
  -1   0  -9   30.15    1.71
  -1   0  -9   31.79    2.05
  -1   0  -9   29.76    2.64
   1   0   9   30.54    2.03
   1   0   9   31.24    1.96
   1   0   9   31.70    2.20
   1   0   9   27.89    2.49
   1   0   9   32.05    1.98
   1   0   9   31.69    2.07
  -2   0  -9    4.49    0.49
  -2   0  -9    4.83    0.41
  -2   0  -9    5.91    1.04
  -2   0  -9    4.96    1.51
  -2   0  -9    4.40    0.81
  -2   0  -9    5.21    0.97
  -2   0  -9    6.34    0.96
   2   0   9    5.59    0.85
   2   0   9    4.26    1.31
   2   0   9    5.28    1.06
   2   0   9    6.24    0.99
   2   0   9    5.87    1.00
   2   0   9    5.38    0.88
  -3   0  -9   45.06    3.07
  -3   0  -9   47.91    2.77
  -3   0  -9   40.69    2.76
  -3   0  -9   41.85    4.21
   3   0   9   51.68    3.00
   3   0   9   46.13    2.90
   3   0   9   48.10    3.13
   3   0   9   47.29    2.72
  -4   0  -9    0.21    1.04
  -4   0  -9    0.14    0.61
  -4   0  -9    0.04    0.95
  -4   0  -9   -1.63    1.29
   4   0   9    0.46    0.95
   4   0   9   -0.58    0.68
   4   0   9   -0.08    0.52
   4   0   9   -0.47    0.76
  -5   0  -9   33.02    4.10
  -5   0  -9   39.40    2.95
   5   0   9   38.55    2.92
   5   0   9   39.25    2.64
   5   0   9   34.97    2.24
   5   0   9   42.19    2.82
  -6   0  -9    5.96    1.90
  -6   0  -9    6.23    1.61
   6   0   9    7.91    0.79
   6   0   9   10.00    1.52
  -7   0  -9    0.95    1.77
   7   0   9    1.74    1.05
   7   0   9   -0.75    1.50
   9  -1  -9   -0.15    1.06
   9  -1  -9    0.65    0.94
   9  -1  -9   -0.94    1.00
   9  -1  -9   -0.04    0.71
  -9   1   9    1.01    1.06
   8  -1  -9    0.95    1.07
   8  -1  -9   -1.85    1.22
   8  -1  -9    0.43    0.76
   8  -1  -9   -0.22    0.85
   8  -1  -9    1.22    1.06
  -8   1   9    0.25    0.94
   7  -1  -9   16.45    1.86
   7  -1  -9   16.91    1.19
   7  -1  -9   13.63    1.41
   7  -1  -9   15.07    1.61
   7  -1  -9   13.03    1.19
   7  -1  -9   15.03    1.76
  -7   1   9   12.26    1.65
  -7   1   9   12.46    1.72
   6  -1  -9    1.60    0.58
   6  -1  -9    3.22    1.01
   6  -1  -9    0.21    0.65
   6  -1  -9   -0.80    1.24
   6  -1  -9    1.66    0.51
   6  -1  -9    1.65    1.08
  -6   1   9    1.25    0.90
  -6   1   9    0.59    1.38
   5  -1  -9    0.07    1.32
   5  -1  -9    1.89    0.82
   5  -1  -9    2.76    0.45
   5  -1  -9    3.38    0.96
  -5   1   9    2.38    1.06
  -5   1   9    3.92    1.04
  -5   1   9    1.72    0.88
   4  -1  -9    3.11    0.86
   4  -1  -9    3.04    1.31
   4  -1  -9    2.75    0.50
   4  -1  -9    3.80    0.99
   4  -1  -9    3.84    0.41
   4  -1  -9    2.65    0.77
   4  -1  -9    2.53    0.40
   4  -1  -9    1.43    0.73
  -4   1   9    2.93    0.85
  -4   1   9    2.22    0.78
  -4   1   9    4.16    0.88
  -4   1   9    2.72    0.93
   3  -1  -9   11.57    1.25
   3  -1  -9   10.94    1.14
   3  -1  -9    9.26    1.07
   3  -1  -9   11.35    1.29
   3  -1  -9   13.70    1.77
   3  -1  -9   11.72    0.78
   3  -1  -9   11.24    0.76
  -3   1   9   11.35    1.23
  -3   1   9   10.42    0.73
  -3   1   9   11.61    1.24
  -3   1   9   10.58    1.48
  -3   1   9   10.51    1.04
   2  -1  -9    0.79    0.27
   2  -1  -9    0.09    0.64
   2  -1  -9    1.01    0.75
   2  -1  -9    0.47    0.51
   2  -1  -9    0.80    1.29
   2  -1  -9    0.52    0.37
   2  -1  -9    0.66    0.63
  -2   1   9    1.00    0.97
  -2   1   9   -0.02    0.82
  -2   1   9    0.66    0.62
  -2   1   9    0.31    0.28
  -2   1   9    0.55    0.59
  -2   1   9    0.65    0.37
  -2   1   9    0.84    0.62
   1  -1  -9   42.80    2.57
   1  -1  -9   48.06    2.89
   1  -1  -9   42.18    2.67
   1  -1  -9   43.72    2.73
   1  -1  -9   45.11    2.58
   1  -1  -9   46.71    3.30
  -1   1   9   41.86    2.62
  -1   1   9   41.96    2.54
  -1   1   9   45.81    3.15
  -1   1   9   42.85    2.44
  -1   1   9   44.16    2.71
  -1   1   9   44.66    2.56
  -1   1   9   45.19    2.87
   0  -1  -9   22.47    2.25
   0  -1  -9   20.69    1.62
   0  -1  -9   21.84    1.58
   0  -1  -9   18.33    1.34
   0  -1  -9   20.09    1.54
   0  -1  -9   20.09    1.55
   0   1   9   23.23    1.39
   0   1   9   20.65    1.51
   0   1   9   20.84    1.51
   0   1   9   17.36    2.83
   0   1   9   22.20    1.39
   0   1   9   20.80    1.58
   0   1   9   21.60    1.67
  -1  -1  -9    6.80    1.06
  -1  -1  -9    6.48    0.66
  -1  -1  -9    8.35    1.02
  -1  -1  -9    8.06    1.06
  -1  -1  -9    9.09    1.76
  -1  -1  -9    9.22    1.55
   1   1   9    7.35    1.00
   1   1   9    7.22    0.81
   1   1   9    6.21    0.84
   1   1   9    7.29    1.44
   1   1   9    8.12    0.72
   1   1   9    6.49    0.96
   1   1   9    8.02    1.16
  -2  -1  -9   -0.20    1.42
  -2  -1  -9    2.15    0.40
  -2  -1  -9    1.76    0.93
  -2  -1  -9    1.75    0.70
  -2  -1  -9    1.59    0.70
  -2  -1  -9    1.36    0.86
   2   1   9    2.64    0.69
   2   1   9    2.34    0.59
   2   1   9   -1.43    1.62
   2   1   9    2.45    0.89
   2   1   9    2.85    0.42
   2   1   9    2.52    0.90
  -3  -1  -9    1.18    0.62
  -3  -1  -9    0.79    1.39
  -3  -1  -9    1.16    0.26
  -3  -1  -9    1.62    1.03
   3   1   9    1.35    0.90
   3   1   9    1.63    0.55
   3   1   9    1.74    0.29
   3   1   9    2.54    0.98
   3   1   9    0.50    0.76
  -4  -1  -9   15.73    1.29
  -4  -1  -9   17.41    2.66
  -4  -1  -9   20.15    1.96
   4   1   9   23.17    2.09
   4   1   9   20.57    1.30
   4   1   9   20.72    1.82
  -5  -1  -9   14.54    2.89
  -5  -1  -9   15.84    1.94
   5   1   9   18.22    1.70
   5   1   9   17.60    1.73
   5   1   9   16.41    2.06
  -6  -1  -9    3.07    1.69
  -6  -1  -9    2.83    1.37
   6   1   9    2.75    1.19
   6   1   9    3.21    1.10
   6   1   9    2.31    1.31
  -7  -1  -9   14.62    2.83
  -7  -1  -9    9.28    1.92
   7   1   9   11.63    1.74
   7   1   9    8.98    1.92
   9  -2  -9    3.01    0.95
   9  -2  -9   -0.52    1.39
   9  -2  -9    2.38    1.11
   9  -2  -9    3.57    1.29
   9  -2  -9    0.55    1.09
   9  -2  -9    2.35    0.91
  -9   2   9    2.68    1.14
   8  -2  -9   -0.44    0.70
   8  -2  -9   -0.49    1.14
   8  -2  -9    1.68    0.69
   8  -2  -9    0.95    1.01
  -8   2   9    1.13    1.01
  -8   2   9    1.20    0.97
   7  -2  -9    4.20    1.49
   7  -2  -9    4.16    0.84
   7  -2  -9    4.93    1.11
   7  -2  -9    4.57    1.15
   7  -2  -9    0.45    2.39
   7  -2  -9    7.13    0.92
  -7   2   9    4.36    1.14
  -7   2   9    6.45    1.22
   6  -2  -9    3.49    1.61
   6  -2  -9    3.58    1.22
   6  -2  -9    3.99    0.78
   6  -2  -9    3.67    0.72
   6  -2  -9    3.87    0.66
   6  -2  -9    4.12    0.88
   6  -2  -9    5.85    0.86
  -6   2   9    5.86    1.06
  -6   2   9    4.88    1.11
   5  -2  -9   -0.42    0.52
   5  -2  -9    0.86    0.99
   5  -2  -9   -0.24    0.35
   5  -2  -9   -0.75    0.81
   5  -2  -9    0.40    1.38
   5  -2  -9   -0.05    0.68
   5  -2  -9    0.70    0.48
  -5   2   9   -0.27    0.77
  -5   2   9    0.45    1.01
  -5   2   9   -0.20    0.67
   4  -2  -9   37.09    3.07
   4  -2  -9   37.70    2.59
   4  -2  -9   34.95    2.45
   4  -2  -9   33.46    3.06
   4  -2  -9   36.85    2.21
  -4   2   9   36.71    2.51
  -4   2   9   34.87    2.40
  -4   2   9   38.23    2.40
  -4   2   9   43.19    2.19
  -4   2   9   41.37    2.87
   3  -2  -9   13.81    1.29
   3  -2  -9   13.03    1.07
   3  -2  -9   13.03    1.25
   3  -2  -9   11.15    1.99
   3  -2  -9   12.99    1.23
   3  -2  -9   14.08    1.42
  -3   2   9   14.91    1.29
  -3   2   9   14.73    2.01
  -3   2   9   12.45    1.23
  -3   2   9   13.33    1.46
  -3   2   9   14.78    1.02
  -3   2   9   14.69    1.33
   2  -2  -9   15.99    1.27
   2  -2  -9   17.11    2.20
   2  -2  -9   17.92    1.44
   2  -2  -9   19.05    1.30
   2  -2  -9   17.18    1.45
   2  -2  -9   19.29    1.53
  -2   2   9   18.24    1.47
  -2   2   9   18.09    1.36
  -2   2   9   15.90    1.25
  -2   2   9   16.53    1.46
  -2   2   9   20.21    2.19
   1  -2  -9    6.50    0.79
   1  -2  -9    7.61    0.85
   1  -2  -9    7.23    0.99
   1  -2  -9    7.39    1.08
   1  -2  -9    6.10    0.97
   1  -2  -9    9.68    1.76
  -1   2   9    6.26    0.97
  -1   2   9    7.51    0.97
  -1   2   9    6.50    0.57
  -1   2   9    7.55    0.89
  -1   2   9    7.06    0.86
   0  -2  -9    0.19    0.58
   0  -2  -9   -0.02    0.46
   0  -2  -9    1.87    1.38
   0  -2  -9    0.25    0.68
   0  -2  -9    0.14    0.96
   0  -2  -9   -0.78    0.61
   0   2   9    0.03    0.63
   0   2   9   -0.03    0.33
   0   2   9   -0.34    0.42
   0   2   9    0.76    0.64
   0   2   9   -0.10    0.68
   0   2   9   -0.68    0.96
   0   2   9    0.06    0.45
  -1  -2  -9   46.19    2.88
  -1  -2  -9   46.03    2.56
  -1  -2  -9   43.57    2.79
  -1  -2  -9   49.18    3.64
  -1  -2  -9   40.01    2.77
  -1  -2  -9   45.07    2.67
   1   2   9   47.87    2.58
   1   2   9   44.73    3.11
   1   2   9   44.82    2.86
   1   2   9   43.20    2.57
   1   2   9   47.75    2.90
   1   2   9   44.15    3.37
   1   2   9   39.77    2.58
  -2  -2  -9   71.51    4.01
  -2  -2  -9   78.47    4.43
  -2  -2  -9   76.41    5.07
  -2  -2  -9   70.04    3.93
   2   2   9   74.60    4.38
   2   2   9   77.07    3.96
   2   2   9   70.82    4.27
   2   2   9   67.14    3.93
  -3  -2  -9    5.98    1.89
  -3  -2  -9    5.87    1.30
  -3  -2  -9    4.36    0.56
  -3  -2  -9    6.81    0.79
   3   2   9    5.62    0.96
   3   2   9    7.96    1.26
   3   2   9    5.64    0.66
   3   2   9    7.81    1.32
   3   2   9    6.03    0.68
  -4  -2  -9    3.06    1.43
  -4  -2  -9    3.09    1.62
   4   2   9    2.88    0.89
   4   2   9    2.58    0.49
   4   2   9    2.98    1.07
  -5  -2  -9    5.59    1.46
  -5  -2  -9    3.19    1.71
   5   2   9    4.80    1.38
   5   2   9    4.61    1.23
   5   2   9    6.39    1.18
  -6  -2  -9    0.69    1.45
  -6  -2  -9    0.84    1.27
   6   2   9   -0.47    0.99
   6   2   9   -0.22    1.09
   6   2   9    1.88    1.03
  -7  -2  -9    1.76    1.37
   7   2   9    1.22    1.38
   7   2   9    1.58    1.09
   9  -3  -9    0.49    1.02
   9  -3  -9    0.13    0.86
   9  -3  -9    0.72    1.18
   9  -3  -9    1.03    0.77
   9  -3  -9    0.05    0.84
   9  -3  -9   -0.60    1.59
   8  -3  -9    1.54    0.88
   8  -3  -9    0.60    0.70
   8  -3  -9   -0.18    1.16
   8  -3  -9    1.72    0.86
  -8   3   9   -0.14    0.75
  -8   3   9    0.38    0.95
   7  -3  -9    0.54    1.46
   7  -3  -9   -0.17    0.71
   7  -3  -9    1.70    0.53
   7  -3  -9    0.12    1.10
   7  -3  -9    1.39    0.60
   7  -3  -9   -0.22    0.95
  -7   3   9    0.16    0.83
  -7   3   9    0.24    0.88
   6  -3  -9   30.32    1.95
   6  -3  -9   24.46    2.10
   6  -3  -9   28.82    1.74
   6  -3  -9   31.36    2.42
   6  -3  -9   28.07    2.61
  -6   3   9   29.43    2.24
  -6   3   9   33.49    2.60
  -6   3   9   28.06    2.13
   5  -3  -9   38.89    2.76
   5  -3  -9   36.61    2.51
   5  -3  -9   38.67    2.41
  -5   3   9   38.28    2.63
  -5   3   9   38.63    2.51
  -5   3   9   37.37    2.50
   4  -3  -9   66.72    3.76
   4  -3  -9   66.29    3.80
   4  -3  -9   65.54    4.65
  -4   3   9   68.05    3.67
  -4   3   9   62.43    4.00
  -4   3   9   64.83    3.83
   3  -3  -9    8.35    1.27
   3  -3  -9    8.48    1.07
   3  -3  -9    9.03    1.06
   3  -3  -9    9.51    1.42
   3  -3  -9    8.48    1.06
   3  -3  -9    9.09    1.20
  -3   3   9    8.66    0.94
  -3   3   9    7.14    1.04
  -3   3   9    8.19    1.14
  -3   3   9    9.21    1.49
  -3   3   9   10.15    1.11
   2  -3  -9    6.02    0.99
   2  -3  -9    4.05    0.79
   2  -3  -9    5.77    0.92
   2  -3  -9    6.69    1.09
   2  -3  -9    5.93    0.93
   2  -3  -9    6.43    1.72
   2  -3  -9    5.40    0.82
  -2   3   9    6.35    0.93
  -2   3   9    5.37    0.80
  -2   3   9    4.03    1.08
  -2   3   9    5.84    0.86
  -2   3   9    6.33    1.05
   1  -3  -9    8.05    0.96
   1  -3  -9    7.89    1.00
   1  -3  -9    7.14    1.00
   1  -3  -9   11.00    2.10
   1  -3  -9    7.25    0.99
   1  -3  -9    6.53    1.02
   1  -3  -9    5.90    0.88
  -1   3   9    7.36    0.55
  -1   3   9    8.26    0.95
  -1   3   9    7.11    1.43
  -1   3   9    6.82    0.57
  -1   3   9   10.13    1.13
  -1   3   9    7.96    1.09
  -1   3   9    9.16    1.16
   0  -3  -9   19.61    1.56
   0  -3  -9   15.33    1.39
   0  -3  -9   17.51    2.13
   0  -3  -9   16.36    1.31
   0  -3  -9   15.17    1.27
   0   3   9   15.15    1.17
   0   3   9   16.34    1.52
   0   3   9   17.27    3.09
   0   3   9   17.02    1.14
   0   3   9   18.12    1.34
   0   3   9   18.42    1.55
  -1  -3  -9   -0.49    1.55
  -1  -3  -9    0.08    0.64
  -1  -3  -9    0.78    0.53
  -1  -3  -9    0.65    0.65
  -1  -3  -9    1.28    0.87
  -1  -3  -9   -0.75    0.48
   1   3   9    0.96    0.86
   1   3   9    0.21    0.70
   1   3   9    0.38    0.45
   1   3   9    0.76    0.68
  -2  -3  -9   -0.11    1.63
  -2  -3  -9    1.26    0.53
  -2  -3  -9    1.49    0.55
  -2  -3  -9    1.03    0.62
  -2  -3  -9    0.63    0.90
   2   3   9    1.99    0.91
   2   3   9    1.44    0.66
   2   3   9    1.20    0.59
   2   3   9    0.85    0.97
  -3  -3  -9    2.36    1.11
  -3  -3  -9    3.59    1.84
  -3  -3  -9    1.97    0.50
   3   3   9    3.66    1.10
   3   3   9    3.97    0.70
   3   3   9    3.44    1.21
   3   3   9    5.04    0.95
  -4  -3  -9   16.81    1.99
  -4  -3  -9   18.42    2.64
   4   3   9   18.30    1.71
   4   3   9   16.80    1.90
   4   3   9   16.21    1.79
   4   3   9   16.06    1.28
  -5  -3  -9    1.04    0.30
  -5  -3  -9    0.25    1.43
  -5  -3  -9    0.71    1.17
   5   3   9   -0.07    0.75
   5   3   9   -0.35    1.03
   5   3   9   -0.30    0.46
   5   3   9   -1.00    1.00
  -6  -3  -9    1.88    1.57
   6   3   9    0.98    1.32
   6   3   9    1.79    0.69
   6   3   9    1.36    0.95
   6   3   9    2.69    1.30
   9  -4  -9    1.58    0.80
   9  -4  -9    0.99    1.05
   9  -4  -9    0.31    1.79
   9  -4  -9    0.40    0.85
   8  -4  -9    2.59    1.37
   8  -4  -9    0.14    1.63
   8  -4  -9    3.72    1.10
   8  -4  -9    3.22    1.20
  -8   4   9    5.67    1.33
   7  -4  -9   -0.36    1.17
   7  -4  -9   -0.28    0.84
   7  -4  -9    0.06    0.51
   7  -4  -9   -0.60    0.84
   7  -4  -9   -0.89    1.47
  -7   4   9    0.12    0.98
  -7   4   9   -0.32    0.61
  -7   4   9    0.47    0.84
   6  -4  -9    0.91    0.96
   6  -4  -9    0.88    0.36
   6  -4  -9    2.50    0.74
   6  -4  -9    1.34    1.20
   6  -4  -9    1.56    0.86
   6  -4  -9    0.42    1.52
  -6   4   9    2.22    1.00
  -6   4   9    2.16    0.96
  -6   4   9    1.16    0.69
   5  -4  -9    1.11    1.14
   5  -4  -9    0.73    0.67
   5  -4  -9    0.43    0.81
   5  -4  -9    1.05    1.68
  -5   4   9    1.45    0.73
  -5   4   9    2.31    0.93
  -5   4   9    1.71    0.72
   4  -4  -9    5.57    0.89
   4  -4  -9    7.85    1.40
   4  -4  -9    9.43    2.20
   4  -4  -9    4.46    1.04
  -4   4   9    6.16    1.17
  -4   4   9    6.65    0.87
  -4   4   9    7.17    0.96
  -4   4   9    6.35    0.88
   3  -4  -9  160.78    8.55
   3  -4  -9  163.38    9.48
   3  -4  -9  156.04    8.37
  -3   4   9  144.76    8.45
  -3   4   9  157.80    8.37
  -3   4   9  173.71    8.67
   2  -4  -9   62.72    6.02
   2  -4  -9   75.03    4.32
   2  -4  -9   74.88    4.28
   2  -4  -9   74.12    4.29
   2  -4  -9   79.59    4.11
  -2   4   9   68.66    4.79
  -2   4   9   73.78    4.11
  -2   4   9   69.53    5.08
  -2   4   9   76.78    4.27
   1  -4  -9   -0.70    2.17
   1  -4  -9   -0.72    0.57
   1  -4  -9   -0.24    0.68
   1  -4  -9   -0.30    0.50
   1  -4  -9   -0.20    0.69
   1  -4  -9   -1.51    0.69
  -1   4   9    0.28    0.63
  -1   4   9   -0.91    0.67
  -1   4   9    0.05    1.19
  -1   4   9   -0.61    0.57
  -1   4   9    0.18    0.34
   0  -4  -9    3.38    1.98
   0  -4  -9    3.62    0.82
   0  -4  -9    2.64    0.72
   0  -4  -9    4.44    0.80
   0  -4  -9    4.44    1.14
   0  -4  -9    4.04    0.88
   0   4   9    3.76    1.04
   0   4   9    3.37    0.59
   0   4   9    4.53    0.92
   0   4   9    3.59    0.84
  -1  -4  -9    4.73    0.91
  -1  -4  -9    2.98    1.08
  -1  -4  -9    3.72    0.80
  -1  -4  -9    1.60    0.63
  -1  -4  -9    1.34    0.64
   1   4   9    2.43    1.01
   1   4   9    4.00    0.79
   1   4   9    2.68    0.89
   1   4   9    2.21    0.63
  -2  -4  -9    4.72    1.27
  -2  -4  -9    5.84    2.12
  -2  -4  -9    3.94    0.80
  -2  -4  -9    5.30    0.79
   2   4   9    5.98    1.43
   2   4   9    4.93    0.84
   2   4   9    4.73    0.86
   2   4   9    5.77    1.34
  -3  -4  -9    0.28    0.46
  -3  -4  -9    1.26    1.12
  -3  -4  -9    2.15    1.59
   3   4   9    1.38    0.68
   3   4   9    1.85    0.99
   3   4   9    1.37    1.17
  -4  -4  -9    0.20    1.10
  -4  -4  -9    0.80    2.25
  -4  -4  -9   -0.58    0.29
   4   4   9   -0.29    0.61
   4   4   9   -1.13    0.94
  -5  -4  -9   -0.21    1.16
  -5  -4  -9    0.35    0.49
  -5  -4  -9    0.26    1.52
   5   4   9    1.24    1.12
   5   4   9    3.19    1.30
   5   4   9    0.58    0.62
   5   4   9    2.13    1.03
  -6  -4  -9    6.10    1.73
  -6  -4  -9    8.61    1.91
   6   4   9    6.86    1.63
   6   4   9    4.71    1.65
   8  -5  -9   -0.45    1.18
   8  -5  -9   -0.46    0.66
   8  -5  -9    1.42    1.12
   8  -5  -9    2.78    1.86
   8  -5  -9   -0.08    1.32
  -8   5   9   -0.40    0.85
  -8   5   9   -0.83    1.03
   7  -5  -9    5.66    1.54
   7  -5  -9    1.04    1.74
   7  -5  -9    3.76    1.14
  -7   5   9    5.39    1.18
  -7   5   9    3.82    1.21
   6  -5  -9    1.84    1.83
   6  -5  -9    4.76    0.85
   6  -5  -9    8.67    1.57
   6  -5  -9    4.87    1.21
  -6   5   9    6.57    1.21
   5  -5  -9    0.97    0.58
   5  -5  -9   -0.06    1.77
   5  -5  -9    0.65    1.11
   5  -5  -9   -0.21    0.79
  -5   5   9    2.09    0.89
  -5   5   9    1.02    0.28
  -5   5   9    0.13    0.91
   4  -5  -9    1.67    0.54
   4  -5  -9    0.08    0.94
   4  -5  -9    1.37    1.78
   4  -5  -9    1.23    1.11
  -4   5   9    1.87    0.83
  -4   5   9    1.86    1.00
  -4   5   9    2.14    0.51
  -4   5   9    0.32    0.81
   3  -5  -9    5.12    1.99
   3  -5  -9    2.32    1.13
   3  -5  -9    4.19    0.63
   3  -5  -9    4.17    1.05
  -3   5   9    3.05    0.62
  -3   5   9    3.85    0.86
  -3   5   9    2.88    0.96
   2  -5  -9   11.61    2.34
   2  -5  -9    8.07    0.93
   2  -5  -9    9.61    1.35
  -2   5   9    9.32    1.27
  -2   5   9   10.80    1.46
  -2   5   9    8.46    1.00
   1  -5  -9   23.10    2.28
   1  -5  -9   24.02    1.86
   1  -5  -9   20.93    1.62
   1  -5  -9   26.52    2.93
   1  -5  -9   22.68    1.97
  -1   5   9   25.36    2.10
  -1   5   9   29.49    1.82
  -1   5   9   21.68    1.76
   0  -5  -9   34.41    2.23
   0  -5  -9   39.95    3.45
   0  -5  -9   31.65    2.31
   0  -5  -9   28.06    2.44
   0   5   9   30.76    2.23
   0   5   9   31.08    2.20
   0   5   9   31.08    2.43
  -1  -5  -9    3.89    1.19
  -1  -5  -9    6.49    1.97
  -1  -5  -9    4.01    0.92
  -1  -5  -9    2.82    0.58
   1   5   9    4.12    0.95
   1   5   9    4.71    0.67
   1   5   9    4.32    0.94
  -2  -5  -9    6.10    2.16
  -2  -5  -9    6.63    1.46
   2   5   9    6.97    1.27
   2   5   9    8.08    1.19
   2   5   9    8.83    1.50
   2   5   9    7.20    1.09
  -3  -5  -9    4.05    1.26
   3   5   9    3.19    0.90
   3   5   9    3.73    1.28
  -4  -5  -9    0.39    1.15
  -4  -5  -9   -1.08    1.43
   4   5   9   -1.46    1.17
   4   5   9    0.17    0.73
   4   5   9    0.37    0.97
  -5  -5  -9    1.66    1.38
   5   5   9    2.06    1.28
   5   5   9    0.34    1.25
   5   5   9    1.58    0.81
   8  -6  -9    0.95    2.83
   8  -6  -9    2.33    1.55
   8  -6  -9    1.12    1.17
  -8   6   9    2.24    1.17
  -8   6   9    1.21    0.97
   7  -6  -9   14.94    1.13
   7  -6  -9   14.42    1.96
   7  -6  -9   17.11    2.15
  -7   6   9   14.06    1.72
  -7   6   9   12.50    1.71
   6  -6  -9    0.27    1.16
   6  -6  -9   -0.11    1.84
   6  -6  -9   -0.77    1.04
  -6   6   9   -0.29    0.82
  -6   6   9    0.54    0.92
   5  -6  -9   12.14    1.77
   5  -6  -9   10.53    0.80
   5  -6  -9    9.21    1.51
  -5   6   9    7.89    1.34
   4  -6  -9   55.78    3.85
   4  -6  -9   69.59    3.24
   4  -6  -9   64.83    3.95
  -4   6   9   55.31    3.71
  -4   6   9   53.67    3.79
   3  -6  -9   12.54    1.58
   3  -6  -9   14.45    2.59
   3  -6  -9    8.25    0.91
   3  -6  -9    9.70    1.51
  -3   6   9   12.45    1.42
  -3   6   9    9.84    1.39
   2  -6  -9    2.61    0.57
   2  -6  -9    2.12    1.14
   2  -6  -9    1.05    1.13
   2  -6  -9    0.29    2.21
  -2   6   9    2.23    0.99
  -2   6   9    2.66    1.27
   1  -6  -9    5.05    2.90
   1  -6  -9    9.88    1.51
  -1   6   9    7.28    0.93
  -1   6   9    9.54    1.32
   0  -6  -9   17.52    1.59
   0  -6  -9   18.66    1.99
   0  -6  -9   17.68    1.46
   0  -6  -9   19.25    4.03
   0   6   9   16.08    1.62
   0   6   9   15.92    1.78
   0   6   9   17.66    1.53
  -1  -6  -9    1.09    0.69
  -1  -6  -9    4.18    2.10
  -1  -6  -9    1.65    1.11
   1   6   9   -0.22    0.95
   1   6   9   -0.08    0.80
   1   6   9    1.19    0.80
  -2  -6  -9    8.47    1.62
  -2  -6  -9   10.73    2.47
   2   6   9    9.89    1.49
   2   6   9   11.17    1.58
   2   6   9    7.89    1.57
  -3  -6  -9    0.52    1.16
   3   6   9    0.71    1.26
   3   6   9    0.18    0.86
   3   6   9   -0.10    0.89
  -4  -6  -9    0.90    1.54
  -4  -6  -9    1.05    1.31
   4   6   9    0.37    1.48
   4   6   9   -0.73    0.99
   4   6   9    1.22    0.89
   7  -7  -9   20.93    2.48
  -7   7   9   26.60    2.30
  -7   7   9   25.12    2.19
   6  -7  -9    4.40    1.46
   6  -7  -9    2.74    2.10
   5  -7  -9    6.80    1.69
   5  -7  -9    2.77    2.17
  -5   7   9    8.49    1.40
  -5   7   9   12.50    1.54
   4  -7  -9    7.38    1.48
   4  -7  -9    4.60    1.41
   4  -7  -9    6.89    2.29
  -4   7   9    5.43    1.15
  -4   7   9    5.92    1.27
   3  -7  -9    0.97    1.87
   3  -7  -9   -1.50    0.93
   3  -7  -9   -0.40    0.98
  -3   7   9   -0.36    0.82
  -3   7   9   -0.57    0.80
   1  -7  -9    2.85    1.22
   1  -7  -9    3.10    1.10
   1  -7  -9   -0.71    1.86
  -1   7   9    2.83    1.00
  -1   7   9    1.03    1.04
   0  -7  -9    4.73    2.11
   0  -7  -9    6.26    1.46
   0  -7  -9    4.85    1.21
   0   7   9    3.54    1.08
   0   7   9    4.72    1.35
  -1  -7  -9    4.32    1.96
  -1  -7  -9    0.23    0.38
  -1  -7  -9   -0.01    1.04
   1   7   9   -0.08    0.78
   1   7   9   -0.48    0.42
   1   7   9    0.86    1.06
  -2  -7  -9    2.28    2.07
  -2  -7  -9    1.67    1.23
   2   7   9    1.99    0.90
   2   7   9   -0.65    1.10
   2   7   9    0.71    0.89
  -3  -7  -9    9.43    2.34
  -3  -7  -9   12.36    2.01
   3   7   9   12.69    1.76
   3   7   9   14.59    1.68
   3   7   9   15.19    2.13
   6  -8  -9    1.53    2.08
   6  -8  -9    8.07    1.72
   6  -8  -9    1.41    1.45
  -6   8   9    4.40    1.27
  -6   8   9    4.64    1.21
   5  -8  -9   -0.71    2.77
   5  -8  -9    2.60    1.55
   5  -8  -9    0.31    1.29
  -5   8   9    1.51    1.24
  -5   8   9    3.61    1.10
   4  -8  -9    4.31    2.40
   4  -8  -9    3.62    1.52
  -4   8   9    4.21    1.11
  -4   8   9    7.56    1.29
   3  -8  -9   -0.91    1.98
   3  -8  -9    1.14    1.11
   3  -8  -9    0.54    1.44
  -3   8   9    1.46    0.97
  -3   8   9    1.09    1.01
   2  -8  -9   -0.11    1.19
   2  -8  -9   -0.96    1.87
   2  -8  -9    2.05    1.12
  -2   8   9    0.82    0.29
  -2   8   9    1.42    1.04
  -2   8   9    0.59    1.02
   1  -8  -9    0.27    1.02
   1  -8  -9   -0.98    1.85
   1  -8  -9    0.20    1.15
  -1   8   9    1.22    1.01
  -1   8   9   -0.25    0.87
   0  -8  -9    1.67    0.83
   0  -8  -9    2.56    2.30
   0  -8  -9    1.92    1.28
   0   8   9    2.50    1.23
   0   8   9    1.89    1.02
  -1  -8  -9   12.00    2.31
  -1  -8  -9    7.65    2.44
   1   8   9    9.43    1.56
   1   8   9    5.91    2.22
   3  -9  -9   -1.57    2.36
   3  -9  -9    2.45    1.33
   3  -9  -9    0.24    1.56
  -3   9   9    2.37    1.18
  -3   9   9    1.83    1.10
   2  -9  -9   -1.59    2.19
   2  -9  -9   -0.13    1.30
   2  -9  -9   -0.42    1.08
  -2   9   9    0.66    1.02
  -2   9   9   -0.47    0.94
   1   9 -10    1.19    1.21
  -1  -9  10    2.21    1.44
  -1  -9  10    3.49    1.06
  -1  -9  10    2.92    0.89
  -1  -9  10    1.45    1.44
   0   9 -10    0.70    1.35
   0   9 -10    1.43    1.08
   0  -9  10   -0.63    1.31
   0  -9  10    3.10    1.51
   0  -9  10    2.66    1.52
   0  -9  10    1.95    0.82
  -1   9 -10    3.04    1.53
  -1   9 -10    1.25    1.00
   1  -9  10    0.48    1.16
   1  -9  10    3.76    0.89
   1  -9  10    1.13    1.43
   4   8 -10    2.94    1.12
   4   8 -10    3.25    1.51
   4   8 -10    2.90    1.39
  -4  -8  10    2.61    1.06
  -4  -8  10    0.49    1.11
   3   8 -10    0.10    1.16
   3   8 -10    2.57    1.44
   3   8 -10    0.28    1.22
  -3  -8  10    0.70    0.89
   2   8 -10    2.06    1.29
   2   8 -10    1.02    1.16
  -2  -8  10    1.19    0.87
  -2  -8  10    4.06    1.37
  -2  -8  10    0.46    1.23
  -2  -8  10    1.66    0.55
   1   8 -10    6.06    1.64
   1   8 -10    5.01    1.36
  -1  -8  10    4.94    1.57
  -1  -8  10    4.99    1.14
  -1  -8  10    5.34    2.24
   0   8 -10    7.17    1.70
   0   8 -10    7.96    1.68
   0   8 -10    8.19    1.51
   0  -8  10   14.15    2.12
   0  -8  10    7.72    1.47
   0  -8  10    8.00    1.38
  -1   8 -10    7.61    1.76
  -1   8 -10    8.54    1.73
  -1   8 -10    7.16    1.27
   1  -8  10   10.76    1.90
   1  -8  10    6.63    1.42
  -2   8 -10    3.38    1.60
  -2   8 -10    1.97    1.54
  -2   8 -10    2.45    1.18
   2  -8  10    3.07    1.64
   2  -8  10    2.39    1.45
  -3   8 -10    0.01    0.35
  -3   8 -10    0.76    1.41
  -3   8 -10   -0.50    1.46
   3  -8  10   -0.28    1.43
   3  -8  10    0.41    1.18
   3  -8  10    1.04    0.79
   5   7 -10    3.55    1.35
   5   7 -10    3.53    1.41
   5   7 -10    3.57    1.23
  -5  -7  10    2.62    1.14
   4   7 -10    0.33    0.97
   4   7 -10    1.91    1.37
   4   7 -10   -0.92    1.14
  -4  -7  10    0.48    0.94
  -4  -7  10   -0.34    1.03
   3   7 -10    4.62    1.40
   3   7 -10    4.86    1.39
   3   7 -10    5.99    1.09
  -3  -7  10    4.54    1.35
  -3  -7  10    5.66    1.20
  -3  -7  10    2.92    0.56
   2   7 -10    1.78    1.25
   2   7 -10    0.96    1.10
   2   7 -10    1.32    0.49
   2   7 -10    0.71    0.68
  -2  -7  10   -0.40    1.01
  -2  -7  10   -0.01    0.80
  -2  -7  10   -0.59    0.96
   1   7 -10   14.21    1.64
   1   7 -10   12.45    1.87
   1   7 -10   14.58    2.02
  -1  -7  10   14.62    1.73
  -1  -7  10   11.55    1.60
  -1  -7  10   11.90    1.96
   0   7 -10    2.69    0.98
   0   7 -10   -0.73    1.09
   0   7 -10    0.25    1.20
   0   7 -10    0.42    0.21
   0   7 -10   -0.13    0.30
   0  -7  10    0.57    0.79
   0  -7  10    0.44    0.82
   0  -7  10    2.50    1.32
  -1   7 -10    0.52    1.16
  -1   7 -10   -1.14    1.56
  -1   7 -10   -0.46    0.66
   1  -7  10    0.08    1.19
   1  -7  10    1.00    0.88
   1  -7  10    1.02    0.82
  -2   7 -10    4.02    1.40
  -2   7 -10    2.40    1.17
  -2   7 -10    2.35    1.70
   2  -7  10    3.57    0.96
   2  -7  10    1.05    1.25
   2  -7  10    3.44    1.18
  -3   7 -10    0.55    0.35
  -3   7 -10   -0.19    1.62
  -3   7 -10    0.44    1.18
   3  -7  10   -1.06    1.05
   3  -7  10   -0.28    0.92
   3  -7  10    1.51    0.55
  -4   7 -10   -0.18    1.65
  -4   7 -10    0.03    1.18
  -4   7 -10    0.89    0.31
   4  -7  10   -0.56    1.17
   4  -7  10    0.60    1.05
   4  -7  10    0.39    0.93
  -5   7 -10    1.22    1.89
  -5   7 -10   -0.34    1.20
   5  -7  10    1.77    1.01
   5  -7  10    0.48    1.11
   5  -7  10   -2.35    1.06
   6   6 -10    3.70    1.45
   6   6 -10    3.25    1.25
  -6  -6  10    2.47    1.16
   5   6 -10   -1.24    1.15
   5   6 -10    0.39    0.98
   5   6 -10    0.14    1.28
  -5  -6  10    0.78    0.98
  -5  -6  10    0.29    1.04
   4   6 -10   -0.57    1.34
   4   6 -10   -0.57    1.05
   4   6 -10   -0.60    1.10
  -4  -6  10   -1.10    0.95
  -4  -6  10    1.14    0.94
   3   6 -10    0.75    0.81
   3   6 -10    1.15    1.09
   3   6 -10    1.47    0.63
   3   6 -10    2.11    1.37
  -3  -6  10    0.75    0.94
  -3  -6  10    0.64    1.05
   2   6 -10   17.15    1.37
   2   6 -10   15.84    1.65
   2   6 -10   14.05    2.51
   2   6 -10   14.94    1.89
  -2  -6  10   11.30    1.83
  -2  -6  10   13.34    1.49
  -2  -6  10   14.16    1.71
   1   6 -10    6.33    1.55
   1   6 -10    9.62    1.37
   1   6 -10    9.71    1.72
  -1  -6  10    8.36    1.27
  -1  -6  10    8.43    1.32
  -1  -6  10    8.23    1.53
  -1  -6  10   11.50    1.74
  -1  -6  10   11.23    1.14
   0   6 -10   13.29    1.94
   0   6 -10   13.88    3.09
   0   6 -10   16.62    2.19
   0  -6  10   16.35    1.96
   0  -6  10   13.92    1.63
   0  -6  10   19.11    1.65
  -1   6 -10   -1.27    1.08
  -1   6 -10   -0.90    1.21
  -1   6 -10   -0.03    0.71
   1  -6  10    0.02    0.50
   1  -6  10   -1.08    0.96
   1  -6  10   -0.04    0.73
  -2   6 -10    3.35    1.33
  -2   6 -10    3.59    1.93
  -2   6 -10    2.98    0.75
   2  -6  10    2.44    0.61
   2  -6  10    2.53    1.06
   2  -6  10    2.80    0.97
   2  -6  10    3.14    1.01
  -3   6 -10    0.96    1.15
  -3   6 -10   -1.12    1.37
   3  -6  10   -0.78    0.82
   3  -6  10    0.86    1.12
   3  -6  10    0.69    0.45
   3  -6  10    1.02    0.89
  -4   6 -10    3.86    1.27
  -4   6 -10    2.53    1.76
   4  -6  10    1.69    0.41
   4  -6  10    0.00    1.05
   4  -6  10    1.91    1.16
   4  -6  10    0.24    0.93
  -5   6 -10    4.70    1.41
  -5   6 -10    5.63    2.25
   5  -6  10    3.01    1.22
   5  -6  10    2.16    1.37
   5  -6  10    5.17    1.33
   7   5 -10    0.99    1.28
   7   5 -10   -0.19    1.64
  -7  -5  10   -0.30    1.23
   6   5 -10    1.11    1.04
   6   5 -10    2.84    1.39
   6   5 -10    1.99    1.19
  -6  -5  10    2.87    1.14
   5   5 -10   19.55    1.80
   5   5 -10   18.96    1.97
   5   5 -10   17.13    1.23
  -5  -5  10   12.20    1.86
  -5  -5  10   15.33    2.00
   4   5 -10    5.94    1.32
   4   5 -10    4.04    0.97
   4   5 -10    6.23    1.40
   4   5 -10    3.35    0.63
  -4  -5  10    6.60    1.29
  -4  -5  10    5.13    1.29
   3   5 -10    8.91    1.39
   3   5 -10    8.41    1.19
   3   5 -10    9.21    1.27
   3   5 -10   10.30    1.64
  -3  -5  10    7.52    1.33
  -3  -5  10    6.17    0.89
  -3  -5  10    7.82    1.48
   2   5 -10    6.09    0.90
   2   5 -10    3.62    0.80
   2   5 -10    4.49    1.18
   2   5 -10    2.40    1.05
   2   5 -10    4.23    1.38
  -2  -5  10    4.07    1.24
  -2  -5  10    6.45    1.04
  -2  -5  10    3.37    1.03
  -2  -5  10    4.25    1.07
   1   5 -10    0.57    0.57
   1   5 -10   -0.96    1.03
   1   5 -10    0.22    0.95
   1   5 -10    0.38    0.80
   1   5 -10    0.28    0.50
  -1  -5  10    0.27    0.66
  -1  -5  10   -0.04    0.78
  -1  -5  10   -0.48    0.72
   0   5 -10    0.79    1.24
   0   5 -10    0.57    0.28
   0   5 -10    2.42    0.52
   0   5 -10    0.63    1.14
   0   5 -10    1.19    0.81
   0  -5  10    1.40    0.75
   0  -5  10    1.85    0.79
   0  -5  10    1.20    0.91
   0  -5  10    1.66    0.57
   0  -5  10    2.21    1.18
   0  -5  10    1.65    1.09
  -1   5 -10   14.47    1.24
  -1   5 -10   13.04    1.77
  -1   5 -10   11.34    2.20
   1  -5  10   12.93    1.59
   1  -5  10   12.56    1.09
   1  -5  10   13.27    1.38
   1  -5  10   11.50    1.68
   1  -5  10   13.98    1.36
  -2   5 -10   63.88    3.64
  -2   5 -10   65.03    4.71
  -2   5 -10   70.38    4.60
   2  -5  10   62.35    3.58
   2  -5  10   71.46    4.05
   2  -5  10   61.57    4.04
  -3   5 -10    9.99    1.66
  -3   5 -10   10.00    2.11
   3  -5  10    8.48    1.33
   3  -5  10    8.81    1.43
   3  -5  10    9.36    0.75
   3  -5  10   10.20    1.63
  -4   5 -10    0.17    1.05
  -4   5 -10    0.47    1.55
   4  -5  10   -0.55    0.95
   4  -5  10    0.85    0.88
   4  -5  10   -0.61    0.93
  -5   5 -10    0.41    1.69
  -5   5 -10    1.74    1.02
   5  -5  10   -0.77    0.98
   5  -5  10   -0.19    0.93
   5  -5  10   -1.12    0.98
  -6   5 -10   -0.26    1.10
  -6   5 -10    1.45    1.93
   6  -5  10   -0.85    0.97
   6  -5  10    0.26    1.17
   8   4 -10    6.07    1.48
   8   4 -10    6.66    1.57
   8   4 -10    7.81    1.71
  -8  -4  10    9.12    1.64
   7   4 -10   10.33    1.70
   7   4 -10   13.57    1.84
  -7  -4  10    9.23    0.61
  -7  -4  10   14.14    1.88
   6   4 -10    0.49    0.88
   6   4 -10    3.01    0.53
   6   4 -10    0.96    1.31
   6   4 -10    4.27    1.22
  -6  -4  10    2.37    1.11
   5   4 -10   14.39    0.88
   5   4 -10   13.91    1.76
   5   4 -10   15.09    1.72
  -5  -4  10   13.90    1.77
  -5  -4  10   11.79    1.81
   4   4 -10   80.33    4.69
   4   4 -10   79.18    4.41
   4   4 -10   74.51    4.44
   4   4 -10   68.08    4.15
  -4  -4  10   76.98    4.66
  -4  -4  10   76.07    4.62
   3   4 -10    2.81    0.89
   3   4 -10    1.76    1.10
   3   4 -10    2.04    0.83
   3   4 -10    2.50    1.00
   3   4 -10    2.98    0.94
  -3  -4  10    1.18    1.01
  -3  -4  10    0.74    0.71
  -3  -4  10    1.62    0.54
  -3  -4  10    2.08    0.96
   2   4 -10    1.24    0.93
   2   4 -10    0.54    1.06
   2   4 -10    0.96    1.06
   2   4 -10    0.50    0.77
  -2  -4  10    0.31    0.47
  -2  -4  10    1.00    0.56
  -2  -4  10    0.79    0.84
  -2  -4  10    1.83    1.11
  -2  -4  10    0.48    0.86
   1   4 -10    3.17    1.16
   1   4 -10    2.99    1.10
   1   4 -10    2.41    0.65
   1   4 -10    3.29    0.87
  -1  -4  10    3.19    1.01
  -1  -4  10    2.24    0.63
  -1  -4  10    3.07    1.61
  -1  -4  10    1.83    0.57
  -1  -4  10    1.26    1.00
  -1  -4  10    2.81    0.70
  -1  -4  10    2.61    0.66
   0   4 -10   20.27    1.41
   0   4 -10   21.79    2.31
   0   4 -10   19.48    1.98
   0   4 -10   22.96    1.61
   0  -4  10   20.89    2.05
   0  -4  10   21.94    1.46
   0  -4  10   19.13    2.20
   0  -4  10   17.77    2.59
   0  -4  10   21.06    1.61
   0  -4  10   21.78    1.91
   0  -4  10   20.48    1.41
  -1   4 -10    0.97    1.34
  -1   4 -10    0.79    1.03
  -1   4 -10    1.70    0.62
  -1   4 -10    1.82    0.46
   1  -4  10    1.62    0.79
   1  -4  10    1.78    0.48
   1  -4  10    1.41    0.45
   1  -4  10    2.97    0.74
   1  -4  10    0.55    1.62
   1  -4  10    1.68    0.90
  -2   4 -10   35.55    3.07
  -2   4 -10   28.39    2.46
  -2   4 -10   30.40    1.91
   2  -4  10   33.11    2.54
   2  -4  10   29.79    1.86
   2  -4  10   37.23    1.89
   2  -4  10   31.81    2.51
   2  -4  10   35.74    2.31
  -3   4 -10    7.93    1.42
  -3   4 -10    5.58    3.19
   3  -4  10    5.76    2.10
   3  -4  10    7.40    1.30
   3  -4  10    7.62    1.24
  -4   4 -10   15.67    1.72
  -4   4 -10   13.60    2.48
   4  -4  10   13.32    2.54
   4  -4  10   11.60    1.72
   4  -4  10   16.32    1.65
  -5   4 -10    4.31    1.96
  -5   4 -10    4.35    1.27
   5  -4  10    5.27    1.19
   5  -4  10    3.93    1.31
   5  -4  10    3.36    0.57
   5  -4  10    4.13    1.31
  -6   4 -10    1.23    1.89
  -6   4 -10    0.46    0.89
   6  -4  10    0.80    1.12
   6  -4  10    0.40    0.98
   6  -4  10   -0.65    1.06
   8   3 -10    4.27    1.38
   8   3 -10    7.76    2.28
   8   3 -10    6.08    1.79
   7   3 -10    6.36    1.47
   7   3 -10    7.74    1.46
  -7  -3  10    5.94    1.39
   6   3 -10    8.26    1.43
   6   3 -10    7.02    1.41
   6   3 -10   10.14    1.43
  -6  -3  10    5.32    1.31
   5   3 -10    5.59    1.41
   5   3 -10    5.26    1.26
   5   3 -10    5.95    1.16
  -5  -3  10    5.20    1.15
   4   3 -10    0.70    1.02
   4   3 -10    1.49    0.76
   4   3 -10    1.25    0.93
  -4  -3  10   -0.56    0.80
  -4  -3  10    0.73    0.51
  -4  -3  10   -0.03    0.86
   3   3 -10   30.19    2.25
   3   3 -10   34.31    2.24
   3   3 -10   30.52    2.15
   3   3 -10   32.51    2.33
  -3  -3  10   32.28    2.17
  -3  -3  10   31.71    2.31
  -3  -3  10   30.85    2.32
  -3  -3  10   30.02    2.37
   2   3 -10  113.80    6.41
   2   3 -10  114.09    6.49
   2   3 -10  125.86    6.64
   2   3 -10  115.20    6.65
   2   3 -10  113.39    6.39
  -2  -3  10  126.80    6.59
  -2  -3  10  121.33    6.41
  -2  -3  10  104.29    6.29
  -2  -3  10  119.59    6.22
  -2  -3  10  121.44    6.16
  -2  -3  10  126.44    6.65
  -2  -3  10  117.62    6.64
   1   3 -10    3.81    0.91
   1   3 -10    5.66    1.21
   1   3 -10    6.15    0.83
   1   3 -10    6.76    1.36
   1   3 -10    6.35    0.90
  -1  -3  10    6.31    0.91
  -1  -3  10    5.41    0.80
  -1  -3  10    5.98    0.77
  -1  -3  10    4.82    0.72
  -1  -3  10    7.14    1.15
  -1  -3  10    5.92    1.36
   0   3 -10    5.87    1.11
   0   3 -10    5.04    1.33
   0   3 -10    5.07    1.43
   0   3 -10    4.62    0.75
   0   3 -10    5.02    0.92
   0   3 -10    4.45    0.78
   0  -3  10    4.88    1.04
   0  -3  10    5.34    0.90
   0  -3  10    6.55    0.83
   0  -3  10    6.51    1.37
   0  -3  10    4.40    0.64
   0  -3  10    6.16    1.15
   0  -3  10    5.16    0.75
  -1   3 -10    1.75    0.51
  -1   3 -10    1.31    0.52
  -1   3 -10    1.39    1.34
  -1   3 -10    1.29    1.02
   1  -3  10    2.88    0.72
   1  -3  10    1.76    0.90
   1  -3  10    1.34    0.68
   1  -3  10    0.37    0.89
   1  -3  10    1.75    0.54
  -2   3 -10    2.45    1.47
  -2   3 -10    4.29    0.64
  -2   3 -10    4.27    1.47
   2  -3  10    4.97    0.68
   2  -3  10    3.61    0.99
   2  -3  10    4.55    0.89
   2  -3  10    3.72    1.02
   2  -3  10    4.69    1.07
  -3   3 -10    8.90    2.43
  -3   3 -10    7.55    1.80
   3  -3  10   10.04    1.23
   3  -3  10    9.40    0.93
   3  -3  10    8.97    1.44
   3  -3  10   11.02    1.52
  -4   3 -10   30.99    3.15
  -4   3 -10   31.87    2.40
   4  -3  10   30.24    1.93
   4  -3  10   31.79    2.49
   4  -3  10   26.49    2.91
  -5   3 -10    4.34    1.15
  -5   3 -10    4.68    1.81
   5  -3  10    4.35    1.32
   5  -3  10    3.76    1.21
   5  -3  10    3.92    1.14
  -6   3 -10   19.04    3.07
  -6   3 -10   17.72    1.75
   6  -3  10   14.83    2.07
   6  -3  10   16.67    2.03
   6  -3  10   15.71    1.44
   6  -3  10   21.10    1.97
  -7   3 -10   -0.83    1.67
   7  -3  10    0.66    1.41
   7  -3  10    3.29    1.18
   7  -3  10    2.40    1.28
   7  -3  10    3.15    1.13
   9   2 -10    0.63    1.28
   9   2 -10    1.80    1.32
   9   2 -10   -1.09    0.95
   8   2 -10    9.31    1.70
   8   2 -10    5.35    1.51
   8   2 -10    6.61    1.40
  -8  -2  10    9.02    1.65
   7   2 -10    0.06    0.91
   7   2 -10    0.37    1.09
  -7  -2  10   -0.26    0.97
   6   2 -10    4.62    1.35
   6   2 -10    5.72    0.94
   6   2 -10    4.38    1.22
   6   2 -10    6.94    1.20
  -6  -2  10    3.29    1.17
   5   2 -10    0.75    1.09
   5   2 -10    0.49    0.93
   5   2 -10    0.84    0.81
   5   2 -10    1.00    0.85
  -5  -2  10    0.23    0.88
  -5  -2  10   -0.37    0.84
  -5  -2  10    1.18    0.35
   4   2 -10    1.83    1.10
   4   2 -10    1.28    0.78
   4   2 -10    2.59    0.97
  -4  -2  10    1.81    1.28
  -4  -2  10    1.01    0.83
  -4  -2  10    1.34    0.71
  -4  -2  10    1.65    0.97
   3   2 -10   34.67    2.37
   3   2 -10   37.47    2.67
   3   2 -10   33.63    2.34
   3   2 -10   37.09    2.58
   3   2 -10   35.78    2.34
   3   2 -10   39.11    2.40
  -3  -2  10   37.54    2.40
  -3  -2  10   35.36    2.61
  -3  -2  10   35.48    2.41
  -3  -2  10   37.38    2.59
   2   2 -10   12.76    1.29
   2   2 -10   14.11    1.30
   2   2 -10   13.11    1.46
   2   2 -10   14.62    1.25
   2   2 -10   15.85    1.79
   2   2 -10   12.09    1.20
   2   2 -10   13.03    1.51
  -2  -2  10   14.24    1.38
  -2  -2  10   13.17    0.85
  -2  -2  10   14.76    1.03
  -2  -2  10   13.17    1.47
  -2  -2  10   13.66    1.29
  -2  -2  10   14.59    1.72
  -2  -2  10   14.86    1.31
   1   2 -10    4.16    0.72
   1   2 -10    4.76    0.85
   1   2 -10    5.76    1.12
   1   2 -10    4.07    0.69
   1   2 -10    5.42    1.24
   1   2 -10    4.47    0.77
   1   2 -10    5.11    1.01
  -1  -2  10    3.66    1.25
  -1  -2  10    3.40    0.54
  -1  -2  10    4.69    0.95
  -1  -2  10    4.59    1.18
  -1  -2  10    4.24    0.86
  -1  -2  10    6.38    1.07
   0   2 -10   43.49    2.97
   0   2 -10   46.76    3.38
   0   2 -10   48.58    2.86
   0   2 -10   47.21    2.76
   0   2 -10   48.13    2.67
   0   2 -10   47.08    3.00
   0   2 -10   44.98    2.65
   0  -2  10   40.12    3.29
   0  -2  10   48.45    2.78
   0  -2  10   47.83    2.78
   0  -2  10   51.10    2.71
   0  -2  10   49.64    3.05
   0  -2  10   46.78    2.94
   0  -2  10   48.68    2.97
  -1   2 -10    0.00    1.14
  -1   2 -10   -0.22    0.66
  -1   2 -10    1.15    0.73
  -1   2 -10    0.38    0.40
  -1   2 -10   -0.57    0.81
  -1   2 -10    0.78    0.52
   1  -2  10    1.23    0.84
   1  -2  10   -0.83    0.62
   1  -2  10    1.25    0.58
   1  -2  10    0.61    0.71
   1  -2  10    0.34    0.67
   1  -2  10   -0.05    1.07
  -2   2 -10    0.50    0.16
  -2   2 -10    0.15    0.86
  -2   2 -10   -0.35    1.50
  -2   2 -10    0.85    0.52
  -2   2 -10    0.44    0.85
   2  -2  10    1.38    0.74
   2  -2  10    0.95    0.80
   2  -2  10    1.34    1.12
   2  -2  10    0.65    0.58
   2  -2  10    1.31    0.84
  -3   2 -10   14.16    2.37
  -3   2 -10   14.32    1.60
  -3   2 -10   15.00    1.16
  -3   2 -10   15.60    1.61
   3  -2  10   15.71    1.80
   3  -2  10   11.45    1.44
   3  -2  10   13.99    1.27
   3  -2  10   12.30    1.50
  -4   2 -10   97.60    5.84
  -4   2 -10  102.16    5.62
  -4   2 -10   96.47    6.54
   4  -2  10  101.53    6.17
   4  -2  10   98.54    5.45
  -5   2 -10    0.16    0.82
  -5   2 -10    2.44    1.62
  -5   2 -10    0.94    1.23
   5  -2  10    0.97    0.77
   5  -2  10    0.41    1.08
   5  -2  10    0.39    0.92
  -6   2 -10    5.15    1.54
  -6   2 -10    5.03    2.01
   6  -2  10    5.22    1.28
   6  -2  10    7.76    1.60
  -7   2 -10   -0.51    1.31
  -7   2 -10    0.73    2.54
   7  -2  10    0.39    1.24
   7  -2  10    0.50    1.00
   7  -2  10    0.48    0.94
   9   1 -10    0.00    1.20
   9   1 -10   -1.80    1.23
   9   1 -10    0.73    1.30
   8   1 -10    0.05    0.96
   8   1 -10   -0.09    1.10
   8   1 -10    0.95    1.19
   8   1 -10   -0.77    0.91
  -8  -1  10   -0.63    0.97
   7   1 -10    7.16    1.21
   7   1 -10    5.12    1.17
  -7  -1  10    5.64    1.28
   6   1 -10    0.25    1.03
   6   1 -10   -0.03    0.99
  -6  -1  10   -0.97    0.83
   5   1 -10    0.39    1.01
   5   1 -10   -0.32    0.71
   5   1 -10   -0.15    0.85
   5   1 -10    0.38    1.00
  -5  -1  10   -0.16    0.83
  -5  -1  10    1.02    0.76
  -5  -1  10    0.28    0.80
   4   1 -10    4.10    1.12
   4   1 -10    4.36    1.27
   4   1 -10    3.82    0.83
   4   1 -10    3.99    0.96
  -4  -1  10    2.64    0.96
  -4  -1  10    2.84    0.97
  -4  -1  10    2.17    0.76
  -4  -1  10    3.29    0.85
   3   1 -10    0.19    0.79
   3   1 -10    1.16    0.71
   3   1 -10    0.84    0.59
   3   1 -10    0.36    0.62
   3   1 -10    2.69    1.15
   3   1 -10    1.06    0.92
   3   1 -10    2.25    0.76
  -3  -1  10    0.58    0.78
  -3  -1  10    0.07    0.70
  -3  -1  10    0.68    0.88
  -3  -1  10    0.90    0.57
  -3  -1  10    1.34    0.78
   2   1 -10    3.75    0.97
   2   1 -10    4.97    1.09
   2   1 -10    3.84    0.72
   2   1 -10    7.39    1.14
   2   1 -10    3.32    0.70
   2   1 -10    5.97    0.85
  -2  -1  10    6.11    1.21
  -2  -1  10    7.00    0.93
  -2  -1  10    4.30    0.89
  -2  -1  10    4.93    0.95
  -2  -1  10    5.75    0.44
  -2  -1  10    3.70    0.93
   1   1 -10   79.60    4.24
   1   1 -10   81.26    4.26
   1   1 -10   76.80    4.16
   1   1 -10   78.23    4.51
   1   1 -10   73.94    4.33
   1   1 -10   81.58    4.88
   1   1 -10   79.16    4.30
   1   1 -10   79.81    4.48
  -1  -1  10   74.59    4.75
  -1  -1  10   81.78    4.39
  -1  -1  10   74.20    4.40
  -1  -1  10   79.24    4.20
  -1  -1  10   73.69    4.50
  -1  -1  10   76.13    4.33
   0   1 -10   44.26    2.65
   0   1 -10   44.16    2.65
   0   1 -10   44.33    2.70
   0   1 -10   42.56    2.83
   0   1 -10   47.27    2.54
   0   1 -10   43.79    2.53
   0   1 -10   48.14    3.40
   0   1 -10   44.97    2.84
   0  -1  10   46.88    2.67
   0  -1  10   47.84    2.96
   0  -1  10   45.45    2.92
   0  -1  10   44.11    2.90
   0  -1  10   44.41    2.74
   0  -1  10   40.65    3.24
  -1   1 -10   16.06    1.04
  -1   1 -10   14.63    2.06
  -1   1 -10   19.09    1.33
  -1   1 -10   14.92    1.46
  -1   1 -10   15.60    1.04
  -1   1 -10   18.12    1.56
  -1   1 -10   16.39    1.31
  -1   1 -10   16.01    1.70
   1  -1  10   16.59    1.61
   1  -1  10   14.47    1.33
   1  -1  10   15.17    1.37
   1  -1  10   13.94    2.05
   1  -1  10   16.91    1.55
  -2   1 -10   94.56    7.92
  -2   1 -10  116.10    6.18
  -2   1 -10  116.81    6.25
  -2   1 -10  109.83    6.05
   2  -1  10  114.02    6.21
   2  -1  10  107.22    7.15
   2  -1  10  112.50    6.23
   2  -1  10  118.60    6.11
  -3   1 -10   19.60    2.08
  -3   1 -10   24.12    2.11
  -3   1 -10   25.25    2.85
  -3   1 -10   25.84    1.90
   3  -1  10   24.85    2.01
   3  -1  10   22.01    2.12
   3  -1  10   23.47    1.79
  -4   1 -10    7.04    0.91
  -4   1 -10    7.75    1.14
  -4   1 -10    6.62    1.39
   4  -1  10    8.98    2.08
   4  -1  10    8.70    1.32
   4  -1  10    7.47    1.13
   4  -1  10    7.89    1.13
  -5   1 -10    1.74    1.21
  -5   1 -10    3.21    1.67
  -5   1 -10    5.22    0.93
   5  -1  10    4.07    1.29
   5  -1  10    3.81    1.11
   5  -1  10    2.73    0.80
   5  -1  10    4.58    1.17
  -6   1 -10    2.78    1.42
  -6   1 -10    2.95    1.78
   6  -1  10    3.23    1.05
   6  -1  10    2.77    1.32
   6  -1  10    2.94    1.17
  -7   1 -10    1.90    3.25
  -7   1 -10    2.21    1.42
   7  -1  10    2.81    1.21
   7  -1  10    2.16    1.41
   7  -1  10    1.01    0.98
   9   0 -10   -2.05    1.27
   9   0 -10    0.93    1.96
   9   0 -10    2.93    1.38
  -9   0  10    3.16    1.24
   8   0 -10    0.56    0.58
   8   0 -10    0.53    1.08
   8   0 -10   -0.41    0.86
   8   0 -10   -0.32    1.01
  -8   0  10   -0.01    0.98
   7   0 -10   15.29    1.70
  -7   0  10   14.09    1.84
  -7   0  10   14.64    1.65
   6   0 -10   -1.40    1.11
   6   0 -10    0.81    1.05
   6   0 -10   -1.45    0.83
  -6   0  10    0.35    0.89
  -6   0  10   -0.69    0.84
   5   0 -10   -0.17    0.60
   5   0 -10   -0.18    0.64
   5   0 -10    0.00    1.09
   5   0 -10    0.76    1.41
  -5   0  10    1.89    0.90
  -5   0  10   -1.21    0.92
  -5   0  10    2.84    0.88
   4   0 -10    4.24    1.63
   4   0 -10    1.22    0.97
   4   0 -10    2.50    0.64
   4   0 -10    2.24    0.88
   4   0 -10    1.37    0.79
  -4   0  10    1.08    0.82
  -4   0  10    1.79    0.85
  -4   0  10    2.07    0.83
   3   0 -10    5.73    0.75
   3   0 -10    5.85    1.04
   3   0 -10    7.09    0.93
   3   0 -10   10.96    1.78
   3   0 -10    7.03    1.19
   3   0 -10    6.50    0.94
  -3   0  10    5.88    1.19
  -3   0  10    7.48    1.06
  -3   0  10    6.38    0.78
  -3   0  10    6.59    1.08
  -3   0  10    8.03    1.12
   2   0 -10    1.75    0.80
   2   0 -10    2.25    0.49
   2   0 -10    2.37    0.67
   2   0 -10    3.46    1.42
   2   0 -10    2.54    0.92
   2   0 -10    2.83    0.44
   2   0 -10    3.09    0.84
   2   0 -10    2.25    0.64
  -2   0  10    2.80    1.16
  -2   0  10    4.01    0.88
  -2   0  10    3.49    0.59
  -2   0  10    1.06    0.69
  -2   0  10    2.54    0.79
  -2   0  10    3.10    0.46
   1   0 -10   21.77    1.62
   1   0 -10   22.16    2.41
   1   0 -10   21.55    1.52
   1   0 -10   22.84    1.77
   1   0 -10   22.06    1.46
   1   0 -10   25.18    1.79
   1   0 -10   21.85    1.49
   1   0 -10   21.59    1.43
  -1   0  10   23.02    1.67
  -1   0  10   23.29    1.48
  -1   0  10   24.50    1.86
  -1   0  10   15.87    2.97
  -1   0  10   22.02    1.49
   0   0 -10   14.56    1.22
   0   0 -10   13.78    1.01
   0   0 -10   13.49    1.21
   0   0 -10   16.19    1.38
   0   0 -10   14.44    1.09
   0   0 -10   13.69    1.37
   0   0 -10   13.68    1.02
   0   0 -10   14.97    2.04
   0   0  10   13.66    1.24
   0   0  10   12.34    1.21
   0   0  10   12.94    1.17
   0   0  10   13.37    1.42
   0   0  10   13.66    1.96
   0   0  10   12.43    1.14
  -1   0 -10  186.61    9.78
  -1   0 -10  191.16    9.84
  -1   0 -10  184.39    9.73
  -1   0 -10  172.70    9.63
  -1   0 -10  194.50    9.42
  -1   0 -10  190.20   10.34
  -1   0 -10  182.12    9.69
   1   0  10  175.87    9.71
   1   0  10  181.73    9.66
   1   0  10  179.13   10.28
   1   0  10  170.36   10.10
   1   0  10  191.95    9.89
   1   0  10  187.17    9.73
  -2   0 -10   85.04    4.67
  -2   0 -10   92.07    5.08
  -2   0 -10   89.40    4.67
  -2   0 -10   95.48    5.26
  -2   0 -10   94.56    5.07
   2   0  10   94.19    5.23
   2   0  10   85.29    5.08
   2   0  10   91.72    6.21
   2   0  10   94.84    5.13
   2   0  10   88.46    4.99
  -3   0 -10    3.30    1.63
  -3   0 -10    4.02    0.92
  -3   0 -10    3.74    1.13
   3   0  10    4.52    0.81
   3   0  10    6.08    1.25
   3   0  10    4.89    1.05
   3   0  10    5.31    1.25
  -4   0 -10   12.51    2.91
  -4   0 -10   11.24    1.66
   4   0  10   10.76    1.61
   4   0  10    9.93    1.36
   4   0  10   10.31    1.06
   4   0  10    9.99    1.52
  -5   0 -10    4.99    1.45
  -5   0 -10    6.18    1.86
   5   0  10    8.58    1.38
   5   0  10    7.21    1.55
   5   0  10    6.36    0.83
   5   0  10    8.28    1.33
  -6   0 -10    4.40    1.83
  -6   0 -10    5.39    1.47
   6   0  10    3.62    1.41
   6   0  10    4.63    1.22
   6   0  10    3.82    1.20
  -7   0 -10    0.97    1.87
  -7   0 -10    0.43    1.36
   7   0  10    1.83    1.44
   7   0  10    0.93    1.12
   7   0  10    0.77    1.06
   9  -1 -10    6.92    1.54
   9  -1 -10    5.54    1.63
   9  -1 -10    5.88    1.45
  -9   1  10    6.23    1.34
   8  -1 -10    4.36    0.76
   8  -1 -10    5.37    1.18
   8  -1 -10    6.09    1.42
   8  -1 -10    5.99    1.17
  -8   1  10    6.12    1.29
   7  -1 -10    2.57    1.21
   7  -1 -10    2.02    0.55
   7  -1 -10    0.91    1.38
   7  -1 -10    3.72    0.98
  -7   1  10    1.65    0.99
  -7   1  10    1.90    1.00
   6  -1 -10    0.23    1.02
   6  -1 -10   -0.66    1.31
   6  -1 -10    0.90    0.92
  -6   1  10   -0.48    0.80
  -6   1  10    0.24    0.87
   5  -1 -10   25.99    1.71
   5  -1 -10   20.88    1.99
   5  -1 -10   21.91    1.19
   5  -1 -10   20.03    1.47
   5  -1 -10   18.32    2.40
  -5   1  10   22.64    1.86
  -5   1  10   21.93    2.45
  -5   1  10   22.29    1.87
   4  -1 -10    6.12    0.86
   4  -1 -10    6.01    0.46
   4  -1 -10    7.74    1.44
   4  -1 -10    8.34    1.76
   4  -1 -10    5.28    0.68
   4  -1 -10    5.28    1.02
  -4   1  10    4.31    1.66
  -4   1  10    7.09    1.23
  -4   1  10    7.76    1.14
   3  -1 -10   -0.03    0.60
   3  -1 -10    0.00    1.33
   3  -1 -10    0.18    0.29
   3  -1 -10    0.46    0.85
   3  -1 -10    0.07    0.68
   3  -1 -10   -0.09    0.36
   3  -1 -10    0.16    0.58
   3  -1 -10   -0.98    0.76
  -3   1  10    0.12    0.25
  -3   1  10    0.24    0.68
  -3   1  10   -0.08    0.64
  -3   1  10    1.14    0.73
   2  -1 -10    0.90    0.31
   2  -1 -10    0.55    0.45
   2  -1 -10    1.34    1.49
   2  -1 -10    0.32    0.53
   2  -1 -10   -0.11    0.62
   2  -1 -10    0.54    0.76
   2  -1 -10   -0.38    0.74
  -2   1  10    1.36    0.58
  -2   1  10    1.02    0.67
  -2   1  10   -0.91    1.10
  -2   1  10    0.71    0.44
  -2   1  10   -0.01    0.67
  -2   1  10    0.93    0.69
   1  -1 -10  117.63    6.93
   1  -1 -10  115.80    6.27
   1  -1 -10  121.66    6.29
   1  -1 -10  111.57    6.40
   1  -1 -10  118.13    6.42
  -1   1  10  117.28    6.85
  -1   1  10  115.43    6.16
  -1   1  10  116.79    6.27
  -1   1  10  118.79    6.27
  -1   1  10  122.71    6.48
  -1   1  10  119.78    6.46
   0  -1 -10   19.97    1.68
   0  -1 -10   20.70    1.69
   0  -1 -10   22.33    1.66
   0  -1 -10   21.23    1.40
   0  -1 -10   22.14    1.67
   0  -1 -10   21.34    2.59
   0   1  10   21.08    1.45
   0   1  10   21.30    1.68
   0   1  10   24.94    1.47
   0   1  10   20.91    2.32
   0   1  10   21.14    1.61
   0   1  10   21.40    1.65
   0   1  10   21.90    1.83
  -1  -1 -10   25.67    2.72
  -1  -1 -10   24.94    1.83
  -1  -1 -10   24.31    1.55
  -1  -1 -10   25.31    1.92
  -1  -1 -10   24.56    1.92
   1   1  10   26.16    2.26
   1   1  10   26.94    1.77
   1   1  10   24.49    1.75
   1   1  10   27.20    2.06
   1   1  10   24.37    1.56
   1   1  10   27.35    1.92
  -2  -1 -10    2.52    1.01
  -2  -1 -10    6.56    0.96
  -2  -1 -10    3.46    1.08
  -2  -1 -10    3.74    0.54
  -2  -1 -10    3.63    1.71
   2   1  10    3.65    0.75
   2   1  10    3.96    1.19
   2   1  10    4.36    1.05
   2   1  10    4.45    0.52
   2   1  10    4.07    1.15
   2   1  10    3.85    0.87
  -3  -1 -10    2.79    1.09
  -3  -1 -10    2.29    0.74
   3   1  10    2.80    0.67
   3   1  10    3.70    1.08
   3   1  10    4.37    1.17
   3   1  10    3.45    0.98
  -4  -1 -10   15.06    1.83
   4   1  10   12.65    1.58
   4   1  10   12.82    1.89
   4   1  10   13.32    1.10
   4   1  10   13.36    1.60
  -5  -1 -10    0.54    1.44
  -5  -1 -10   -0.47    1.08
   5   1  10   -0.38    0.96
   5   1  10    0.79    1.04
   5   1  10   -0.08    0.81
  -6  -1 -10    2.13    1.41
  -6  -1 -10    4.93    1.82
   6   1  10    1.70    1.21
   6   1  10    1.46    1.26
   6   1  10    3.08    1.10
   9  -2 -10    2.59    1.30
   9  -2 -10    1.61    1.99
   9  -2 -10    1.54    1.01
   9  -2 -10    1.79    0.81
   9  -2 -10   -0.77    2.37
   9  -2 -10    1.11    0.81
  -9   2  10    2.79    1.07
   8  -2 -10    0.64    1.15
   8  -2 -10    1.07    0.63
   8  -2 -10    2.02    0.74
   8  -2 -10    2.96    0.99
   8  -2 -10   -0.06    1.49
  -8   2  10    1.56    1.02
  -8   2  10    1.39    0.92
   7  -2 -10    0.18    0.53
   7  -2 -10   -0.44    1.39
   7  -2 -10    0.53    0.95
   7  -2 -10    1.50    1.15
   7  -2 -10   -0.63    0.57
  -7   2  10   -0.37    0.81
  -7   2  10   -0.05    0.87
   6  -2 -10    1.68    0.54
   6  -2 -10    0.45    1.17
   6  -2 -10    2.89    1.80
   6  -2 -10    0.17    0.45
  -6   2  10    0.78    0.88
   5  -2 -10   37.24    2.53
   5  -2 -10   36.85    2.66
   5  -2 -10   34.37    2.14
   5  -2 -10   34.40    3.20
   5  -2 -10   34.56    1.98
   5  -2 -10   33.28    2.33
  -5   2  10   35.82    2.52
  -5   2  10   35.94    2.56
  -5   2  10   43.70    3.07
   4  -2 -10   15.67    1.16
   4  -2 -10   12.19    1.81
   4  -2 -10   14.61    2.38
   4  -2 -10   15.24    1.64
  -4   2  10   16.17    1.54
  -4   2  10   15.04    1.88
  -4   2  10   15.55    1.75
  -4   2  10   17.47    1.35
   3  -2 -10    1.51    0.51
   3  -2 -10    0.51    1.54
   3  -2 -10    4.05    0.81
   3  -2 -10    1.20    0.71
   3  -2 -10    1.00    0.94
  -3   2  10    0.46    0.63
  -3   2  10    1.63    0.78
  -3   2  10    0.84    0.70
  -3   2  10   -0.18    0.96
  -3   2  10    1.38    0.46
   2  -2 -10   22.33    2.60
   2  -2 -10   22.57    1.75
   2  -2 -10   23.98    1.57
   2  -2 -10   22.23    1.75
   2  -2 -10   21.23    1.79
  -2   2  10   24.42    1.75
  -2   2  10   23.72    1.68
  -2   2  10   24.72    1.82
  -2   2  10   21.82    1.63
  -2   2  10   19.99    2.16
  -2   2  10   21.76    1.54
   1  -2 -10   39.16    2.48
   1  -2 -10   35.73    2.50
   1  -2 -10   35.97    2.45
   1  -2 -10   38.34    2.32
   1  -2 -10   38.01    3.26
   1  -2 -10   38.06    2.39
  -1   2  10   37.55    3.04
  -1   2  10   37.51    2.41
  -1   2  10   39.18    2.32
  -1   2  10   37.09    2.50
  -1   2  10   38.31    2.53
   0  -2 -10    3.42    0.85
   0  -2 -10    3.42    0.81
   0  -2 -10    2.06    0.59
   0  -2 -10    2.05    0.90
   0  -2 -10    2.31    0.80
   0   2  10    3.33    0.91
   0   2  10    2.79    0.53
   0   2  10    2.67    0.59
   0   2  10    2.75    0.85
   0   2  10    3.84    0.75
  -1  -2 -10    3.55    0.88
  -1  -2 -10    4.10    1.08
  -1  -2 -10    2.73    0.56
  -1  -2 -10    3.25    0.99
   1   2  10    3.03    0.95
   1   2  10    4.74    1.05
   1   2  10    3.06    0.70
   1   2  10    3.67    0.68
   1   2  10    3.43    0.63
   1   2  10    3.49    0.98
  -2  -2 -10   11.26    0.95
  -2  -2 -10   14.99    2.39
  -2  -2 -10   11.91    1.83
  -2  -2 -10   12.65    1.21
   2   2  10   11.00    1.02
   2   2  10   11.14    0.96
   2   2  10   11.70    1.22
   2   2  10   13.86    1.65
   2   2  10   11.11    1.37
  -3  -2 -10   70.75    4.51
  -3  -2 -10   72.46    5.10
  -3  -2 -10   64.89    3.93
   3   2  10   75.77    4.44
   3   2  10   77.47    3.90
   3   2  10   77.01    4.51
   3   2  10   69.60    3.89
  -4  -2 -10    7.83    1.54
  -4  -2 -10    8.00    2.27
   4   2  10    7.93    1.48
   4   2  10   11.80    1.35
   4   2  10    8.96    0.78
   4   2  10   11.61    1.70
  -5  -2 -10    0.15    1.49
  -5  -2 -10    0.50    1.16
   5   2  10   -0.06    0.93
   5   2  10   -0.61    1.06
   5   2  10    0.33    0.81
  -6  -2 -10    5.86    1.89
   6   2  10    7.81    2.75
   6   2  10    5.35    1.38
   6   2  10    7.30    1.45
   9  -3 -10    0.74    0.91
   9  -3 -10   -0.24    0.96
   9  -3 -10    0.62    1.59
   9  -3 -10    1.19    1.54
  -9   3  10    1.30    0.94
   8  -3 -10    6.26    1.04
   8  -3 -10    3.88    0.96
   8  -3 -10    7.62    1.21
   8  -3 -10    3.67    1.42
   8  -3 -10    5.22    1.26
   8  -3 -10    0.72    1.67
  -8   3  10    5.04    1.28
   7  -3 -10    0.59    1.56
   7  -3 -10    6.97    1.28
   7  -3 -10    2.89    0.61
   7  -3 -10    2.20    0.82
   7  -3 -10    1.71    0.64
   7  -3 -10    3.26    1.33
  -7   3  10    3.61    0.98
  -7   3  10    3.51    1.17
   6  -3 -10    0.68    0.82
   6  -3 -10   -0.21    1.09
   6  -3 -10    1.25    0.62
   6  -3 -10    1.39    1.68
   6  -3 -10   -0.72    0.91
   6  -3 -10   -1.27    0.64
  -6   3  10   -1.58    1.20
  -6   3  10    0.15    0.63
  -6   3  10   -0.04    0.71
   5  -3 -10   85.15    5.02
   5  -3 -10   83.20    4.65
   5  -3 -10   77.48    4.74
  -5   3  10   87.18    4.89
  -5   3  10   84.54    4.78
  -5   3  10   84.57    4.93
   4  -3 -10    0.40    0.70
   4  -3 -10    0.06    0.67
   4  -3 -10    0.63    1.01
   4  -3 -10    2.06    2.40
  -4   3  10   -0.21    0.61
  -4   3  10    0.49    0.49
  -4   3  10   -0.14    0.87
  -4   3  10   -0.07    0.72
   3  -3 -10    4.46    1.26
   3  -3 -10    4.17    0.85
   3  -3 -10    3.77    0.82
   3  -3 -10    3.15    2.40
  -3   3  10    4.66    0.95
  -3   3  10    4.24    1.19
  -3   3  10    3.14    0.80
  -3   3  10    4.00    0.75
   2  -3 -10   24.15    1.86
   2  -3 -10   31.05    3.22
   2  -3 -10   24.75    2.08
   2  -3 -10   28.21    2.01
   2  -3 -10   21.75    1.79
   2  -3 -10   27.03    1.85
  -2   3  10   21.62    2.68
  -2   3  10   24.87    1.87
  -2   3  10   24.80    1.81
  -2   3  10   26.60    1.85
   1  -3 -10    2.21    0.83
   1  -3 -10    5.41    2.44
   1  -3 -10    0.67    0.79
   1  -3 -10    0.58    0.66
   1  -3 -10    0.62    0.68
   1  -3 -10    1.15    0.61
  -1   3  10    1.97    0.66
  -1   3  10    1.29    0.76
  -1   3  10    1.71    0.31
  -1   3  10    2.25    1.50
  -1   3  10    1.43    0.77
  -1   3  10    1.59    0.28
   0  -3 -10   16.29    3.01
   0  -3 -10    9.42    1.05
   0  -3 -10    9.75    1.22
   0  -3 -10    7.30    0.96
   0  -3 -10    8.83    1.23
   0  -3 -10   10.10    1.27
   0   3  10   10.53    1.11
   0   3  10    9.29    1.24
   0   3  10   10.03    1.34
   0   3  10   10.78    0.90
   0   3  10    9.47    0.84
   0   3  10    9.97    1.25
  -1  -3 -10   -1.19    1.56
  -1  -3 -10    0.35    0.48
  -1  -3 -10   -0.66    0.52
  -1  -3 -10   -0.18    0.84
   1   3  10    0.43    0.83
   1   3  10   -0.08    0.83
   1   3  10    0.04    0.47
   1   3  10    0.03    0.53
  -2  -3 -10   16.12    2.65
  -2  -3 -10   15.75    1.29
  -2  -3 -10   17.61    1.86
  -2  -3 -10   20.30    1.43
   2   3  10   17.17    1.74
   2   3  10   16.53    1.84
   2   3  10   20.39    1.50
  -3  -3 -10   13.67    1.82
  -3  -3 -10   14.72    2.55
   3   3  10   15.14    1.35
   3   3  10   14.56    1.85
   3   3  10   14.71    1.46
   3   3  10   14.19    1.70
  -4  -3 -10    1.64    1.57
  -4  -3 -10    1.45    1.22
   4   3  10    2.00    1.15
   4   3  10    1.15    1.19
   4   3  10    2.37    0.60
  -5  -3 -10    4.57    1.48
  -5  -3 -10    2.06    1.74
   5   3  10    5.09    1.15
   5   3  10    4.32    1.44
   5   3  10    5.98    0.71
   5   3  10    5.54    1.45
  -6  -3 -10    6.00    1.77
  -6  -3 -10    2.07    1.37
   6   3  10    0.18    0.88
   6   3  10   -0.01    1.22
   9  -4 -10    1.58    0.89
   9  -4 -10   -0.79    0.94
   9  -4 -10   -1.02    1.43
   9  -4 -10    0.79    1.88
  -9   4  10    0.97    1.19
   8  -4 -10    3.08    1.63
   8  -4 -10   -0.39    1.63
   8  -4 -10    4.81    1.35
   8  -4 -10    3.44    0.67
   8  -4 -10    4.41    1.50
  -8   4  10    2.95    1.27
  -8   4  10    4.05    0.92
   7  -4 -10    8.21    1.28
   7  -4 -10    9.09    1.59
   7  -4 -10    2.18    1.84
   7  -4 -10    4.21    1.07
  -7   4  10    6.35    1.24
  -7   4  10    4.70    1.30
  -7   4  10    5.79    1.02
   6  -4 -10   -1.38    0.67
   6  -4 -10   -0.96    0.76
   6  -4 -10   -0.03    1.15
  -6   4  10    0.90    0.69
  -6   4  10    0.90    1.01
  -6   4  10    0.28    0.82
   5  -4 -10    9.00    1.20
   5  -4 -10    5.77    2.05
   5  -4 -10    7.63    1.21
  -5   4  10   10.68    1.54
  -5   4  10    9.83    1.35
  -5   4  10    8.90    1.14
   4  -4 -10   15.29    2.85
   4  -4 -10   18.70    1.59
   4  -4 -10   24.19    2.03
   4  -4 -10   18.16    1.70
  -4   4  10   18.09    1.76
  -4   4  10   18.97    1.72
  -4   4  10   23.18    1.63
   3  -4 -10  134.96    8.52
   3  -4 -10  148.89    7.88
   3  -4 -10  156.77    8.01
   3  -4 -10  140.75    7.72
  -3   4  10  146.64    7.89
  -3   4  10  143.17    7.74
  -3   4  10  148.75    8.00
  -3   4  10  141.28    8.37
   2  -4 -10    2.34    1.76
   2  -4 -10    2.98    1.04
   2  -4 -10    3.05    0.96
   2  -4 -10    1.97    0.69
  -2   4  10    1.76    0.94
  -2   4  10    1.21    0.89
  -2   4  10    1.92    0.73
   1  -4 -10    6.42    1.11
   1  -4 -10    4.65    1.14
   1  -4 -10    6.75    1.07
   1  -4 -10    5.34    0.89
   1  -4 -10    8.60    2.08
  -1   4  10    6.46    1.19
  -1   4  10    5.35    1.04
  -1   4  10    6.31    1.00
  -1   4  10    5.54    1.08
   0  -4 -10    9.09    1.24
   0  -4 -10    7.73    1.10
   0  -4 -10    8.07    1.21
   0  -4 -10    9.94    1.15
   0   4  10   10.16    0.82
   0   4  10    8.25    1.28
   0   4  10    8.99    1.20
   0   4  10   10.03    1.49
  -1  -4 -10    2.06    0.68
  -1  -4 -10    7.49    2.20
  -1  -4 -10    2.15    0.65
  -1  -4 -10    2.21    1.06
  -1  -4 -10    3.98    1.30
   1   4  10    1.71    1.04
   1   4  10    2.67    1.00
   1   4  10    0.60    1.05
   1   4  10    2.76    0.94
   1   4  10    2.73    0.58
  -2  -4 -10    7.90    0.95
  -2  -4 -10   12.67    2.59
   2   4  10   11.91    1.13
   2   4  10    7.97    1.09
   2   4  10   10.29    1.48
   2   4  10    9.56    1.45
   2   4  10    9.92    1.09
  -3  -4 -10    0.82    1.12
  -3  -4 -10    1.10    1.88
   3   4  10    0.86    1.06
   3   4  10    2.04    0.78
   3   4  10    1.22    1.04
   3   4  10    1.42    0.70
  -4  -4 -10    0.09    1.53
  -4  -4 -10    2.90    1.35
   4   4  10    2.31    1.14
   4   4  10    0.59    1.15
   4   4  10    1.59    0.68
   4   4  10    1.19    0.85
  -5  -4 -10    1.09    1.54
   5   4  10    0.66    0.59
   5   4  10   -0.35    1.18
   5   4  10   -0.41    0.83
   5   4  10    1.28    1.19
   8  -5 -10   -1.20    1.03
   8  -5 -10    1.51    1.89
  -8   5  10    0.86    1.14
   7  -5 -10    0.51    1.26
   7  -5 -10   -1.54    0.66
   7  -5 -10   -1.39    0.88
   7  -5 -10    0.54    1.72
  -7   5  10    0.01    1.04
  -7   5  10   -0.07    0.93
   6  -5 -10   13.84    1.91
   6  -5 -10    9.35    1.71
   6  -5 -10    9.25    1.22
  -6   5  10   12.06    1.35
  -6   5  10   11.57    1.50
   5  -5 -10    0.49    1.16
   5  -5 -10    0.05    1.85
   5  -5 -10   -1.73    0.80
  -5   5  10    1.37    0.30
  -5   5  10    0.77    1.03
  -5   5  10   -0.83    0.72
   4  -5 -10    4.91    0.74
   4  -5 -10    4.25    2.28
   4  -5 -10    4.04    1.15
  -4   5  10    3.08    0.61
  -4   5  10    7.39    1.32
  -4   5  10    6.48    1.14
   3  -5 -10    3.84    0.69
   3  -5 -10    4.40    3.06
   3  -5 -10    5.71    1.21
   3  -5 -10    3.85    1.27
  -3   5  10    4.05    1.05
  -3   5  10    5.94    0.88
  -3   5  10    4.32    1.08
   2  -5 -10    0.05    0.93
   2  -5 -10    0.63    1.83
   2  -5 -10    0.29    1.39
   2  -5 -10    0.24    0.52
  -2   5  10   -0.19    0.80
  -2   5  10    0.14    0.53
  -2   5  10   -0.41    0.69
   1  -5 -10   36.42    2.67
   1  -5 -10   39.94    2.42
   1  -5 -10   39.90    2.87
   1  -5 -10   46.42    3.74
  -1   5  10   38.22    2.61
  -1   5  10   36.60    2.73
  -1   5  10   36.25    2.50
   0  -5 -10   13.26    1.61
   0  -5 -10   16.30    1.31
   0  -5 -10   14.55    1.32
   0  -5 -10   11.85    1.35
   0   5  10    9.47    0.88
   0   5  10   12.98    1.44
   0   5  10   11.63    1.72
   0   5  10   12.02    1.32
  -1  -5 -10    7.21    1.05
  -1  -5 -10    5.72    3.49
   1   5  10    4.57    0.46
   1   5  10    9.21    1.51
   1   5  10    7.85    1.77
  -2  -5 -10    1.41    1.08
  -2  -5 -10   -0.05    1.94
  -2  -5 -10   -0.72    0.31
   2   5  10    0.49    1.01
   2   5  10    0.03    0.73
   2   5  10    0.74    0.96
  -3  -5 -10    3.53    1.30
  -3  -5 -10   -0.03    1.73
   3   5  10    1.89    1.32
   3   5  10    2.74    0.87
   3   5  10    1.80    1.11
  -4  -5 -10    6.06    1.62
  -4  -5 -10    8.49    2.15
   4   5  10    5.31    1.53
   4   5  10    9.52    1.61
   4   5  10    9.45    1.25
   4   5  10   10.63    1.33
   7  -6 -10   10.67    1.78
  -7   6  10   17.84    1.85
  -7   6  10   13.80    1.81
   6  -6 -10   15.14    1.18
   6  -6 -10   13.56    2.04
   6  -6 -10    9.90    1.80
  -6   6  10   15.16    1.69
  -6   6  10   14.07    1.75
   5  -6 -10   -1.24    1.02
   5  -6 -10    0.23    1.21
   5  -6 -10    0.23    1.81
  -5   6  10    1.19    0.92
  -5   6  10    0.96    0.88
   4  -6 -10    7.56    1.49
   4  -6 -10    3.89    1.33
   4  -6 -10    4.03    2.13
  -4   6  10    5.53    1.14
  -4   6  10    2.90    0.31
  -4   6  10    5.96    1.27
   3  -6 -10    2.07    0.50
   3  -6 -10    1.95    1.36
   3  -6 -10    1.80    1.21
   3  -6 -10    1.59    1.92
  -3   6  10    2.84    0.98
  -3   6  10    3.55    1.15
   2  -6 -10    6.13    0.79
   2  -6 -10    5.68    1.29
   2  -6 -10    3.38    2.15
   2  -6 -10    6.04    1.30
  -2   6  10    4.77    1.13
  -2   6  10    5.37    1.28
   1  -6 -10   11.07    2.48
   1  -6 -10    9.25    1.43
   1  -6 -10   10.01    2.39
  -1   6  10    9.87    1.45
  -1   6  10   10.11    1.35
   0  -6 -10    3.00    0.81
   0  -6 -10    0.34    0.85
   0  -6 -10    3.69    1.19
   0  -6 -10    1.54    1.80
   0   6  10   -0.51    0.65
   0   6  10   -0.46    0.90
   0   6  10    0.62    0.92
  -1  -6 -10    8.57    2.38
  -1  -6 -10    8.38    1.58
   1   6  10    9.57    1.69
   1   6  10   10.61    1.43
   1   6  10    9.11    1.55
  -2  -6 -10    1.98    2.04
  -2  -6 -10    3.66    1.31
   2   6  10    1.95    0.97
   2   6  10    2.79    1.34
   2   6  10    1.92    0.98
  -3  -6 -10    1.91    1.81
  -3  -6 -10    7.65    1.62
   3   6  10    5.32    1.59
   3   6  10    5.47    1.27
   3   6  10    6.07    1.14
  -4  -6 -10   23.12    2.59
   4   6  10   25.42    2.03
   4   6  10   22.87    2.45
   7  -7 -10    4.75    2.33
   7  -7 -10   -1.17    1.29
   7  -7 -10    1.64    1.51
  -7   7  10    1.36    1.05
  -7   7  10    1.93    1.07
   6  -7 -10    3.31    2.63
   6  -7 -10    1.81    1.56
   5  -7 -10   35.28    2.74
   5  -7 -10   23.58    2.59
  -5   7  10   29.30    2.38
  -5   7  10   25.73    2.37
   4  -7 -10   -0.36    1.11
   4  -7 -10    0.90    1.96
   4  -7 -10    2.10    1.27
  -4   7  10    1.45    0.96
  -4   7  10    0.77    0.90
   3  -7 -10    2.09    1.18
   3  -7 -10    1.16    1.13
   3  -7 -10   -0.37    1.93
  -3   7  10    0.23    0.90
  -3   7  10   -0.02    0.87
   2  -7 -10    6.92    1.40
   2  -7 -10    5.85    1.52
   2  -7 -10    3.78    2.29
  -2   7  10    5.64    1.28
  -2   7  10    6.56    1.45
   1  -7 -10    1.90    1.05
   1  -7 -10    1.89    1.31
   1  -7 -10    1.80    2.15
  -1   7  10    1.40    0.94
  -1   7  10    2.14    1.07
   0  -7 -10    1.35    1.12
   0  -7 -10    4.34    2.12
   0  -7 -10   -0.34    0.82
   0   7  10    1.37    0.88
   0   7  10    2.55    1.16
  -1  -7 -10   22.59    2.28
   1   7  10   18.23    2.05
   1   7  10   14.73    1.75
  -2  -7 -10    0.20    2.25
   2   7  10    2.85    1.10
   2   7  10    3.41    1.05
   2   7  10    5.91    2.37
   5  -8 -10    7.49    1.97
   5  -8 -10   14.31    2.48
  -5   8  10   10.58    1.64
  -5   8  10    8.06    1.45
   4  -8 -10   -2.18    3.49
   4  -8 -10    1.76    1.32
  -4   8  10    2.25    1.00
  -4   8  10   -0.67    0.77
   3  -8 -10    0.34    1.20
   3  -8 -10    0.84    1.33
  -3   8  10    1.98    0.88
  -3   8  10    0.54    1.04
   2  -8 -10    1.15    1.23
   2  -8 -10   -1.03    2.08
   2  -8 -10   -1.06    1.13
  -2   8  10   -0.08    0.93
  -2   8  10   -0.02    0.87
   1  -8 -10    8.00    1.63
   1  -8 -10    5.70    1.30
   1  -8 -10    3.33    2.27
  -1   8  10    5.40    1.28
  -1   8  10    5.91    1.44
   0  -8 -10    0.96    2.00
   0  -8 -10    2.59    0.76
   0   8  10    0.31    0.90
   0   8  10    0.59    1.36
  -1  -8 -10    3.44    1.32
   1   8  10    2.15    1.30
   1   8  10    2.48    1.04
   3   8 -11    0.82    1.30
   3   8 -11    3.60    0.90
  -3  -8  11   -0.79    1.03
  -3  -8  11    2.48    1.04
   2   8 -11    0.14    0.66
   2   8 -11    2.83    1.58
   2   8 -11    1.30    1.21
  -2  -8  11   -0.06    1.98
  -2  -8  11    3.64    1.12
  -2  -8  11    2.20    0.83
   1   8 -11    2.56    1.13
   1   8 -11    0.72    0.45
   1   8 -11    0.81    1.27
   1   8 -11    3.01    1.58
  -1  -8  11    2.36    1.46
  -1  -8  11    1.71    0.95
  -1  -8  11    1.17    2.01
   0   8 -11   10.90    1.49
   0   8 -11    9.44    1.89
   0   8 -11   10.71    1.98
   0  -8  11    9.76    1.48
   0  -8  11   13.65    2.18
   0  -8  11    8.58    1.60
  -1   8 -11    9.10    1.84
  -1   8 -11    8.31    1.26
   1  -8  11    7.62    1.47
   1  -8  11    6.84    1.22
  -2   8 -11    7.63    1.97
  -2   8 -11    7.55    1.94
   2  -8  11   11.11    1.48
   2  -8  11    6.51    1.82
   2  -8  11    6.75    1.55
  -3   8 -11    0.30    0.42
  -3   8 -11    2.41    2.63
  -3   8 -11    0.52    1.40
   3  -8  11   -0.26    0.98
   3  -8  11   -1.77    1.24
   3  -8  11    2.09    0.88
   5   7 -11   -1.71    1.20
   5   7 -11    1.03    1.13
   5   7 -11    3.71    1.44
  -5  -7  11   -0.30    1.05
   4   7 -11   -1.17    1.10
   4   7 -11    1.10    1.28
   4   7 -11   -0.13    0.92
  -4  -7  11    0.84    0.97
  -4  -7  11    1.04    1.16
   3   7 -11    0.73    1.36
   3   7 -11    0.19    1.15
   3   7 -11   -0.35    0.80
  -3  -7  11    0.91    1.16
  -3  -7  11    0.95    0.93
   2   7 -11    2.46    0.64
   2   7 -11    5.34    1.30
   2   7 -11    3.52    1.40
  -2  -7  11    3.65    1.39
  -2  -7  11    5.29    1.18
   1   7 -11   19.44    2.22
   1   7 -11   16.57    1.76
  -1  -7  11   17.51    2.17
  -1  -7  11   16.13    1.73
  -1  -7  11   14.36    1.71
   0   7 -11    3.89    1.45
   0   7 -11    4.61    1.51
   0   7 -11    3.64    1.20
   0  -7  11    5.45    1.50
   0  -7  11    3.03    1.06
   0  -7  11    4.88    1.81
  -1   7 -11    2.33    0.90
  -1   7 -11    2.36    1.44
  -1   7 -11    3.50    1.62
   1  -7  11    1.81    1.33
   1  -7  11    1.20    1.77
   1  -7  11    1.96    0.92
  -2   7 -11   -0.96    1.23
  -2   7 -11   -0.43    1.51
  -2   7 -11    0.81    0.85
   2  -7  11   -1.59    1.13
   2  -7  11    0.81    0.94
  -3   7 -11    0.22    1.65
  -3   7 -11    0.78    0.32
  -3   7 -11    0.09    1.25
   3  -7  11    0.50    0.97
   3  -7  11    0.36    0.89
   3  -7  11   -0.92    1.14
  -4   7 -11    0.74    2.46
   4  -7  11   -0.48    1.22
   4  -7  11    0.06    1.02
   4  -7  11   -0.10    0.94
   6   6 -11    0.41    1.10
   6   6 -11   -1.20    1.26
   6   6 -11    0.56    1.22
  -6  -6  11    1.38    2.06
  -6  -6  11   -0.60    1.06
   5   6 -11   -0.45    0.92
   5   6 -11   -0.71    1.24
   5   6 -11   -0.59    1.16
  -5  -6  11   -0.15    0.98
  -5  -6  11   -0.85    0.97
   4   6 -11   -0.67    0.87
   4   6 -11    0.45    1.21
   4   6 -11    0.30    0.84
  -4  -6  11    0.63    0.93
  -4  -6  11    0.45    1.01
   3   6 -11   10.70    1.31
   3   6 -11   10.97    1.23
   3   6 -11   10.43    1.77
   3   6 -11    9.75    1.33
  -3  -6  11    8.41    1.49
  -3  -6  11    9.48    1.66
   2   6 -11   -1.52    1.04
   2   6 -11    1.28    0.72
   2   6 -11    1.65    1.02
   2   6 -11    1.49    0.36
   2   6 -11    1.18    1.27
  -2  -6  11    3.18    1.15
  -2  -6  11    0.85    0.92
   1   6 -11    1.57    1.21
   1   6 -11    1.33    0.55
   1   6 -11    1.07    0.33
   1   6 -11    1.78    1.16
   1   6 -11    0.83    1.01
  -1  -6  11   -0.74    1.15
  -1  -6  11    1.20    0.83
  -1  -6  11    1.96    1.21
  -1  -6  11    0.41    1.44
   0   6 -11    3.01    1.41
   0   6 -11    2.48    1.27
   0   6 -11    3.77    0.96
   0  -6  11    3.35    1.33
   0  -6  11    6.58    1.11
   0  -6  11    3.51    1.06
  -1   6 -11   -0.66    1.39
  -1   6 -11    0.93    1.03
  -1   6 -11   -0.21    0.70
   1  -6  11   -0.87    0.99
   1  -6  11    0.40    0.88
   1  -6  11   -0.05    0.71
  -2   6 -11   -0.01    0.37
  -2   6 -11   -0.38    1.15
  -2   6 -11    1.61    1.52
   2  -6  11    0.86    0.56
   2  -6  11    0.02    1.45
   2  -6  11   -0.43    1.06
  -3   6 -11   15.46    1.99
  -3   6 -11   19.13    2.92
   3  -6  11   15.32    1.07
   3  -6  11   11.92    1.93
   3  -6  11   13.85    1.68
   3  -6  11   13.77    1.79
  -4   6 -11   -0.47    1.17
  -4   6 -11   -0.04    1.67
   4  -6  11   -1.21    1.06
   4  -6  11    0.74    0.97
   4  -6  11   -1.51    0.86
  -5   6 -11    0.63    1.79
  -5   6 -11    0.87    1.18
   5  -6  11    1.35    1.34
   5  -6  11   -0.98    1.12
   7   5 -11    1.31    1.94
   7   5 -11    1.39    1.36
   7   5 -11    1.95    1.24
  -7  -5  11    2.20    1.24
   6   5 -11    0.21    0.99
   6   5 -11    1.20    0.99
   6   5 -11    2.07    1.34
  -6  -5  11    0.39    0.99
   5   5 -11    3.32    1.07
   5   5 -11    3.87    1.37
   5   5 -11    2.73    1.10
  -5  -5  11    3.79    1.35
  -5  -5  11    4.27    1.25
   4   5 -11    5.80    1.36
   4   5 -11    6.43    1.19
   4   5 -11    7.45    1.62
   4   5 -11    4.69    1.16
  -4  -5  11    5.19    1.31
  -4  -5  11    4.74    0.37
  -4  -5  11    5.54    1.25
   3   5 -11    0.34    0.77
   3   5 -11   -1.41    1.44
   3   5 -11    0.75    0.85
  -3  -5  11   -0.12    0.88
   2   5 -11    5.34    1.24
   2   5 -11    4.29    1.10
   2   5 -11    4.45    0.85
   2   5 -11    4.60    0.83
  -2  -5  11    3.79    0.78
  -2  -5  11    4.02    1.21
  -2  -5  11    3.18    1.07
   1   5 -11    2.51    0.58
   1   5 -11    2.91    1.46
   1   5 -11    5.30    0.76
   1   5 -11    3.58    1.37
  -1  -5  11    2.62    1.00
  -1  -5  11    1.11    1.10
  -1  -5  11    4.20    1.22
  -1  -5  11    2.98    0.77
   0   5 -11   13.37    0.99
   0   5 -11   11.33    1.33
   0  -5  11   14.07    1.60
   0  -5  11   13.13    1.30
   0  -5  11   10.99    1.68
   0  -5  11   12.07    1.30
   0  -5  11   11.57    1.07
  -1   5 -11    0.34    0.61
  -1   5 -11    0.00    1.18
  -1   5 -11    0.85    1.43
   1  -5  11    0.10    0.88
   1  -5  11    0.49    0.75
   1  -5  11    1.07    0.51
  -2   5 -11    0.62    1.11
  -2   5 -11   -0.12    0.28
  -2   5 -11    0.67    2.04
   2  -5  11   -0.41    0.85
   2  -5  11    0.13    0.37
   2  -5  11    0.22    0.98
   2  -5  11   -0.66    0.64
  -3   5 -11    1.10    1.13
  -3   5 -11    0.75    1.51
   3  -5  11    1.50    0.94
   3  -5  11    1.35    1.02
   3  -5  11    0.64    1.06
  -4   5 -11   13.81    2.52
  -4   5 -11   12.39    1.75
   4  -5  11   10.26    1.75
   4  -5  11   11.54    1.73
   4  -5  11    9.26    1.49
  -5   5 -11    0.44    1.08
  -5   5 -11    0.68    1.86
   5  -5  11    0.42    1.02
   5  -5  11   -0.11    1.10
   5  -5  11    1.42    1.12
   7   4 -11    3.58    1.32
   7   4 -11    2.89    1.42
  -7  -4  11    5.97    1.50
   6   4 -11    5.04    1.29
   6   4 -11    3.53    1.23
   6   4 -11    2.90    1.43
  -6  -4  11    3.97    1.26
   5   4 -11    0.41    0.96
   5   4 -11    1.40    1.11
  -5  -4  11    2.58    1.12
   4   4 -11   19.61    1.73
   4   4 -11   24.83    2.30
   4   4 -11   21.65    3.16
   4   4 -11   19.87    1.65
  -4  -4  11   19.15    2.01
  -4  -4  11   18.07    1.93
   3   4 -11   -0.21    0.79
   3   4 -11   -0.80    0.73
   3   4 -11    0.21    1.06
   3   4 -11   -0.32    0.85
  -3  -4  11   -0.57    0.50
  -3  -4  11   -0.20    0.93
  -3  -4  11   -0.48    0.89
   2   4 -11   -0.16    0.97
   2   4 -11   -0.38    0.59
   2   4 -11   -0.01    1.11
   2   4 -11    0.77    1.00
  -2  -4  11    3.54    1.09
  -2  -4  11   -0.15    0.80
  -2  -4  11    1.78    0.60
  -2  -4  11    1.40    1.03
  -2  -4  11   -0.48    0.63
   1   4 -11   -0.14    0.70
   1   4 -11    0.59    1.13
   1   4 -11   -0.13    0.98
   1   4 -11    1.31    0.63
  -1  -4  11   -0.29    1.00
  -1  -4  11   -0.10    0.52
  -1  -4  11    1.87    0.92
  -1  -4  11    0.61    0.60
  -1  -4  11   -0.41    0.52
  -1  -4  11    0.07    0.47
   0   4 -11    6.06    0.95
   0   4 -11    6.39    1.40
   0   4 -11    6.62    1.60
   0   4 -11    5.75    0.83
   0  -4  11    6.76    1.24
   0  -4  11    4.24    1.23
   0  -4  11    7.96    1.12
   0  -4  11    6.35    0.81
   0  -4  11    7.51    0.83
   0  -4  11    5.53    0.91
  -1   4 -11   19.41    1.49
  -1   4 -11   18.61    2.53
  -1   4 -11   20.93    2.08
   1  -4  11   21.58    1.99
   1  -4  11   22.88    1.41
   1  -4  11   23.03    2.03
   1  -4  11   22.00    1.71
   1  -4  11   22.39    1.43
   1  -4  11   19.17    1.73
  -2   4 -11    2.37    1.54
  -2   4 -11    1.62    1.10
   2  -4  11    1.27    0.97
   2  -4  11    2.85    1.11
   2  -4  11    1.90    0.89
   2  -4  11    1.65    0.48
  -3   4 -11   13.71    2.53
  -3   4 -11   14.85    1.99
   3  -4  11   11.87    2.64
   3  -4  11   13.92    1.73
   3  -4  11   13.72    0.98
  -4   4 -11    0.54    0.25
  -4   4 -11   -0.49    1.59
  -4   4 -11    1.05    1.25
   4  -4  11   -0.46    1.00
   4  -4  11    0.05    0.86
   4  -4  11    0.87    0.43
   4  -4  11    1.21    1.04
  -5   4 -11    0.86    1.68
  -5   4 -11    0.34    1.04
   5  -4  11    0.61    0.44
   5  -4  11   -0.93    0.83
   5  -4  11   -1.40    1.01
   5  -4  11    2.23    1.26
  -6   4 -11    5.43    1.33
  -6   4 -11    4.26    2.05
   6  -4  11    3.15    1.43
   6  -4  11    5.04    1.46
   6  -4  11    3.42    2.07
   8   3 -11    1.56    1.34
   8   3 -11    0.48    1.09
   8   3 -11   -1.08    1.07
  -8  -3  11    0.46    1.12
   7   3 -11   -0.04    1.14
   7   3 -11    0.88    1.10
   7   3 -11   -1.64    1.19
  -7  -3  11    1.14    1.08
   6   3 -11    1.52    1.03
   6   3 -11    0.97    1.29
   6   3 -11    0.43    0.84
  -6  -3  11   -0.79    0.94
   5   3 -11    0.36    0.99
   5   3 -11   -0.80    0.94
   5   3 -11   -1.82    0.98
   5   3 -11    0.82    0.69
  -5  -3  11    0.20    0.91
  -5  -3  11   -0.01    0.91
   4   3 -11   14.49    1.58
   4   3 -11   12.42    1.74
   4   3 -11   14.37    1.55
  -4  -3  11   12.00    1.65
  -4  -3  11   13.86    1.51
  -4  -3  11   11.55    1.69
   3   3 -11   72.08    4.40
   3   3 -11   70.95    4.40
   3   3 -11   71.53    4.32
   3   3 -11   70.51    4.36
  -3  -3  11   71.19    4.32
  -3  -3  11   73.18    4.38
  -3  -3  11   71.52    4.42
  -3  -3  11   75.22    4.24
   2   3 -11   33.98    2.46
   2   3 -11   30.40    2.21
   2   3 -11   31.33    2.13
   2   3 -11   29.80    2.14
   2   3 -11   35.41    2.64
  -2  -3  11   36.26    2.47
  -2  -3  11   26.86    1.78
  -2  -3  11   32.81    2.45
  -2  -3  11   30.10    2.13
  -2  -3  11   28.75    1.99
  -2  -3  11   31.53    2.53
   1   3 -11    1.67    1.08
   1   3 -11    1.81    0.77
   1   3 -11    0.86    0.65
   1   3 -11    1.68    0.77
   1   3 -11    2.86    1.20
  -1  -3  11    1.55    0.57
  -1  -3  11    2.41    0.93
  -1  -3  11    2.30    0.56
  -1  -3  11    2.22    0.73
  -1  -3  11    1.67    1.10
  -1  -3  11    5.25    0.92
  -1  -3  11    2.45    0.96
   0   3 -11    1.62    0.65
   0   3 -11    2.34    0.66
   0   3 -11    1.83    1.10
   0   3 -11    1.59    1.35
   0  -3  11    3.73    0.68
   0  -3  11    2.08    0.70
   0  -3  11    2.05    0.66
   0  -3  11    1.92    1.01
   0  -3  11    2.98    1.01
  -1   3 -11    2.18    1.07
  -1   3 -11    1.62    0.54
  -1   3 -11    0.51    0.45
  -1   3 -11    0.59    1.30
  -1   3 -11    1.34    0.56
   1  -3  11    0.89    0.84
   1  -3  11    2.10    0.61
   1  -3  11    2.03    0.64
   1  -3  11    1.75    0.97
  -2   3 -11    6.83    1.79
  -2   3 -11    7.04    1.37
  -2   3 -11    5.95    0.73
   2  -3  11    8.49    1.39
   2  -3  11    7.65    0.88
   2  -3  11    9.45    1.40
   2  -3  11    8.00    1.15
  -3   3 -11   -0.99    1.41
  -3   3 -11    0.37    0.95
  -3   3 -11    0.77    0.27
   3  -3  11    0.00    1.12
   3  -3  11   -0.47    0.83
   3  -3  11   -0.67    0.66
   3  -3  11    1.32    0.59
  -4   3 -11    1.79    1.60
  -4   3 -11    2.67    1.04
  -4   3 -11    1.00    0.27
   4  -3  11    1.95    0.67
   4  -3  11    1.84    1.03
   4  -3  11    0.69    1.09
   4  -3  11    3.43    0.98
  -5   3 -11    1.03    0.29
  -5   3 -11    1.98    1.02
  -5   3 -11    1.85    1.77
   5  -3  11    1.47    1.17
   5  -3  11    1.56    1.03
   5  -3  11    0.90    0.91
   5  -3  11    1.15    0.66
  -6   3 -11    2.32    1.67
   6  -3  11    2.04    0.76
   6  -3  11    2.20    1.48
   6  -3  11    3.85    1.20
   6  -3  11    3.27    1.35
   8   2 -11   -1.05    1.16
   8   2 -11    0.18    1.34
   8   2 -11   -0.95    1.19
  -8  -2  11    0.26    1.06
   7   2 -11    0.34    1.15
   7   2 -11   -1.75    1.02
   7   2 -11    1.99    0.91
   7   2 -11    0.68    0.69
   7   2 -11    0.06    0.91
  -7  -2  11    0.25    1.03
   6   2 -11    0.78    0.77
   6   2 -11    0.17    0.87
   6   2 -11   -0.66    1.00
  -6  -2  11   -1.32    0.85
   5   2 -11    4.15    1.14
   5   2 -11    6.36    1.15
   5   2 -11    3.53    1.13
   5   2 -11    6.44    1.53
  -5  -2  11    3.02    1.01
  -5  -2  11    4.07    1.16
   4   2 -11    4.87    1.26
   4   2 -11    3.16    0.87
   4   2 -11    6.93    1.15
   4   2 -11    3.95    1.12
  -4  -2  11    2.78    1.07
  -4  -2  11    4.51    1.09
  -4  -2  11    3.25    0.96
  -4  -2  11    3.16    1.01
   3   2 -11    2.82    1.10
   3   2 -11    3.03    1.16
   3   2 -11    2.14    0.89
   3   2 -11    3.85    1.91
   3   2 -11    2.53    1.00
  -3  -2  11    2.93    1.09
  -3  -2  11    2.70    0.84
  -3  -2  11    2.60    1.00
  -3  -2  11    1.93    0.86
   2   2 -11    2.42    0.74
   2   2 -11    3.12    0.87
   2   2 -11    3.04    0.79
   2   2 -11    4.03    1.24
   2   2 -11    2.18    0.72
  -2  -2  11    2.67    0.41
  -2  -2  11    4.10    0.92
  -2  -2  11    5.89    1.31
  -2  -2  11    3.27    0.43
  -2  -2  11    5.49    1.03
   1   2 -11   92.09    5.01
   1   2 -11   90.75    5.29
   1   2 -11   92.02    5.62
   1   2 -11   96.61    5.22
   1   2 -11   93.82    5.08
   1   2 -11   88.44    5.09
  -1  -2  11   97.38    5.20
  -1  -2  11   90.64    4.92
  -1  -2  11   84.24    5.52
  -1  -2  11   89.95    4.87
  -1  -2  11   95.75    5.42
  -1  -2  11   92.62    5.11
   0   2 -11   14.56    1.16
   0   2 -11   12.94    1.60
   0   2 -11   13.64    2.08
   0   2 -11   12.92    1.23
   0   2 -11   13.11    1.07
   0   2 -11   14.14    1.30
   0  -2  11   13.58    1.26
   0  -2  11   14.46    1.26
   0  -2  11   13.85    2.10
   0  -2  11   14.94    1.45
   0  -2  11   17.54    2.72
   0  -2  11   14.72    1.15
  -1   2 -11    4.26    0.58
  -1   2 -11    4.31    0.79
  -1   2 -11    2.28    0.93
  -1   2 -11    5.00    1.19
  -1   2 -11    3.74    0.84
  -1   2 -11    4.02    0.61
  -1   2 -11    4.28    2.18
   1  -2  11    4.75    1.17
   1  -2  11    4.35    0.93
   1  -2  11    6.02    1.08
   1  -2  11    3.76    0.98
  -2   2 -11   37.05    3.37
  -2   2 -11   36.23    2.58
  -2   2 -11   34.18    2.22
  -2   2 -11   37.71    2.54
   2  -2  11   34.93    2.82
   2  -2  11   35.84    2.52
   2  -2  11   32.70    2.68
   2  -2  11   36.63    2.29
  -3   2 -11    1.08    0.58
  -3   2 -11    0.52    0.99
  -3   2 -11    0.35    0.98
   3  -2  11    0.67    0.81
   3  -2  11    1.61    1.07
   3  -2  11    1.61    0.71
  -4   2 -11   25.42    3.11
  -4   2 -11   29.95    2.43
   4  -2  11   26.21    2.28
   4  -2  11   29.24    2.48
   4  -2  11   26.79    1.96
  -5   2 -11    5.78    1.53
  -5   2 -11    5.87    1.89
  -5   2 -11    6.73    1.17
   5  -2  11    6.64    1.50
   5  -2  11    6.72    1.09
   5  -2  11    6.36    1.36
  -6   2 -11    8.75    2.37
  -6   2 -11    9.46    1.93
   6  -2  11    8.88    1.71
   6  -2  11    8.67    1.29
   6  -2  11   10.93    1.72
   9   1 -11    3.41    1.51
   9   1 -11    4.78    1.13
   8   1 -11    0.03    0.96
   8   1 -11   -1.28    1.16
   8   1 -11   -0.55    1.11
   8   1 -11   -1.39    0.89
  -8  -1  11    1.01    1.06
   7   1 -11   16.91    1.61
   7   1 -11   14.09    1.73
   7   1 -11   16.18    1.67
   7   1 -11   14.10    1.92
  -7  -1  11   15.52    2.00
   6   1 -11    6.68    1.42
   6   1 -11    8.11    1.37
   6   1 -11    8.93    1.59
   6   1 -11    9.24    1.35
  -6  -1  11   10.02    1.49
  -6  -1  11    9.06    1.53
   5   1 -11   13.41    1.38
   5   1 -11    9.35    1.37
   5   1 -11   10.96    1.65
   5   1 -11    7.98    2.01
  -5  -1  11   10.94    1.38
  -5  -1  11   10.95    1.36
  -5  -1  11    9.24    1.44
   4   1 -11    0.07    0.69
   4   1 -11    0.06    1.05
   4   1 -11    0.04    0.81
   4   1 -11    1.05    1.37
  -4  -1  11    1.46    0.85
  -4  -1  11   -0.12    0.73
  -4  -1  11   -0.29    0.78
  -4  -1  11   -0.35    0.73
   3   1 -11    2.45    0.84
   3   1 -11    1.28    0.82
   3   1 -11    1.06    0.73
   3   1 -11    1.30    0.66
   3   1 -11    2.97    1.34
  -3  -1  11    1.37    0.79
  -3  -1  11    1.14    0.65
  -3  -1  11    3.03    1.07
  -3  -1  11    2.16    1.05
   2   1 -11    0.03    0.88
   2   1 -11    0.57    0.96
   2   1 -11    0.34    0.71
   2   1 -11   -0.20    0.52
   2   1 -11    0.40    0.63
   2   1 -11   -0.50    1.24
  -2  -1  11   -1.24    0.76
  -2  -1  11   -0.29    0.64
  -2  -1  11    0.37    0.23
  -2  -1  11    4.75    2.33
   1   1 -11   23.00    2.43
   1   1 -11   21.09    1.56
   1   1 -11   25.05    1.95
   1   1 -11   21.81    1.59
   1   1 -11   21.34    2.27
   1   1 -11   19.62    1.57
   1   1 -11   23.40    1.51
  -1  -1  11   26.34    1.80
  -1  -1  11   21.08    1.49
  -1  -1  11   28.60    2.07
  -1  -1  11   21.90    1.75
  -1  -1  11   23.75    2.37
   0   1 -11    9.68    1.35
   0   1 -11    8.81    1.06
   0   1 -11    9.18    0.86
   0   1 -11    9.37    1.86
   0   1 -11   10.74    1.07
   0   1 -11   10.34    0.89
   0   1 -11    7.96    1.09
   0  -1  11    9.98    1.45
   0  -1  11    8.76    1.74
   0  -1  11    7.92    1.11
   0  -1  11    9.55    1.07
   0  -1  11    8.66    1.15
  -1   1 -11  204.60   10.50
  -1   1 -11  206.96   10.82
  -1   1 -11  204.27   10.81
  -1   1 -11  212.21   10.89
   1  -1  11  200.45   10.81
   1  -1  11  200.69   10.81
   1  -1  11  199.70   10.84
   1  -1  11  203.78   11.03
   1  -1  11  212.16   10.80
  -2   1 -11  121.67    6.66
  -2   1 -11  123.16    7.27
  -2   1 -11  118.09    6.54
  -2   1 -11  115.33    6.50
   2  -1  11  117.91    6.76
   2  -1  11  118.77    6.48
   2  -1  11  124.05    6.63
   2  -1  11  113.77    6.50
   2  -1  11  117.87    6.62
  -3   1 -11    1.85    1.82
  -3   1 -11    2.54    1.18
  -3   1 -11    2.91    0.73
  -3   1 -11    2.28    0.98
   3  -1  11    4.27    1.22
   3  -1  11    3.98    0.91
   3  -1  11    2.08    0.79
   3  -1  11    3.47    1.06
  -4   1 -11   -0.70    1.01
  -4   1 -11   -0.27    1.40
  -4   1 -11   -0.66    0.72
   4  -1  11   -0.03    0.72
   4  -1  11   -1.10    0.93
   4  -1  11   -0.78    0.71
  -5   1 -11    7.34    2.01
  -5   1 -11    5.64    0.87
  -5   1 -11    8.92    1.70
   5  -1  11    8.30    1.08
   5  -1  11    8.33    1.47
   5  -1  11   10.46    1.38
   5  -1  11    9.29    1.70
  -6   1 -11    1.53    0.44
  -6   1 -11    0.63    1.29
  -6   1 -11    2.20    1.87
   6  -1  11   -0.37    1.10
   6  -1  11    0.36    0.96
   9   0 -11    1.30    1.06
   9   0 -11    2.40    1.34
   9   0 -11    2.03    1.04
  -9   0  11    1.07    1.56
   8   0 -11    1.02    0.98
   8   0 -11    0.86    1.17
   8   0 -11    2.14    1.19
  -8   0  11    1.12    1.06
   7   0 -11    5.00    1.28
   7   0 -11    4.11    1.38
   7   0 -11    0.25    1.26
  -7   0  11    3.07    1.10
  -7   0  11    3.01    1.18
   6   0 -11   -0.85    0.69
   6   0 -11   -0.59    1.22
   6   0 -11    0.16    0.94
   6   0 -11    0.81    1.22
  -6   0  11    1.18    0.62
  -6   0  11   -0.95    0.85
  -6   0  11    0.25    0.95
   5   0 -11   19.03    1.94
   5   0 -11   19.10    2.23
   5   0 -11   19.11    1.71
   5   0 -11   18.57    1.51
  -5   0  11   18.43    1.73
  -5   0  11   19.64    1.89
  -5   0  11   16.21    1.79
   4   0 -11   -0.19    0.53
   4   0 -11    0.94    0.76
   4   0 -11   -0.15    0.78
   4   0 -11    1.51    1.39
  -4   0  11   -0.23    0.70
  -4   0  11    0.59    0.91
  -4   0  11   -0.12    1.40
   3   0 -11   23.49    2.57
   3   0 -11   22.27    1.50
   3   0 -11   23.57    1.72
   3   0 -11   20.80    2.11
   3   0 -11   24.29    2.17
   3   0 -11   27.10    1.66
  -3   0  11   21.23    1.79
  -3   0  11   27.44    3.24
  -3   0  11   20.73    1.95
  -3   0  11   20.26    1.52
   2   0 -11   10.87    2.09
   2   0 -11    7.08    0.93
   2   0 -11    8.91    1.34
   2   0 -11    7.30    1.18
   2   0 -11    7.90    0.82
   2   0 -11    6.71    1.03
   2   0 -11    6.43    1.08
  -2   0  11    7.70    1.07
  -2   0  11    7.60    1.21
  -2   0  11    8.86    1.69
  -2   0  11    9.22    1.33
   1   0 -11   68.91    4.20
   1   0 -11   70.86    3.92
   1   0 -11   69.96    4.19
   1   0 -11   80.11    4.03
   1   0 -11   67.66    4.09
   1   0 -11   71.37    3.90
   1   0 -11   72.98    3.97
   1   0 -11   71.93    4.80
  -1   0  11   67.27    4.10
  -1   0  11   72.66    3.99
  -1   0  11   70.05    3.94
  -1   0  11   75.58    4.28
  -1   0  11   67.59    4.64
  -1   0  11   73.64    4.18
   0   0 -11  137.76    8.02
   0   0 -11  130.36    7.13
   0   0 -11  140.63    7.11
   0   0 -11  136.57    7.38
   0   0 -11  135.02    7.27
   0   0 -11  150.57    7.22
   0   0 -11  128.90    7.32
   0   0  11  139.20    7.37
   0   0  11  132.36    7.49
   0   0  11  136.62    7.27
   0   0  11  130.72    7.27
   0   0  11  133.54    7.32
  -1   0 -11   45.30    2.81
  -1   0 -11   44.75    2.74
  -1   0 -11   38.96    2.33
  -1   0 -11   40.37    2.33
  -1   0 -11   43.65    4.11
  -1   0 -11   40.02    2.67
   1   0  11   43.46    3.83
   1   0  11   40.61    2.65
   1   0  11   43.41    2.68
   1   0  11   44.65    2.70
   1   0  11   36.37    3.27
  -2   0 -11   31.11    3.08
  -2   0 -11   32.78    2.28
  -2   0 -11   32.09    2.46
  -2   0 -11   29.88    2.21
   2   0  11   34.35    2.55
   2   0  11   32.56    2.30
   2   0  11   34.68    2.28
  -3   0 -11   34.40    3.23
  -3   0 -11   30.87    2.15
  -3   0 -11   26.86    2.39
   3   0  11   28.23    2.92
   3   0  11   35.82    2.37
   3   0  11   32.94    2.62
  -4   0 -11    0.67    0.65
  -4   0 -11   -0.86    1.00
  -4   0 -11    1.31    1.46
   4   0  11    0.49    0.99
   4   0  11    0.37    0.54
   4   0  11   -0.44    0.81
  -5   0 -11    1.19    1.24
  -5   0 -11    0.94    1.51
  -5   0 -11    2.11    0.64
   5   0  11    1.56    0.54
   5   0  11    0.60    1.18
   5   0  11    0.70    0.91
  -6   0 -11    0.18    1.59
  -6   0 -11   -0.04    1.32
   6   0  11    0.85    1.01
   6   0  11    1.07    1.05
   6   0  11   -0.69    1.59
   9  -1 -11    5.33    1.43
   9  -1 -11    4.17    1.43
   9  -1 -11    2.17    1.07
  -9   1  11    2.31    1.16
   8  -1 -11    1.74    0.92
   8  -1 -11    0.59    1.18
   8  -1 -11    0.38    0.56
  -8   1  11    0.70    1.04
  -8   1  11    0.97    1.11
   7  -1 -11    1.45    0.84
   7  -1 -11   -1.76    1.35
   7  -1 -11    4.53    1.32
  -7   1  11    1.86    1.14
  -7   1  11    1.18    1.01
   6  -1 -11   -0.42    0.86
   6  -1 -11   -1.74    1.53
  -6   1  11   -0.88    0.82
  -6   1  11    0.72    0.92
  -6   1  11    1.00    0.90
   5  -1 -11    2.55    0.98
   5  -1 -11    3.55    1.59
   5  -1 -11    4.99    1.31
   5  -1 -11    4.33    0.72
  -5   1  11    4.58    1.30
  -5   1  11    4.37    1.07
  -5   1  11    4.16    1.17
   4  -1 -11   10.95    1.92
   4  -1 -11    8.98    0.79
   4  -1 -11    9.33    1.23
   4  -1 -11    9.56    1.51
  -4   1  11    9.40    1.27
  -4   1  11    9.39    1.39
  -4   1  11   10.27    1.68
   3  -1 -11   30.96    2.19
   3  -1 -11   34.14    2.65
   3  -1 -11   35.95    3.15
   3  -1 -11   33.78    2.17
   3  -1 -11   31.26    2.35
   3  -1 -11   32.62    1.81
  -3   1  11   28.85    2.67
  -3   1  11   31.68    2.54
  -3   1  11   33.25    1.82
  -3   1  11   32.96    2.36
   2  -1 -11   26.04    2.06
   2  -1 -11   26.05    2.05
   2  -1 -11   29.01    2.74
   2  -1 -11   25.95    1.68
   2  -1 -11   28.35    1.81
   2  -1 -11   23.34    1.83
   2  -1 -11   27.84    2.61
  -2   1  11   27.10    1.58
  -2   1  11   25.81    2.06
  -2   1  11   26.99    2.03
  -2   1  11   24.85    2.01
  -2   1  11   25.20    1.67
  -2   1  11   22.53    2.51
   1  -1 -11   48.90    2.79
   1  -1 -11   49.85    3.80
   1  -1 -11   43.63    2.89
   1  -1 -11   41.76    2.71
   1  -1 -11   43.78    2.97
   1  -1 -11   44.95    2.97
  -1   1  11   48.17    2.96
  -1   1  11   41.02    2.82
  -1   1  11   42.48    4.49
  -1   1  11   48.83    2.66
  -1   1  11   51.04    2.82
  -1   1  11   54.01    3.09
  -1   1  11   45.17    2.72
   0  -1 -11    0.91    0.49
   0  -1 -11    0.17    0.65
   0  -1 -11    0.95    0.95
   0  -1 -11    0.82    1.12
   0  -1 -11    0.43    0.72
   0  -1 -11    0.48    1.92
   0   1  11    1.12    0.75
   0   1  11    1.41    0.52
   0   1  11    1.16    0.52
   0   1  11   -0.45    0.69
   0   1  11    1.17    0.88
   0   1  11    0.70    0.68
  -1  -1 -11    6.74    1.22
  -1  -1 -11    7.84    0.78
  -1  -1 -11    8.28    1.97
  -1  -1 -11    8.34    1.13
   1   1  11    8.66    1.78
   1   1  11    9.80    1.33
   1   1  11    8.14    1.19
   1   1  11    7.76    0.98
  -2  -1 -11   -1.45    1.43
  -2  -1 -11    0.15    0.76
   2   1  11    0.78    0.64
   2   1  11    0.23    0.80
   2   1  11    0.37    0.91
   2   1  11   -0.22    0.63
  -3  -1 -11    1.70    1.04
  -3  -1 -11    1.07    2.99
   3   1  11    0.62    0.93
   3   1  11    0.86    0.59
   3   1  11    0.49    0.75
  -4  -1 -11    6.02    1.90
  -4  -1 -11    5.88    1.41
   4   1  11    5.79    1.57
   4   1  11    8.11    1.53
   4   1  11    7.06    0.86
  -5  -1 -11    3.25    1.38
  -5  -1 -11    1.77    1.63
   5   1  11    2.44    1.29
   5   1  11    2.54    1.18
   5   1  11    2.87    1.05
  -6  -1 -11    2.64    1.80
  -6  -1 -11    0.16    2.14
   6   1  11    2.60    1.62
   6   1  11    2.41    1.11
   6   1  11    1.28    1.15
   9  -2 -11   -0.06    1.18
   9  -2 -11    1.02    1.00
   9  -2 -11   -1.36    1.50
   9  -2 -11   -0.81    1.28
   9  -2 -11   -0.49    1.16
  -9   2  11    2.51    1.05
   8  -2 -11    6.70    1.54
   8  -2 -11    2.21    0.74
   8  -2 -11   -0.34    1.49
   8  -2 -11    4.31    1.28
  -8   2  11    3.10    1.17
  -8   2  11    3.98    1.15
   7  -2 -11    5.13    1.45
   7  -2 -11    5.68    1.27
   7  -2 -11    7.01    0.84
  -7   2  11    3.54    1.11
  -7   2  11    5.48    1.30
   6  -2 -11    5.41    1.41
   6  -2 -11    3.47    1.08
   6  -2 -11    4.34    0.58
   6  -2 -11    2.52    1.75
   6  -2 -11    2.26    0.59
  -6   2  11    3.58    1.02
  -6   2  11    3.24    1.15
   5  -2 -11   -0.15    1.09
   5  -2 -11    0.28    2.16
   5  -2 -11    0.60    0.50
   5  -2 -11   -0.55    0.90
   5  -2 -11    0.55    0.44
  -5   2  11    0.76    0.80
  -5   2  11    0.18    0.85
   4  -2 -11    0.96    0.48
   4  -2 -11    0.08    1.01
   4  -2 -11   -1.47    1.56
   4  -2 -11    0.00    0.76
  -4   2  11    0.07    0.88
  -4   2  11   -0.83    0.72
  -4   2  11    0.08    0.72
   3  -2 -11   29.41    3.20
   3  -2 -11   32.20    2.32
   3  -2 -11   35.33    2.03
  -3   2  11   32.24    1.97
  -3   2  11   31.83    2.27
  -3   2  11   33.84    2.24
  -3   2  11   31.23    2.31
   2  -2 -11   43.13    2.74
   2  -2 -11   39.55    2.62
   2  -2 -11   48.32    3.98
   2  -2 -11   42.22    2.83
   2  -2 -11   44.19    2.59
  -2   2  11   41.82    2.77
  -2   2  11   40.87    2.57
  -2   2  11   43.63    2.66
   1  -2 -11    3.32    0.83
   1  -2 -11    3.00    0.95
   1  -2 -11    1.56    1.01
   1  -2 -11    3.88    1.08
   1  -2 -11    3.96    3.07
  -1   2  11    2.86    0.47
  -1   2  11    2.99    0.90
  -1   2  11    1.75    1.46
  -1   2  11    2.52    0.88
  -1   2  11    3.01    0.69
  -1   2  11    3.65    0.88
   0  -2 -11    7.89    2.05
   0  -2 -11    5.57    0.75
   0  -2 -11    5.66    1.19
   0  -2 -11    5.80    1.06
   0  -2 -11    5.92    1.08
   0   2  11    6.36    1.12
   0   2  11    6.90    0.86
   0   2  11    6.47    0.94
   0   2  11    7.78    1.97
   0   2  11    6.40    1.34
   0   2  11    6.12    0.77
  -1  -2 -11    0.14    0.43
  -1  -2 -11   -0.35    0.81
  -1  -2 -11   -2.00    1.63
  -1  -2 -11    0.12    0.75
   1   2  11   -0.47    0.54
   1   2  11   -0.47    0.84
   1   2  11   -0.92    0.96
   1   2  11    0.63    0.94
   1   2  11   -0.71    0.40
  -2  -2 -11   -2.62    1.55
  -2  -2 -11    0.03    0.20
  -2  -2 -11   -0.09    0.92
   2   2  11    0.59    0.92
   2   2  11   -0.01    0.52
   2   2  11   -0.41    0.53
   2   2  11   -0.35    0.40
   2   2  11   -1.11    0.75
  -3  -2 -11    2.68    2.08
   3   2  11    2.90    0.63
   3   2  11    2.65    0.50
   3   2  11    2.79    1.79
   3   2  11    2.32    0.89
   3   2  11    3.70    1.20
  -4  -2 -11    3.88    1.74
  -4  -2 -11    5.30    1.45
   4   2  11    4.58    1.28
   4   2  11    6.08    1.18
   4   2  11    3.06    1.18
  -5  -2 -11   -0.01    1.24
  -5  -2 -11   -0.53    1.66
   5   2  11    0.91    0.88
   5   2  11   -0.01    1.11
   5   2  11   -0.56    1.07
  -6  -2 -11    1.10    1.40
  -6  -2 -11    2.75    1.67
   6   2  11    0.63    1.05
   6   2  11    0.78    1.11
   6   2  11    0.90    1.32
   9  -3 -11    3.30    1.84
   9  -3 -11    1.57    1.53
   9  -3 -11    3.33    1.28
  -9   3  11    4.74    1.20
   8  -3 -11    0.05    1.26
   8  -3 -11    4.08    1.21
   7  -3 -11    7.44    1.22
   7  -3 -11    2.83    2.49
   7  -3 -11    2.03    1.40
  -7   3  11    4.16    1.27
  -7   3  11    3.74    1.02
   6  -3 -11   21.46    1.82
   6  -3 -11   13.08    2.49
   6  -3 -11   20.98    1.43
   6  -3 -11   17.33    2.07
  -6   3  11   18.84    1.93
  -6   3  11   16.74    2.13
   5  -3 -11   15.64    1.68
   5  -3 -11   17.57    1.43
   5  -3 -11   17.58    2.72
  -5   3  11   18.77    1.93
  -5   3  11   18.67    1.70
   4  -3 -11   59.99    3.72
   4  -3 -11   64.13    3.59
   4  -3 -11   67.08    3.98
   4  -3 -11   55.43    4.45
  -4   3  11   65.21    3.76
  -4   3  11   64.28    3.95
  -4   3  11   61.86    3.78
  -4   3  11   60.10    3.47
   3  -3 -11   26.26    2.13
   3  -3 -11   25.11    1.78
   3  -3 -11   22.11    2.05
   3  -3 -11   24.13    3.02
  -3   3  11   24.14    1.70
  -3   3  11   24.98    1.90
  -3   3  11   23.59    1.98
  -3   3  11   25.63    1.81
   2  -3 -11    2.15    1.14
   2  -3 -11    2.71    0.80
   2  -3 -11    2.99    1.77
   2  -3 -11    2.28    0.77
  -2   3  11    3.22    0.82
  -2   3  11    1.62    0.89
  -2   3  11    1.22    0.68
  -2   3  11    1.93    0.82
   1  -3 -11   -0.62    0.92
   1  -3 -11    3.73    1.95
   1  -3 -11    0.14    0.66
   1  -3 -11    0.62    0.72
   1  -3 -11    0.41    0.64
  -1   3  11    0.20    0.64
  -1   3  11    0.65    0.84
  -1   3  11    0.36    0.82
  -1   3  11    0.69    0.76
   0  -3 -11   22.52    1.92
   0  -3 -11   25.62    2.56
   0  -3 -11   24.17    1.81
   0  -3 -11   29.13    3.23
   0  -3 -11   20.15    1.61
   0   3  11   23.68    1.67
   0   3  11   23.92    1.50
   0   3  11   21.07    1.99
   0   3  11   23.91    2.13
   0   3  11   23.60    2.05
  -1  -3 -11   47.45    4.29
  -1  -3 -11   47.64    3.29
  -1  -3 -11   49.50    3.02
  -1  -3 -11   48.19    2.94
  -1  -3 -11   52.24    3.01
   1   3  11   47.47    3.32
   1   3  11   51.52    3.33
   1   3  11   52.61    2.96
  -2  -3 -11    1.18    0.80
  -2  -3 -11    1.36    2.33
  -2  -3 -11    2.16    1.09
   2   3  11    0.08    1.44
   2   3  11    3.55    1.14
   2   3  11    1.63    0.65
   2   3  11    2.10    0.63
  -3  -3 -11   -0.34    0.21
  -3  -3 -11    0.26    1.05
  -3  -3 -11   -2.10    1.59
  -3  -3 -11    0.55    0.25
   3   3  11   -0.28    0.60
   3   3  11   -0.84    0.92
   3   3  11   -0.74    0.75
   3   3  11   -0.40    0.92
  -4  -3 -11    0.95    1.61
  -4  -3 -11   -0.14    0.25
  -4  -3 -11    0.50    1.18
   4   3  11    0.26    1.19
   4   3  11   -1.02    0.99
   4   3  11    2.32    0.53
   4   3  11   -0.81    0.75
  -5  -3 -11    6.25    1.99
  -5  -3 -11    7.10    2.09
   5   3  11    6.08    1.62
   5   3  11    9.27    1.39
   5   3  11    5.92    1.58
   8  -4 -11    2.44    1.56
   8  -4 -11    0.95    0.94
   8  -4 -11    1.27    1.81
  -8   4  11    1.61    1.20
  -8   4  11    0.43    0.58
   7  -4 -11   -0.14    1.12
   7  -4 -11    0.93    1.79
   7  -4 -11    1.46    1.36
  -7   4  11   -0.57    0.89
  -7   4  11    0.61    0.68
   6  -4 -11   -0.23    1.72
   6  -4 -11    0.54    1.21
   6  -4 -11   -0.34    0.78
   6  -4 -11   -1.47    0.80
  -6   4  11    2.14    0.76
  -6   4  11    0.87    0.98
   5  -4 -11    0.19    1.06
   5  -4 -11   -0.12    0.79
   5  -4 -11    0.55    2.57
   5  -4 -11    1.13    0.79
  -5   4  11    1.39    0.96
  -5   4  11    0.81    0.87
  -5   4  11    0.65    0.70
   4  -4 -11    0.51    0.81
   4  -4 -11    0.81    1.95
   4  -4 -11   -0.46    0.66
   4  -4 -11    0.58    1.21
  -4   4  11    1.36    0.95
  -4   4  11    1.22    0.91
  -4   4  11    1.77    0.69
   3  -4 -11   63.13    4.66
   3  -4 -11   64.38    3.75
   3  -4 -11   59.86    3.62
   3  -4 -11   64.84    3.92
  -3   4  11   61.46    3.69
  -3   4  11   59.20    3.64
  -3   4  11   61.50    3.92
  -3   4  11   60.11    3.63
   2  -4 -11   10.66    1.87
   2  -4 -11   11.99    1.64
   2  -4 -11   14.14    1.40
  -2   4  11   10.83    1.35
  -2   4  11   14.60    1.37
  -2   4  11   13.57    1.53
  -2   4  11   12.06    1.36
   1  -4 -11    6.00    1.22
   1  -4 -11    5.56    1.13
   1  -4 -11    4.90    0.93
  -1   4  11    6.05    1.19
  -1   4  11    5.58    1.05
  -1   4  11    5.23    1.17
   0  -4 -11    6.00    1.00
   0  -4 -11    4.68    1.07
   0  -4 -11   10.88    2.47
   0  -4 -11    5.64    1.28
   0   4  11    7.20    1.18
   0   4  11    5.09    1.43
   0   4  11    6.06    1.04
  -1  -4 -11    7.54    1.03
  -1  -4 -11    6.80    1.35
  -1  -4 -11    7.53    1.12
  -1  -4 -11    4.69    3.00
   1   4  11    7.10    0.88
   1   4  11    7.18    0.99
   1   4  11    8.12    1.45
   1   4  11    7.91    1.31
  -2  -4 -11    9.11    2.44
  -2  -4 -11    6.41    1.46
   2   4  11    7.51    1.06
   2   4  11   10.79    1.52
   2   4  11    8.10    1.55
   2   4  11   11.07    1.10
   2   4  11    8.48    0.76
  -3  -4 -11   -0.43    1.76
  -3  -4 -11    0.80    1.29
  -3  -4 -11    0.60    0.23
   3   4  11   -0.08    0.57
   3   4  11   -0.80    0.86
   3   4  11    0.17    0.66
   3   4  11    0.71    1.05
  -4  -4 -11   -2.00    1.49
  -4  -4 -11    0.72    1.24
   4   4  11   -0.62    1.19
   4   4  11   -0.10    0.68
   4   4  11    0.05    0.59
   4   4  11   -0.61    1.00
  -5  -4 -11    4.60    1.77
  -5  -4 -11    4.44    1.58
   5   4  11    3.10    1.71
   5   4  11    3.24    1.08
   5   4  11    2.30    1.48
   8  -5 -11    1.98    1.56
   8  -5 -11    0.42    1.94
   8  -5 -11    1.75    1.24
  -8   5  11    2.48    1.27
   7  -5 -11    2.73    2.13
   7  -5 -11   -1.16    1.20
  -7   5  11    0.31    1.07
  -7   5  11    0.55    0.93
   6  -5 -11    0.37    1.89
   6  -5 -11   -1.95    1.05
   6  -5 -11    0.88    1.27
  -6   5  11    0.36    0.86
  -6   5  11    0.40    1.04
   5  -5 -11   -0.14    0.95
   5  -5 -11    1.82    0.67
   5  -5 -11    3.27    1.34
   5  -5 -11    1.53    2.16
  -5   5  11    2.62    1.09
  -5   5  11    1.32    0.31
  -5   5  11    1.95    0.92
   4  -5 -11    0.90    1.13
   4  -5 -11    1.44    1.00
   4  -5 -11    2.05    0.62
   4  -5 -11    0.67    1.81
  -4   5  11    1.54    0.71
  -4   5  11    2.00    1.00
   3  -5 -11    0.78    0.56
   3  -5 -11    0.25    1.17
   3  -5 -11   -1.52    1.82
  -3   5  11    0.80    0.80
  -3   5  11    0.20    0.94
  -3   5  11    1.27    0.91
   2  -5 -11   36.69    3.75
   2  -5 -11   40.67    2.45
   2  -5 -11   41.55    2.84
   2  -5 -11   40.72    2.85
  -2   5  11   36.08    2.46
  -2   5  11   37.08    2.63
  -2   5  11   37.38    2.78
   1  -5 -11   37.11    2.25
   1  -5 -11   34.78    3.61
   1  -5 -11   33.45    2.47
   1  -5 -11   32.22    2.50
  -1   5  11   32.22    2.52
  -1   5  11   30.04    2.31
  -1   5  11   31.10    2.30
   0  -5 -11    1.06    0.91
   0  -5 -11    3.30    1.98
   0  -5 -11    1.55    0.98
   0   5  11    0.91    0.95
   0   5  11    0.60    0.84
   0   5  11    0.80    0.24
   0   5  11    0.93    0.83
  -1  -5 -11   13.04    1.68
  -1  -5 -11    9.87    1.22
   1   5  11   12.20    1.27
   1   5  11    9.44    0.93
   1   5  11   11.17    1.53
   1   5  11   10.84    1.59
  -2  -5 -11   -0.56    1.98
  -2  -5 -11   -1.03    0.55
  -2  -5 -11    1.57    1.14
   2   5  11    0.50    0.66
   2   5  11   -0.92    1.04
   2   5  11    0.45    0.91
  -3  -5 -11   -1.03    1.04
  -3  -5 -11   -1.15    1.85
   3   5  11   -0.87    0.96
   3   5  11   -0.51    0.67
   3   5  11   -0.60    1.10
  -4  -5 -11    1.83    1.31
  -4  -5 -11    1.76    1.61
   4   5  11    1.14    0.68
   4   5  11   -0.73    1.04
   4   5  11   -0.07    0.77
   4   5  11    0.75    1.25
   7  -6 -11    0.23    2.75
   7  -6 -11    4.24    1.54
   7  -6 -11   10.40    1.94
  -7   6  11    8.21    1.49
  -7   6  11    6.77    1.44
   6  -6 -11    9.28    1.76
   6  -6 -11    3.18    1.53
   6  -6 -11    2.22    2.20
  -6   6  11    5.49    1.12
  -6   6  11    5.31    1.31
   5  -6 -11   -0.02    1.14
   5  -6 -11   -1.14    1.96
   5  -6 -11    2.48    0.54
   5  -6 -11    2.45    1.36
  -5   6  11    2.38    1.02
  -5   6  11    1.75    1.09
   4  -6 -11    1.41    2.11
   4  -6 -11    7.79    0.82
   4  -6 -11    6.92    1.56
   4  -6 -11    4.63    1.23
  -4   6  11    4.95    1.26
  -4   6  11    6.46    1.24
   3  -6 -11   -0.51    1.02
   3  -6 -11   -0.30    0.88
   3  -6 -11   -0.57    1.84
   3  -6 -11    0.14    0.47
  -3   6  11   -0.01    0.78
  -3   6  11   -0.33    0.83
   2  -6 -11   -2.79    1.95
   2  -6 -11    0.88    0.52
  -2   6  11    0.01    0.78
  -2   6  11   -0.35    0.83
   1  -6 -11    3.54    2.16
   1  -6 -11    1.67    1.04
   1  -6 -11    2.73    1.06
   1  -6 -11    3.64    0.74
  -1   6  11    1.56    0.91
  -1   6  11    0.26    0.51
  -1   6  11    1.41    1.02
   0  -6 -11    6.42    1.31
   0  -6 -11    7.54    2.51
   0  -6 -11    5.95    1.32
   0   6  11    5.23    1.30
   0   6  11    5.21    1.11
   0   6  11    4.22    1.02
  -1  -6 -11    8.40    2.35
  -1  -6 -11    5.75    0.69
  -1  -6 -11    4.58    1.33
   1   6  11    4.55    1.35
   1   6  11    6.54    1.12
   1   6  11    4.69    1.11
  -2  -6 -11   21.99    3.62
  -2  -6 -11   23.46    2.41
   2   6  11   20.96    1.83
   2   6  11   19.68    2.09
   2   6  11   20.23    2.20
  -3  -6 -11    6.72    2.18
  -3  -6 -11    8.02    1.76
   3   6  11    7.07    1.77
   3   6  11    8.05    1.26
   3   6  11    5.47    1.32
   3   6  11   10.60    1.28
   6  -7 -11    2.69    1.53
   6  -7 -11    2.66    2.44
   6  -7 -11    9.97    1.92
  -6   7  11    7.31    1.45
  -6   7  11    6.44    1.37
   5  -7 -11   11.83    1.95
   5  -7 -11   22.77    2.35
  -5   7  11   16.98    1.95
  -5   7  11   17.50    2.14
   4  -7 -11   -0.74    2.07
   4  -7 -11    3.04    1.32
   4  -7 -11    2.28    1.38
  -4   7  11    2.13    0.88
  -4   7  11    1.55    1.08
   3  -7 -11   -1.17    0.94
   3  -7 -11   -1.16    1.05
  -3   7  11    1.66    1.10
  -3   7  11    0.67    0.72
   2  -7 -11   -0.02    2.21
   2  -7 -11    3.83    1.31
   2  -7 -11    1.73    1.20
  -2   7  11    1.58    1.05
  -2   7  11    2.13    1.00
   1  -7 -11    7.02    1.49
   1  -7 -11    7.66    2.41
  -1   7  11    6.34    1.29
  -1   7  11    4.90    1.31
   0  -7 -11    2.27    1.21
   0  -7 -11    6.11    2.58
   0  -7 -11    1.07    0.79
   0   7  11    0.39    1.18
   0   7  11    0.20    0.79
  -1  -7 -11    0.30    0.55
  -1  -7 -11    1.18    2.24
  -1  -7 -11    1.25    1.16
   1   7  11    1.22    0.91
   1   7  11    0.15    1.85
  -2  -7 -11    3.78    1.45
   2   7  11    1.76    0.99
   2   7  11    3.07    1.06
   2   7  11    1.19    1.36
   4  -8 -11   -1.03    1.18
   4  -8 -11   -1.47    2.22
  -4   8  11    1.49    1.03
  -4   8  11    2.94    1.22
   3  -8 -11    2.56    1.46
   3  -8 -11    1.01    2.30
   3  -8 -11    1.47    1.27
  -3   8  11    0.49    0.95
  -3   8  11    0.98    1.08
   2  -8 -11    0.28    1.18
   2  -8 -11   -2.22    3.40
   2  -8 -11    0.42    1.08
  -2   8  11   -0.17    1.14
   1  -8 -11    4.18    1.24
   1  -8 -11   -3.03    3.31
  -1   8  11    0.24    1.10
   2   8 -12    1.21    1.26
   2   8 -12    0.31    0.50
   2   8 -12    1.37    2.60
  -2  -8  12    1.76    0.99
  -2  -8  12   -0.27    1.21
   1   8 -12   15.16    2.08
   1   8 -12   10.41    1.75
   1   8 -12   10.76    3.22
  -1  -8  12   11.59    1.70
  -1  -8  12   11.21    2.05
   0   8 -12    0.54    1.20
   0   8 -12    0.98    1.53
   0   8 -12    0.05    0.87
   0  -8  12    0.60    0.87
   0  -8  12    0.15    1.10
   0  -8  12    1.35    1.45
  -1   8 -12    1.87    0.86
  -1   8 -12    1.96    1.47
  -1   8 -12    1.71    1.38
   1  -8  12    2.62    0.99
   1  -8  12    0.38    1.11
   1  -8  12    1.60    1.54
  -2   8 -12    9.17    2.32
  -2   8 -12    4.33    1.60
   2  -8  12    3.39    1.66
   2  -8  12    4.35    1.36
   4   7 -12   17.09    1.74
   4   7 -12   13.74    2.51
   4   7 -12   19.30    2.43
   3   7 -12    3.49    1.02
   3   7 -12    8.55    1.75
   3   7 -12    5.49    1.42
  -3  -7  12    6.41    1.31
  -3  -7  12    4.09    1.57
   2   7 -12    3.05    1.11
   2   7 -12    4.16    1.57
   2   7 -12    0.96    1.11
  -2  -7  12    1.93    1.39
  -2  -7  12    3.63    1.12
   1   7 -12    2.33    1.23
   1   7 -12    2.48    1.45
   1   7 -12    0.87    1.15
   1   7 -12    0.84    0.69
  -1  -7  12    6.10    1.71
  -1  -7  12    0.98    0.87
   0   7 -12    2.53    1.45
   0   7 -12    0.91    0.47
   0   7 -12    0.27    0.23
   0   7 -12   -1.80    1.40
   0  -7  12    4.19    1.49
   0  -7  12    1.31    0.93
   0  -7  12    1.46    0.98
  -1   7 -12    2.59    1.42
  -1   7 -12    2.85    1.50
  -1   7 -12    2.60    0.88
   1  -7  12    3.27    1.13
   1  -7  12    4.10    1.53
   1  -7  12    3.68    1.06
  -2   7 -12    4.25    1.82
  -2   7 -12    5.95    1.67
   2  -7  12    1.92    1.43
   2  -7  12    3.98    1.17
  -3   7 -12    1.26    0.39
  -3   7 -12    0.46    1.60
   3  -7  12    0.43    1.27
   3  -7  12   -0.18    1.03
   3  -7  12    0.50    0.97
   6   6 -12    2.88    1.54
  -6  -6  12    1.56    1.33
   5   6 -12    4.28    1.68
   5   6 -12    3.81    1.48
   5   6 -12    2.60    1.09
  -5  -6  12    2.07    1.17
  -5  -6  12    2.14    1.23
   4   6 -12    4.97    1.46
   4   6 -12    7.64    1.69
   4   6 -12    4.85    1.09
  -4  -6  12    5.92    1.36
  -4  -6  12    6.30    1.50
   3   6 -12    2.36    1.35
   3   6 -12    1.00    1.15
   3   6 -12    2.82    0.90
   3   6 -12    2.54    1.36
  -3  -6  12    1.89    1.08
  -3  -6  12    0.59    1.21
   2   6 -12   -0.31    1.24
   2   6 -12    0.12    0.64
   2   6 -12   -0.73    0.95
  -2  -6  12    0.05    1.05
  -2  -6  12    0.34    0.93
   1   6 -12    0.56    0.89
   1   6 -12    0.41    1.24
   1   6 -12    1.90    1.32
   1   6 -12    0.82    0.34
   1   6 -12    1.19    0.52
  -1  -6  12    0.99    0.95
  -1  -6  12    0.37    0.72
  -1  -6  12    3.00    1.29
   0   6 -12    0.13    0.84
   0   6 -12    0.95    1.31
   0   6 -12    1.31    1.27
   0  -6  12    1.27    1.23
   0  -6  12    1.57    0.95
   0  -6  12    0.71    1.36
  -1   6 -12   14.15    1.34
  -1   6 -12   12.74    2.37
  -1   6 -12   16.24    2.10
   1  -6  12   15.34    2.01
   1  -6  12   14.76    1.84
   1  -6  12   12.19    1.55
  -2   6 -12    0.40    1.23
  -2   6 -12   -0.13    0.28
  -2   6 -12    1.32    1.54
   2  -6  12    0.69    1.16
   2  -6  12    1.62    0.99
   2  -6  12    0.79    0.72
   2  -6  12    1.06    0.90
  -3   6 -12    0.77    0.26
  -3   6 -12    1.37    1.70
  -3   6 -12   -0.41    1.19
   3  -6  12    0.43    0.87
   3  -6  12    0.10    1.02
   3  -6  12   -0.80    1.08
  -4   6 -12    0.95    1.23
   4  -6  12   -0.50    1.32
   4  -6  12    1.53    1.15
   4  -6  12   -0.58    1.02
   6   5 -12   -0.36    1.34
   6   5 -12    1.40    1.31
   6   5 -12   -0.30    0.97
  -6  -5  12   -0.24    1.06
  -6  -5  12    0.44    1.19
   5   5 -12   -0.35    0.90
   5   5 -12   -0.60    1.10
   5   5 -12    1.41    1.44
  -5  -5  12   -0.11    1.02
  -5  -5  12   -0.62    0.95
   4   5 -12    0.78    0.70
   4   5 -12   -0.34    1.01
   4   5 -12    0.85    1.25
  -4  -5  12   -1.17    0.90
  -4  -5  12   -0.10    0.93
  -4  -5  12    0.93    0.39
   3   5 -12    0.20    0.72
   3   5 -12   -0.13    1.02
   3   5 -12   -0.77    1.18
  -3  -5  12   -0.89    0.85
  -3  -5  12   -0.15    0.94
   2   5 -12    3.52    0.85
   2   5 -12    2.41    1.17
   2   5 -12    3.00    1.03
   2   5 -12    0.80    1.24
   2   5 -12    1.88    0.76
  -2  -5  12    1.25    1.01
  -2  -5  12    3.48    1.46
   1   5 -12    7.07    1.16
   1   5 -12    6.44    0.86
   1   5 -12    7.17    1.60
   1   5 -12    9.91    1.93
  -1  -5  12    6.06    1.01
  -1  -5  12    6.51    2.24
  -1  -5  12    6.09    1.70
   0   5 -12    9.61    1.23
   0   5 -12    6.03    1.57
   0   5 -12    9.45    1.88
   0  -5  12    8.44    1.15
   0  -5  12    8.85    0.98
   0  -5  12   11.93    1.01
   0  -5  12    9.88    1.60
  -1   5 -12   39.22    3.11
  -1   5 -12   37.88    2.53
  -1   5 -12   48.28    4.32
   1  -5  12   37.26    3.27
   1  -5  12   48.81    3.20
  -2   5 -12    3.73    1.34
  -2   5 -12    3.13    1.76
   2  -5  12    1.38    1.10
   2  -5  12    3.94    0.57
   2  -5  12    2.39    1.13
   2  -5  12    2.32    0.87
  -3   5 -12    3.26    1.33
  -3   5 -12    3.74    1.90
   3  -5  12    1.74    1.20
   3  -5  12    3.14    1.19
   3  -5  12    3.35    1.01
  -4   5 -12    6.51    1.59
  -4   5 -12    5.82    2.15
   4  -5  12    3.63    1.34
   4  -5  12    5.95    1.53
   4  -5  12    6.49    1.32
  -5   5 -12    2.68    1.22
  -5   5 -12    2.12    1.86
   5  -5  12    0.66    1.27
   5  -5  12    1.69    1.26
   5  -5  12    2.51    1.26
   7   4 -12    2.98    2.36
   7   4 -12    1.63    1.41
   7   4 -12   -0.57    1.32
  -7  -4  12    1.25    1.77
   6   4 -12    0.04    1.30
   6   4 -12   -0.75    1.03
   6   4 -12    1.08    1.27
  -6  -4  12   -0.16    1.01
   5   4 -12    0.08    1.07
   5   4 -12    0.94    1.00
   5   4 -12    1.43    1.25
  -5  -4  12    3.55    1.15
  -5  -4  12    0.46    0.96
   4   4 -12    3.36    0.89
   4   4 -12    3.43    1.46
   4   4 -12    1.63    0.91
   4   4 -12    2.41    1.13
  -4  -4  12    2.74    1.10
  -4  -4  12    0.61    0.94
   3   4 -12   18.45    1.77
   3   4 -12   18.96    2.03
  -3  -4  12   20.57    1.95
  -3  -4  12   16.73    1.97
   2   4 -12   22.41    2.25
   2   4 -12   19.04    1.75
   2   4 -12   19.75    1.68
  -2  -4  12   20.42    2.24
  -2  -4  12   20.15    1.66
  -2  -4  12   21.64    2.03
  -2  -4  12   24.37    2.10
   1   4 -12   16.23    2.30
   1   4 -12   13.73    2.13
   1   4 -12   14.12    1.68
   1   4 -12   15.64    1.50
  -1  -4  12   13.22    1.29
  -1  -4  12   18.89    2.00
  -1  -4  12   14.67    1.24
  -1  -4  12   14.75    1.23
  -1  -4  12   13.14    1.70
   0   4 -12    3.45    1.41
   0   4 -12    5.47    0.92
   0   4 -12    4.21    1.62
   0  -4  12    3.32    1.20
   0  -4  12    4.75    1.20
   0  -4  12    5.06    0.89
   0  -4  12    6.01    0.94
  -1   4 -12    0.71    0.59
  -1   4 -12    0.36    1.32
  -1   4 -12   -0.29    0.24
   1  -4  12    0.25    0.97
   1  -4  12    0.84    0.53
   1  -4  12    0.26    0.67
   1  -4  12    0.36    0.63
   1  -4  12    0.33    0.93
  -2   4 -12    2.41    1.30
  -2   4 -12    1.89    1.43
  -2   4 -12    0.76    0.30
   2  -4  12    1.64    0.51
   2  -4  12    3.35    0.93
   2  -4  12    1.73    1.05
   2  -4  12    1.18    1.07
  -3   4 -12    0.93    0.25
  -3   4 -12    2.23    1.28
  -3   4 -12    3.34    1.81
   3  -4  12    0.35    1.03
   3  -4  12    2.60    1.10
   3  -4  12    1.46    0.47
  -4   4 -12    1.04    0.32
  -4   4 -12    2.21    1.19
  -4   4 -12    1.38    1.60
   4  -4  12    1.01    0.41
   4  -4  12    0.37    0.88
   4  -4  12    3.51    1.28
   4  -4  12    0.70    1.05
  -5   4 -12    5.40    3.38
  -5   4 -12    1.22    1.04
   5  -4  12    2.36    1.26
   5  -4  12    2.34    1.19
   5  -4  12    0.81    1.18
   8   3 -12    1.34    1.32
   8   3 -12    1.13    1.12
   8   3 -12    0.38    1.29
  -8  -3  12    1.04    1.11
   7   3 -12    2.50    1.48
   7   3 -12    4.17    1.22
   7   3 -12    1.44    1.30
  -7  -3  12    2.20    1.26
   6   3 -12    1.30    0.85
   6   3 -12   -1.66    1.19
   6   3 -12   -0.64    0.91
   6   3 -12   -0.26    0.84
  -6  -3  12    0.46    1.10
   5   3 -12    0.16    1.15
   5   3 -12    0.82    0.77
   5   3 -12    1.13    1.08
   5   3 -12    0.83    0.89
  -5  -3  12    1.03    0.33
  -5  -3  12   -0.46    0.75
  -5  -3  12   -0.93    0.86
   4   3 -12    1.16    0.96
   4   3 -12    1.19    0.92
  -4  -3  12    0.03    0.84
  -4  -3  12    0.65    0.93
  -4  -3  12   -0.61    0.80
  -4  -3  12    0.26    0.40
   3   3 -12   54.95    3.65
   3   3 -12   56.19    3.39
   3   3 -12   52.93    3.64
  -3  -3  12   52.73    3.54
  -3  -3  12   54.80    3.42
  -3  -3  12   54.86    3.64
  -3  -3  12   54.94    3.65
   2   3 -12   14.37    1.98
   2   3 -12   13.44    1.77
   2   3 -12   12.51    1.34
   2   3 -12   13.58    1.36
  -2  -3  12   11.15    1.63
  -2  -3  12   15.00    2.01
  -2  -3  12   12.99    1.28
   1   3 -12   30.52    2.40
   1   3 -12   28.95    1.96
   1   3 -12   26.31    1.99
   1   3 -12   26.40    1.87
   1   3 -12   28.99    2.66
  -1  -3  12   28.19    1.97
  -1  -3  12   28.86    2.81
  -1  -3  12   26.53    2.27
  -1  -3  12   24.35    1.70
  -1  -3  12   31.32    2.28
  -1  -3  12   24.24    1.70
   0   3 -12    9.69    1.57
   0   3 -12    6.14    0.91
   0   3 -12    7.10    1.90
   0   3 -12    6.71    1.42
   0   3 -12    6.85    0.88
   0  -3  12   12.12    2.34
   0  -3  12    8.61    0.99
   0  -3  12    7.48    1.09
   0  -3  12   10.60    1.48
  -1   3 -12    4.82    0.67
  -1   3 -12    3.97    0.74
  -1   3 -12    2.38    1.49
  -1   3 -12    2.57    1.32
   1  -3  12    4.14    0.85
   1  -3  12    5.02    0.86
   1  -3  12    4.56    1.10
   1  -3  12    4.17    1.19
  -2   3 -12    0.38    0.12
  -2   3 -12   -0.85    0.98
  -2   3 -12    0.45    0.27
   2  -3  12    0.45    0.85
   2  -3  12   -0.07    0.85
   2  -3  12    0.29    0.70
  -3   3 -12    0.37    0.26
  -3   3 -12    1.75    1.62
  -3   3 -12    1.20    1.13
   3  -3  12    1.40    0.89
   3  -3  12   -0.19    1.00
   3  -3  12   -1.01    0.95
  -4   3 -12    2.84    1.70
  -4   3 -12    3.90    1.42
  -4   3 -12    2.78    0.42
   4  -3  12    4.59    1.14
   4  -3  12    3.35    1.15
   4  -3  12    1.24    1.19
   4  -3  12    2.39    0.73
  -5   3 -12    0.55    0.94
  -5   3 -12   -0.73    1.56
   5  -3  12    0.84    0.96
   5  -3  12   -0.10    1.19
   5  -3  12    1.45    0.66
   5  -3  12    0.74    1.02
  -6   3 -12    5.37    2.05
   6  -3  12    4.10    1.36
   6  -3  12    1.28    1.47
   6  -3  12    4.44    1.25
   6  -3  12    3.99    1.25
   8   2 -12    0.45    1.51
   8   2 -12    1.95    1.69
   8   2 -12   -0.09    1.25
   7   2 -12    0.02    0.95
   7   2 -12    0.63    1.26
   7   2 -12   -1.64    1.02
  -7  -2  12    0.36    1.02
   6   2 -12    0.79    1.23
   6   2 -12    2.58    0.93
   6   2 -12    0.96    1.09
  -6  -2  12    1.83    1.08
   5   2 -12    1.41    1.07
   5   2 -12    2.70    1.13
  -5  -2  12    1.06    1.05
  -5  -2  12    2.53    1.65
  -5  -2  12    2.04    0.94
   4   2 -12    2.76    0.85
   4   2 -12    3.62    1.35
   4   2 -12    3.11    1.07
   4   2 -12    4.27    1.26
  -4  -2  12    4.25    1.08
  -4  -2  12    2.30    0.84
  -4  -2  12    2.95    1.09
  -4  -2  12    2.62    0.96
   3   2 -12    0.01    1.08
   3   2 -12   -0.44    1.03
   3   2 -12   -0.85    0.69
  -3  -2  12   -0.37    1.18
  -3  -2  12   -0.42    1.12
  -3  -2  12   -1.82    0.78
  -3  -2  12   -1.26    0.82
   2   2 -12    0.63    0.68
   2   2 -12    0.88    1.13
   2   2 -12    1.10    0.74
   2   2 -12   -0.13    0.73
   2   2 -12    1.78    1.24
   2   2 -12    0.55    0.80
  -2  -2  12    2.70    0.95
  -2  -2  12   -0.12    0.88
  -2  -2  12    1.08    0.74
  -2  -2  12    3.05    1.19
  -2  -2  12    0.64    0.18
  -2  -2  12    1.16    0.27
   1   2 -12  147.13    8.44
   1   2 -12  149.90    8.09
   1   2 -12  145.16    7.89
   1   2 -12  138.56    7.75
   1   2 -12  146.67    7.76
   1   2 -12  137.38    7.86
  -1  -2  12  151.10    8.15
  -1  -2  12  147.49    7.69
  -1  -2  12  146.44    7.89
  -1  -2  12  150.69    7.64
  -1  -2  12  159.28    8.82
  -1  -2  12  140.85    7.93
   0   2 -12   14.03    1.13
   0   2 -12   12.51    1.78
   0   2 -12   14.78    1.67
   0   2 -12   14.30    2.95
   0   2 -12   12.17    1.12
   0   2 -12   12.86    1.39
   0  -2  12   14.96    1.35
   0  -2  12   12.96    1.24
   0  -2  12   14.08    1.16
   0  -2  12   13.40    1.57
   0  -2  12   14.29    1.77
  -1   2 -12    8.61    1.44
  -1   2 -12    7.53    1.80
  -1   2 -12    8.34    0.80
  -1   2 -12    8.01    1.09
  -1   2 -12    9.32    1.30
   1  -2  12    8.49    1.05
   1  -2  12    6.40    1.39
   1  -2  12    7.71    1.19
   1  -2  12    8.26    1.26
  -2   2 -12   55.44    3.97
  -2   2 -12   58.18    4.48
  -2   2 -12   53.57    3.53
   2  -2  12   56.55    3.91
   2  -2  12   50.49    3.45
   2  -2  12   51.73    3.21
  -3   2 -12    0.84    1.12
  -3   2 -12    0.22    0.87
  -3   2 -12    0.20    0.33
  -3   2 -12    0.24    1.48
   3  -2  12   -0.26    0.93
   3  -2  12    0.37    1.02
   3  -2  12    0.18    0.70
  -4   2 -12    4.55    1.12
  -4   2 -12    4.67    1.84
  -4   2 -12    2.84    1.26
   4  -2  12    3.62    0.91
   4  -2  12    5.08    1.41
   4  -2  12    3.19    1.10
  -5   2 -12    0.20    0.79
  -5   2 -12    0.11    1.22
  -5   2 -12    0.90    1.59
   5  -2  12    0.51    1.30
   5  -2  12    0.13    0.90
   5  -2  12   -0.33    1.13
  -6   2 -12    0.67    1.41
  -6   2 -12    1.39    0.45
  -6   2 -12   -1.00    1.63
   6  -2  12   -0.02    0.87
   6  -2  12    0.71    1.21
   6  -2  12    4.95    1.44
   8   1 -12    0.04    1.19
   8   1 -12    3.97    1.57
   8   1 -12    2.78    1.22
  -8  -1  12    5.60    1.44
   7   1 -12    4.41    1.50
   7   1 -12    7.85    1.46
   7   1 -12    9.95    1.32
  -7  -1  12    7.17    1.45
  -7  -1  12    7.41    1.44
   6   1 -12    1.36    1.05
   6   1 -12    1.11    1.15
   6   1 -12   -0.19    0.79
   6   1 -12    1.32    1.27
  -6  -1  12    0.52    1.04
  -6  -1  12    1.10    1.05
   5   1 -12    6.31    1.48
   5   1 -12    6.60    1.46
   5   1 -12    6.74    1.51
  -5  -1  12    8.51    1.45
  -5  -1  12    9.27    1.64
  -5  -1  12    6.23    1.15
   4   1 -12    0.93    0.88
   4   1 -12    1.32    1.19
   4   1 -12    3.27    1.42
   4   1 -12    0.70    0.74
  -4  -1  12    1.20    1.18
  -4  -1  12    1.20    0.86
  -4  -1  12    1.60    0.98
  -4  -1  12   -0.74    0.81
   3   1 -12   12.25    1.28
   3   1 -12   10.87    2.05
   3   1 -12   11.50    1.65
   3   1 -12    9.98    1.09
  -3  -1  12   10.10    1.47
  -3  -1  12   10.70    1.17
  -3  -1  12   10.25    1.55
  -3  -1  12    9.08    1.72
   2   1 -12   -0.55    0.55
   2   1 -12   -0.42    0.78
   2   1 -12   -0.88    0.66
   2   1 -12    0.50    0.60
   2   1 -12   -0.39    1.09
   2   1 -12   -0.34    1.38
  -2  -1  12    1.56    0.71
  -2  -1  12   -0.74    0.74
  -2  -1  12   -0.95    0.78
  -2  -1  12   -0.33    1.13
  -2  -1  12   -0.10    0.21
   1   1 -12    4.58    0.78
   1   1 -12    3.67    0.71
   1   1 -12    3.29    0.74
   1   1 -12    2.31    1.53
   1   1 -12    3.92    0.71
   1   1 -12    2.33    0.85
  -1  -1  12    2.79    0.63
  -1  -1  12    3.29    0.92
  -1  -1  12    3.09    1.07
  -1  -1  12    2.88    0.84
   0   1 -12  186.75   10.18
   0   1 -12  185.61    9.13
   0   1 -12  170.86    8.98
   0   1 -12  168.49    9.46
   0   1 -12  165.98    9.30
   0   1 -12  166.91    9.17
   0   1 -12  175.05    8.97
   0  -1  12  172.90    9.41
   0  -1  12  169.56    9.20
   0  -1  12  169.42    9.10
   0  -1  12  165.07    9.17
  -1   1 -12  110.69    6.03
  -1   1 -12  111.83    5.89
  -1   1 -12  107.32    5.59
  -1   1 -12  101.96    5.87
  -1   1 -12  107.44    5.96
  -1   1 -12  111.29    6.76
   1  -1  12  106.98    5.92
   1  -1  12  104.15    5.96
   1  -1  12  103.93    6.13
   1  -1  12  102.21    5.93
  -2   1 -12   16.18    1.42
  -2   1 -12   14.85    2.41
  -2   1 -12   21.51    2.34
  -2   1 -12   17.24    1.77
   2  -1  12   17.09    1.87
   2  -1  12   13.52    1.85
   2  -1  12   17.64    1.86
  -3   1 -12    1.24    1.01
  -3   1 -12    1.72    0.95
  -3   1 -12    2.01    1.61
   3  -1  12    2.90    1.17
   3  -1  12    1.07    0.78
   3  -1  12    1.76    0.91
  -4   1 -12    5.63    1.43
  -4   1 -12    5.72    1.85
  -4   1 -12    7.92    1.20
   4  -1  12    8.14    1.56
   4  -1  12    5.84    1.25
   4  -1  12    9.16    1.30
  -5   1 -12    1.62    0.51
  -5   1 -12    0.58    1.20
  -5   1 -12   -0.49    1.56
   5  -1  12    0.85    0.93
   5  -1  12    0.75    1.22
   5  -1  12    1.07    1.00
  -6   1 -12    1.40    1.42
  -6   1 -12    1.89    2.06
  -6   1 -12    1.75    0.56
   6  -1  12    0.63    0.95
   6  -1  12    0.27    1.23
   8   0 -12    1.20    1.35
   8   0 -12    0.85    1.14
   8   0 -12   -0.50    1.33
   8   0 -12   -0.04    0.93
  -8   0  12    1.56    1.10
   7   0 -12    1.03    0.96
   7   0 -12   -1.52    1.28
   7   0 -12   -0.20    1.06
   7   0 -12    0.02    1.16
  -7   0  12   -0.77    0.92
  -7   0  12   -0.65    0.92
   6   0 -12    3.93    1.53
   6   0 -12    6.89    1.15
   6   0 -12    4.94    1.53
  -6   0  12    4.53    1.18
  -6   0  12    4.69    1.27
   5   0 -12   45.75    3.67
   5   0 -12   46.00    2.95
   5   0 -12   53.08    3.24
   5   0 -12   44.14    3.38
  -5   0  12   47.67    3.33
  -5   0  12   57.35    3.70
  -5   0  12   57.27    3.47
   4   0 -12    1.39    0.89
   4   0 -12    3.44    1.62
   4   0 -12    2.33    1.20
   4   0 -12    0.30    0.56
  -4   0  12    1.34    0.89
  -4   0  12    0.31    0.90
  -4   0  12    1.54    0.99
   3   0 -12   48.28    3.23
   3   0 -12   49.18    2.93
   3   0 -12   46.93    2.74
   3   0 -12   49.79    3.72
  -3   0  12   46.24    2.76
  -3   0  12   46.44    3.50
  -3   0  12   47.43    3.19
  -3   0  12   47.65    3.07
   2   0 -12   55.07    3.01
   2   0 -12   53.31    3.99
   2   0 -12   50.23    2.89
   2   0 -12   55.14    3.16
   2   0 -12   55.18    3.11
  -2   0  12   47.32    4.14
  -2   0  12   55.57    3.07
  -2   0  12   52.10    2.90
  -2   0  12   50.49    3.28
  -2   0  12   53.89    4.42
   1   0 -12   73.28    4.04
   1   0 -12   70.15    4.07
   1   0 -12   80.47    5.37
   1   0 -12   71.22    4.35
   1   0 -12   74.47    4.01
   1   0 -12   80.36    4.07
  -1   0  12   69.45    4.06
  -1   0  12   71.62    4.05
  -1   0  12   67.71    4.23
  -1   0  12   69.66    5.27
   0   0 -12   48.04    3.95
   0   0 -12   49.29    3.59
   0   0 -12   43.87    2.70
   0   0 -12   47.58    3.08
   0   0 -12   47.23    3.24
   0   0 -12   44.20    2.68
   0   0  12   46.28    2.89
   0   0  12   51.00    3.02
   0   0  12   50.07    3.20
  -1   0 -12   19.81    1.67
  -1   0 -12   17.71    1.23
  -1   0 -12   18.92    1.72
  -1   0 -12   20.34    2.81
   1   0  12   20.00    1.65
   1   0  12   14.61    1.64
   1   0  12   19.20    1.57
   1   0  12   21.53    1.75
   1   0  12   19.88    1.94
  -2   0 -12    1.64    0.86
  -2   0 -12    0.59    1.58
  -2   0 -12    1.35    1.07
   2   0  12    2.37    1.10
   2   0  12    1.97    0.70
   2   0  12    1.86    0.85
  -3   0 -12   11.69    1.60
  -3   0 -12   14.58    2.62
  -3   0 -12   12.77    1.37
   3   0  12   12.06    1.44
   3   0  12   12.07    1.79
   3   0  12   13.20    1.31
   3   0  12   13.38    1.50
  -4   0 -12    0.55    1.51
  -4   0 -12    0.66    1.11
  -4   0 -12    0.91    0.60
   4   0  12    1.89    0.65
   4   0  12    0.03    1.11
   4   0  12    1.77    1.01
   4   0  12    0.16    0.90
  -5   0 -12    0.75    1.22
  -5   0 -12    2.50    1.78
   5   0  12    3.32    1.40
   5   0  12    1.19    1.03
   5   0  12    1.76    1.01
  -6   0 -12   10.08    3.58
  -6   0 -12   11.92    1.96
   6   0  12    8.32    1.54
   6   0  12    9.27    1.88
   9  -1 -12    7.98    1.50
   9  -1 -12   11.97    1.29
   8  -1 -12   -0.25    1.10
   8  -1 -12   -0.06    1.22
  -8   1  12    1.75    1.13
  -8   1  12    1.12    1.05
   7  -1 -12    1.23    1.60
   7  -1 -12    4.34    1.55
   7  -1 -12    3.41    1.21
  -7   1  12    3.74    1.32
  -7   1  12    5.14    1.26
   6  -1 -12    0.64    1.18
   6  -1 -12    0.97    0.99
   6  -1 -12    0.24    0.59
   6  -1 -12   -0.58    2.27
  -6   1  12    2.10    1.03
  -6   1  12    0.28    0.89
   5  -1 -12    1.33    0.94
   5  -1 -12    0.97    1.53
  -5   1  12    1.52    0.98
   4  -1 -12    1.10    0.87
   4  -1 -12    1.14    0.40
   4  -1 -12    3.08    1.20
   4  -1 -12    2.44    1.66
  -4   1  12    1.39    0.90
  -4   1  12    1.78    1.08
   3  -1 -12   25.39    2.88
   3  -1 -12   19.92    1.27
   3  -1 -12   23.90    1.63
   3  -1 -12   21.47    2.02
  -3   1  12   20.06    1.81
  -3   1  12   20.85    1.85
   2  -1 -12    4.84    0.76
   2  -1 -12    2.75    2.39
   2  -1 -12    2.44    0.79
   2  -1 -12    3.74    0.88
  -2   1  12    3.97    1.02
  -2   1  12    3.65    1.02
  -2   1  12    5.20    0.68
  -2   1  12    3.33    0.67
   1  -1 -12    3.44    0.69
   1  -1 -12    7.69    2.24
   1  -1 -12    4.62    1.16
   1  -1 -12    3.16    0.88
   1  -1 -12    4.19    0.89
  -1   1  12    5.04    1.62
  -1   1  12    4.89    0.74
  -1   1  12    3.85    1.07
  -1   1  12    5.14    0.90
   0  -1 -12    0.25    0.90
   0  -1 -12   -0.93    0.58
   0  -1 -12    0.47    1.72
   0  -1 -12   -1.16    0.74
   0  -1 -12    0.37    0.47
   0   1  12    0.47    0.53
   0   1  12   -0.13    0.67
   0   1  12    0.51    0.90
   0   1  12   -0.62    0.71
   0   1  12    1.21    0.87
  -1  -1 -12   19.18    1.45
  -1  -1 -12   25.29    1.96
  -1  -1 -12   17.70    3.04
  -1  -1 -12   24.33    1.87
   1   1  12   25.14    2.13
   1   1  12   26.66    1.95
   1   1  12   26.83    1.78
   1   1  12   23.92    1.97
   1   1  12   22.40    1.71
  -2  -1 -12    0.10    0.78
  -2  -1 -12   -0.21    0.89
   2   1  12   -0.52    0.94
   2   1  12    0.63    0.83
   2   1  12   -0.10    0.60
   2   1  12   -0.14    0.66
  -3  -1 -12    4.48    1.76
  -3  -1 -12    5.55    2.39
  -3  -1 -12    5.83    0.98
   3   1  12    4.81    1.35
   3   1  12    5.12    1.24
   3   1  12    4.94    1.02
  -4  -1 -12    0.57    1.55
  -4  -1 -12   -0.08    1.10
   4   1  12   -0.56    0.95
   4   1  12    1.20    0.79
   4   1  12    0.58    0.50
   4   1  12   -1.37    1.02
  -5  -1 -12    3.75    1.42
  -5  -1 -12    4.28    1.93
   5   1  12    4.40    1.52
   5   1  12    3.60    1.19
   5   1  12    2.92    1.29
   8  -2 -12    3.78    1.29
   8  -2 -12    2.88    1.40
   8  -2 -12   -0.03    2.04
  -8   2  12    2.60    1.07
  -8   2  12    3.33    1.25
   7  -2 -12   20.80    1.43
   7  -2 -12   21.37    2.35
   7  -2 -12   22.58    1.25
   7  -2 -12   22.18    2.02
  -7   2  12   19.95    2.03
  -7   2  12   20.06    2.14
   6  -2 -12    1.01    1.16
   6  -2 -12   -0.42    1.61
   6  -2 -12   -0.22    0.95
  -6   2  12    1.20    0.92
  -6   2  12    0.72    0.95
   5  -2 -12    4.06    0.56
   5  -2 -12    5.49    2.04
   5  -2 -12    2.70    1.47
   5  -2 -12    0.60    1.74
  -5   2  12    3.36    1.02
  -5   2  12    2.22    1.05
   4  -2 -12    8.05    1.38
   4  -2 -12    8.82    1.32
   4  -2 -12    8.14    0.81
   4  -2 -12   10.54    2.20
  -4   2  12    7.97    1.24
  -4   2  12    7.82    1.38
   3  -2 -12    5.67    2.08
   3  -2 -12    2.00    1.13
   3  -2 -12    3.52    0.68
  -3   2  12    2.86    1.07
  -3   2  12    2.60    0.53
  -3   2  12    3.99    0.87
  -3   2  12    2.02    0.92
   2  -2 -12   16.33    2.55
   2  -2 -12   12.89    1.40
   2  -2 -12   14.53    1.80
   2  -2 -12   12.65    1.27
  -2   2  12   13.02    1.59
  -2   2  12   13.78    1.51
  -2   2  12   15.21    1.32
  -2   2  12   12.94    1.25
   1  -2 -12    2.32    1.05
   1  -2 -12    2.94    1.87
   1  -2 -12    2.12    0.83
   1  -2 -12    2.04    0.64
  -1   2  12    3.72    0.79
  -1   2  12    3.30    0.98
  -1   2  12    2.92    0.50
  -1   2  12    3.27    0.89
  -1   2  12    2.99    1.00
   0  -2 -12    8.77    1.32
   0  -2 -12    8.44    2.28
   0  -2 -12    6.27    0.89
   0  -2 -12    7.60    1.32
   0   2  12    9.19    0.98
   0   2  12    6.45    0.84
   0   2  12   10.39    1.45
   0   2  12    7.90    1.00
   0   2  12    9.00    1.34
  -1  -2 -12   -0.94    1.89
  -1  -2 -12    1.10    0.47
  -1  -2 -12   -0.22    1.53
  -1  -2 -12    2.19    0.94
   1   2  12    1.77    0.67
   1   2  12    1.62    0.95
   1   2  12    1.28    0.58
   1   2  12    1.25    0.82
   1   2  12    0.42    0.95
  -2  -2 -12   -0.21    0.22
  -2  -2 -12    0.08    0.76
  -2  -2 -12    1.11    1.11
  -2  -2 -12   -1.34    1.64
   2   2  12   -0.10    1.39
   2   2  12    0.68    1.71
   2   2  12    0.14    0.59
   2   2  12   -0.17    0.42
  -3  -2 -12    9.98    1.62
  -3  -2 -12    8.28    2.07
   3   2  12    9.92    1.62
   3   2  12   10.72    1.40
   3   2  12   11.92    1.74
   3   2  12   12.47    1.04
  -4  -2 -12    2.16    1.69
  -4  -2 -12    1.99    1.23
   4   2  12    0.91    1.19
   4   2  12    2.18    1.17
   4   2  12    1.48    0.84
  -5  -2 -12    0.31    1.71
  -5  -2 -12    2.41    1.73
   5   2  12    2.38    2.25
   5   2  12    0.89    1.22
   5   2  12    0.47    0.98
   8  -3 -12   -2.10    1.71
   8  -3 -12   -0.13    1.31
  -8   3  12    1.71    0.95
  -8   3  12    0.70    1.18
   7  -3 -12   -0.54    1.69
   7  -3 -12    2.63    1.42
   7  -3 -12    4.39    1.27
  -7   3  12    2.79    1.21
  -7   3  12    2.91    0.97
   6  -3 -12   15.82    1.48
   6  -3 -12   21.35    1.45
   6  -3 -12   25.67    1.98
   6  -3 -12   18.51    2.20
  -6   3  12   20.84    1.86
  -6   3  12   18.12    1.93
   5  -3 -12    2.42    0.70
   5  -3 -12    3.18    1.31
   5  -3 -12    4.24    2.08
  -5   3  12    2.75    0.94
  -5   3  12    5.18    1.20
  -5   3  12    4.35    1.05
   4  -3 -12   16.94    2.82
   4  -3 -12   16.17    1.73
   4  -3 -12   16.99    2.13
   4  -3 -12   19.11    1.46
  -4   3  12   16.97    1.63
  -4   3  12   19.00    1.72
   3  -3 -12    5.12    1.08
   3  -3 -12    2.87    0.88
   3  -3 -12    4.92    1.28
  -3   3  12    2.56    0.89
  -3   3  12    3.48    0.71
  -3   3  12    2.18    1.04
  -3   3  12    3.12    0.88
   2  -3 -12    0.22    0.99
   2  -3 -12    0.20    0.74
   2  -3 -12    0.69    0.68
  -2   3  12   -0.30    0.61
  -2   3  12    0.47    0.76
  -2   3  12    0.44    0.84
  -2   3  12    0.26    0.64
   1  -3 -12    7.16    2.16
   1  -3 -12    0.67    1.16
   1  -3 -12    2.48    0.96
  -1   3  12    0.76    0.70
  -1   3  12    1.65    0.94
  -1   3  12    1.84    0.83
  -1   3  12    1.50    0.91
   0  -3 -12    7.55    1.50
   0  -3 -12    6.32    1.13
   0  -3 -12    7.91    2.54
   0  -3 -12    4.87    0.85
   0   3  12    4.75    1.13
   0   3  12    5.78    0.86
   0   3  12    7.23    1.27
   0   3  12    5.76    0.72
  -1  -3 -12    1.27    0.86
  -1  -3 -12    1.01    2.15
  -1  -3 -12    1.55    1.09
  -1  -3 -12    2.01    0.63
   1   3  12    0.70    0.54
   1   3  12    0.94    0.59
   1   3  12    1.41    1.05
   1   3  12    0.84    0.95
  -2  -3 -12   -0.94    1.66
  -2  -3 -12    1.39    1.09
  -2  -3 -12    0.14    0.27
  -2  -3 -12    0.27    0.66
   2   3  12   -0.08    1.06
   2   3  12    1.08    1.15
   2   3  12    1.00    0.64
   2   3  12    0.86    0.55
  -3  -3 -12   -1.63    1.59
  -3  -3 -12   -0.63    0.25
  -3  -3 -12    0.82    1.10
   3   3  12    0.23    0.70
   3   3  12   -0.62    0.96
   3   3  12   -0.25    1.09
  -4  -3 -12    1.53    1.30
  -4  -3 -12   -2.32    1.50
   4   3  12   -1.05    0.97
   4   3  12    0.43    0.37
   4   3  12   -0.46    1.13
   4   3  12   -0.02    0.79
  -5  -3 -12    6.99    1.74
  -5  -3 -12    5.79    2.11
   5   3  12    5.72    1.60
   5   3  12    9.20    1.43
   5   3  12    5.32    2.51
   8  -4 -12   -1.97    1.73
   8  -4 -12    1.89    1.24
   8  -4 -12    1.53    1.73
  -8   4  12    2.63    0.76
  -8   4  12    1.05    1.12
   7  -4 -12    1.81    0.95
   7  -4 -12    0.30    1.81
   7  -4 -12   -1.30    0.85
   7  -4 -12    0.01    1.46
  -7   4  12    1.31    0.75
  -7   4  12    0.79    1.18
   6  -4 -12    0.98    1.31
   6  -4 -12    0.25    1.90
  -6   4  12    3.57    1.25
  -6   4  12    2.32    1.00
  -6   4  12    3.20    1.03
   5  -4 -12    2.62    0.88
   5  -4 -12    1.88    1.90
   5  -4 -12    1.81    0.87
   5  -4 -12    2.48    1.29
  -5   4  12    2.48    0.84
  -5   4  12    3.47    1.15
  -5   4  12    1.88    0.94
   4  -4 -12    2.27    1.97
   4  -4 -12    1.21    0.72
   4  -4 -12    2.66    0.88
   4  -4 -12    2.05    1.24
  -4   4  12    2.29    0.92
  -4   4  12    2.54    1.03
  -4   4  12    2.84    0.82
   3  -4 -12    0.64    1.07
   3  -4 -12    1.62    0.79
   3  -4 -12   -0.46    1.81
   3  -4 -12    0.08    0.62
  -3   4  12   -0.25    0.66
  -3   4  12   -0.10    0.83
  -3   4  12    0.19    0.71
   2  -4 -12    3.34    0.86
   2  -4 -12    6.45    2.42
   2  -4 -12    4.93    1.06
   2  -4 -12    5.83    1.35
  -2   4  12    5.11    1.04
  -2   4  12    4.20    0.95
  -2   4  12    3.53    0.90
  -2   4  12    3.98    1.18
   1  -4 -12   73.22    4.78
   1  -4 -12   79.65    5.73
   1  -4 -12   74.63    4.44
  -1   4  12   74.17    4.32
  -1   4  12   72.64    4.56
  -1   4  12   73.24    4.41
   0  -4 -12    6.30    2.28
   0  -4 -12    4.48    1.23
   0  -4 -12    7.48    1.24
   0   4  12    6.60    1.34
   0   4  12    5.82    1.20
   0   4  12    4.67    0.92
  -1  -4 -12    0.11    0.81
  -1  -4 -12    0.63    1.17
  -1  -4 -12   -0.50    1.88
   1   4  12    0.52    0.99
   1   4  12    0.53    0.67
   1   4  12    1.01    0.93
   1   4  12    0.35    0.43
  -2  -4 -12   -2.22    1.84
  -2  -4 -12    0.01    0.53
  -2  -4 -12    0.34    0.45
  -2  -4 -12    0.16    1.03
   2   4  12    0.00    0.54
   2   4  12   -0.06    1.02
   2   4  12    0.09    0.93
   2   4  12   -0.21    0.62
  -3  -4 -12   -1.65    1.80
  -3  -4 -12    0.87    0.29
  -3  -4 -12    1.32    1.23
   3   4  12    0.97    1.04
   3   4  12   -0.13    0.57
   3   4  12    0.81    0.65
   3   4  12   -1.29    1.13
  -4  -4 -12   -0.19    1.67
   4   4  12    2.11    0.62
   4   4  12    1.01    0.77
   4   4  12   -2.39    1.68
   4   4  12    0.63    1.22
   7  -5 -12   -0.85    2.05
  -7   5  12   -1.18    1.02
   6  -5 -12    0.51    0.69
   6  -5 -12   -1.02    1.92
   6  -5 -12   -1.16    1.19
  -6   5  12    0.44    1.10
  -6   5  12    1.28    1.01
   5  -5 -12   10.60    1.36
   5  -5 -12    5.37    1.88
   5  -5 -12    9.20    1.74
   5  -5 -12    5.36    2.49
  -5   5  12   11.12    1.64
  -5   5  12    9.92    1.42
   4  -5 -12    7.59    1.91
   4  -5 -12    8.99    1.63
   4  -5 -12    6.12    2.24
  -4   5  12    5.20    0.72
  -4   5  12    8.22    1.28
  -4   5  12    7.30    1.38
   3  -5 -12   -0.53    1.83
   3  -5 -12    0.17    1.10
   3  -5 -12    3.10    0.94
   3  -5 -12    2.57    0.90
  -3   5  12    1.45    0.65
  -3   5  12    1.11    0.82
  -3   5  12    0.81    0.93
   2  -5 -12    4.47    0.81
   2  -5 -12    6.17    2.19
   2  -5 -12    5.43    1.13
   2  -5 -12    3.82    1.21
  -2   5  12    5.26    1.40
  -2   5  12    4.69    0.92
  -2   5  12    5.97    1.09
   1  -5 -12    9.02    2.56
   1  -5 -12    7.21    1.26
   1  -5 -12    7.97    1.86
  -1   5  12    5.43    1.32
  -1   5  12    5.65    1.08
  -1   5  12    7.07    1.32
   0  -5 -12    3.19    1.22
   0  -5 -12    6.87    2.34
   0   5  12    1.55    0.89
   0   5  12    1.53    0.86
   0   5  12    1.86    1.21
  -1  -5 -12   22.27    3.41
  -1  -5 -12   18.90    2.08
   1   5  12   21.36    1.79
   1   5  12   18.59    2.03
   1   5  12   18.99    1.95
  -2  -5 -12   -1.25    2.19
  -2  -5 -12    1.07    1.12
   2   5  12    0.56    0.76
   2   5  12   -0.41    1.00
   2   5  12   -0.10    0.40
   2   5  12   -0.81    1.00
  -3  -5 -12   11.04    2.49
  -3  -5 -12   15.19    2.14
   3   5  12   13.24    1.43
   3   5  12   11.26    1.78
   3   5  12   13.09    1.37
   7  -6 -12   -1.48    2.06
   7  -6 -12    0.59    1.43
  -7   6  12    1.50    1.04
  -7   6  12    3.24    1.29
   6  -6 -12    2.42    2.41
   6  -6 -12    1.53    2.04
   5  -6 -12   -2.01    1.96
   5  -6 -12   -1.84    0.99
   5  -6 -12   -0.11    1.22
  -5   6  12    1.13    0.92
  -5   6  12    0.63    1.03
   4  -6 -12   -1.73    0.98
   4  -6 -12   -0.03    1.22
   4  -6 -12   -2.93    1.89
   4  -6 -12    0.04    0.43
  -4   6  12    0.72    0.96
  -4   6  12   -0.02    0.85
   3  -6 -12    2.84    0.60
   3  -6 -12    1.71    1.21
   3  -6 -12    0.28    2.02
   3  -6 -12    2.36    1.80
  -3   6  12    2.23    1.01
  -3   6  12    4.52    1.21
   2  -6 -12    1.73    0.69
   2  -6 -12    0.28    1.15
   2  -6 -12   -0.33    1.90
   2  -6 -12    1.49    1.01
  -2   6  12   -0.76    0.73
  -2   6  12   -0.17    0.92
   1  -6 -12    1.02    0.93
   1  -6 -12    1.18    2.06
   1  -6 -12    0.97    1.05
  -1   6  12    0.68    0.98
  -1   6  12    0.12    0.88
   0  -6 -12   26.25    2.35
   0  -6 -12   25.04    2.07
   0   6  12   22.49    2.25
   0   6  12   25.19    2.04
   0   6  12   22.27    1.99
  -1  -6 -12    5.28    2.67
  -1  -6 -12    3.03    1.29
   1   6  12    1.05    1.55
   1   6  12    0.15    0.78
   1   6  12    1.64    1.21
  -2  -6 -12    8.09    2.48
  -2  -6 -12   14.73    3.26
   2   6  12    8.19    1.47
   2   6  12    7.70    1.75
   2   6  12   10.59    1.46
   5  -7 -12   -0.46    1.24
   5  -7 -12   -1.25    2.05
  -5   7  12    0.58    0.96
  -5   7  12    1.57    1.13
   4  -7 -12   -4.85    3.68
   4  -7 -12    3.15    1.36
   4  -7 -12   -0.03    1.25
  -4   7  12   -0.71    0.93
  -4   7  12    1.81    1.14
   3  -7 -12    1.65    1.21
   3  -7 -12   -2.01    2.19
   3  -7 -12   -0.34    1.02
  -3   7  12    0.84    0.90
  -3   7  12    0.51    0.99
   2  -7 -12    6.72    2.48
   2  -7 -12    4.93    1.44
   2  -7 -12    4.13    1.38
  -2   7  12    2.68    1.09
  -2   7  12    1.92    1.13
   1  -7 -12    3.34    1.19
   1  -7 -12    0.68    1.05
   1  -7 -12    2.79    2.33
  -1   7  12    0.55    0.86
  -1   7  12    2.05    1.18
   0  -7 -12   33.90    2.87
   0  -7 -12   38.48    4.72
   0   7  12   31.16    2.54
  -1  -7 -12    3.63    1.30
   1   7  12    0.78    0.43
   1   7  12    1.19    1.36
   1   7  12    1.03    0.84
   4   7 -13    4.10    1.52
  -4  -7  13    3.27    1.35
   3   7 -13    1.05    1.22
   3   7 -13    2.89    1.00
   3   7 -13    0.16    0.84
   3   7 -13    1.34    1.48
  -3  -7  13    0.54    0.52
  -3  -7  13    1.92    1.47
  -3  -7  13    1.74    1.07
   2   7 -13    6.34    1.69
   2   7 -13    3.10    1.25
  -2  -7  13    3.85    1.46
   1   7 -13    0.37    0.36
   1   7 -13   -0.28    1.14
   1   7 -13    2.08    1.47
   1   7 -13   -0.37    1.14
  -1  -7  13    2.41    1.07
  -1  -7  13    0.56    1.33
   0   7 -13    0.38    0.28
   0   7 -13    0.12    0.91
   0   7 -13   -0.64    1.27
   0   7 -13    0.27    1.36
   0  -7  13    3.74    1.52
   0  -7  13   -0.25    0.82
   0  -7  13    1.40    0.96
  -1   7 -13    8.05    1.93
   1  -7  13    5.75    1.75
   1  -7  13    6.84    1.32
   1  -7  13    9.25    1.49
  -2   7 -13    5.72    1.80
  -2   7 -13    8.81    2.12
   2  -7  13    7.24    1.36
   2  -7  13    4.05    1.60
   5   6 -13   -0.02    1.20
   5   6 -13    0.72    1.05
   5   6 -13    1.10    1.39
  -5  -6  13    1.97    1.49
  -5  -6  13    1.18    1.18
   4   6 -13    2.96    1.36
   4   6 -13    2.42    0.70
   4   6 -13    2.00    0.99
   4   6 -13    4.42    1.52
  -4  -6  13    2.54    1.17
  -4  -6  13    2.26    1.31
   3   6 -13    4.35    1.37
   3   6 -13    4.57    1.14
   3   6 -13    4.53    0.95
   3   6 -13    2.89    1.67
  -3  -6  13    2.68    1.37
  -3  -6  13    4.08    1.26
   2   6 -13    0.42    1.04
   2   6 -13    2.96    1.26
   2   6 -13    2.68    1.08
   2   6 -13    1.63    1.36
  -2  -6  13    2.36    1.32
  -2  -6  13    0.56    1.01
   1   6 -13    0.30    0.47
   1   6 -13    0.72    0.32
   1   6 -13    0.03    1.32
   1   6 -13    1.20    1.27
   1   6 -13    1.93    1.88
  -1  -6  13    0.68    0.96
  -1  -6  13    1.31    1.23
   0   6 -13    5.76    1.65
   0   6 -13    6.14    1.12
   0   6 -13    5.92    2.10
   0  -6  13    3.65    1.41
   0  -6  13    5.59    1.29
   0  -6  13    4.43    0.98
  -1   6 -13    2.27    1.56
  -1   6 -13    1.82    1.40
  -1   6 -13    0.01    0.39
  -1   6 -13    0.70    0.26
  -1   6 -13    0.51    0.31
   1  -6  13   -0.87    1.13
   1  -6  13    1.76    0.89
   1  -6  13    1.34    1.03
  -2   6 -13   -0.16    0.31
  -2   6 -13   -0.37    1.60
  -2   6 -13    0.01    1.23
   2  -6  13   -0.27    1.18
   2  -6  13    0.10    0.99
   2  -6  13    0.22    0.88
  -3   6 -13    6.54    1.59
  -3   6 -13    4.76    2.07
   3  -6  13    6.41    1.31
   3  -6  13    5.83    1.42
   4  -6  13    5.34    1.45
   4  -6  13    0.63    1.36
   6   5 -13    1.95    1.42
   6   5 -13    4.18    1.68
  -6  -5  13    3.92    1.41
  -6  -5  13    5.34    1.39
   5   5 -13    0.07    1.42
   5   5 -13    1.08    1.01
   5   5 -13    0.89    1.23
  -5  -5  13   -1.51    0.91
  -5  -5  13    0.48    1.02
   4   5 -13   -0.57    0.68
   4   5 -13    0.81    0.82
   4   5 -13   -0.92    1.04
   4   5 -13   -0.20    1.26
  -4  -5  13    0.10    0.43
  -4  -5  13   -0.93    0.88
  -4  -5  13   -0.22    0.97
   3   5 -13   12.19    2.00
   3   5 -13   10.73    1.64
   3   5 -13   15.79    1.87
   3   5 -13   16.17    1.42
  -3  -5  13   11.28    1.79
  -3  -5  13   13.54    1.91
   2   5 -13    9.37    1.36
   2   5 -13   11.59    1.89
   2   5 -13    5.78    1.17
   2   5 -13    9.45    1.77
  -2  -5  13    8.53    1.48
  -2  -5  13    8.51    1.57
   1   5 -13    5.01    1.54
   1   5 -13    4.62    1.43
   1   5 -13    2.91    1.03
   1   5 -13    2.25    0.66
  -1  -5  13    5.83    1.27
  -1  -5  13    3.25    1.26
   0   5 -13    1.43    1.32
   0   5 -13    0.35    0.78
   0   5 -13    0.77    1.26
   0  -5  13    0.94    0.69
   0  -5  13    1.01    1.12
   0  -5  13    0.36    0.95
  -1   5 -13    1.16    1.20
  -1   5 -13    0.52    1.39
  -1   5 -13   -0.28    0.36
   1  -5  13    1.32    1.07
   1  -5  13    0.80    0.74
   1  -5  13    0.27    1.08
   1  -5  13    2.12    0.82
  -2   5 -13    6.75    1.54
   2  -5  13    6.62    1.97
   2  -5  13    6.29    1.44
   2  -5  13    6.02    1.47
  -3   5 -13   12.22    2.42
  -3   5 -13   13.76    1.94
   3  -5  13   11.21    1.85
   3  -5  13   10.98    1.73
   3  -5  13   13.22    1.56
  -4   5 -13    0.30    1.14
   4  -5  13   -0.54    1.12
   4  -5  13    0.12    0.88
   7   4 -13   -0.02    1.24
   7   4 -13   -0.02    1.48
   7   4 -13    1.35    1.19
  -7  -4  13    1.35    1.17
   6   4 -13    1.62    1.03
   6   4 -13    1.13    1.29
   6   4 -13    2.44    1.52
  -6  -4  13    2.31    1.18
  -6  -4  13    1.27    1.14
   5   4 -13   -0.60    1.22
   5   4 -13    0.39    1.15
   5   4 -13    1.49    0.72
   5   4 -13   -0.57    0.79
  -5  -4  13    1.06    0.50
  -5  -4  13   -0.50    0.92
  -5  -4  13   -0.26    0.91
   4   4 -13    7.14    1.40
   4   4 -13    5.32    1.53
  -4  -4  13    5.98    1.37
   3   4 -13    1.32    1.29
   3   4 -13    0.21    0.96
   3   4 -13    0.22    1.00
  -3  -4  13   -0.33    0.87
  -3  -4  13    0.32    0.73
  -3  -4  13    1.12    0.97
   2   4 -13    2.39    1.22
   2   4 -13    1.52    1.30
   2   4 -13    1.59    0.90
  -2  -4  13    0.11    1.66
  -2  -4  13    2.32    1.07
  -2  -4  13    1.92    0.85
  -2  -4  13   -0.09    0.90
   1   4 -13   51.42    3.55
   1   4 -13   46.66    3.06
   1   4 -13   49.83    3.74
  -1  -4  13   47.51    3.41
  -1  -4  13   51.79    3.01
  -1  -4  13   49.23    3.47
   0   4 -13    1.68    0.41
   0   4 -13   -0.61    1.28
   0   4 -13    2.06    0.78
   0   4 -13    0.90    1.17
   0  -4  13    0.70    0.61
   0  -4  13   -0.24    0.95
   0  -4  13    0.56    0.99
   0  -4  13    0.50    0.63
  -1   4 -13    7.94    1.62
  -1   4 -13   11.47    2.40
   1  -4  13    8.73    1.51
   1  -4  13   10.53    1.23
   1  -4  13   11.54    1.70
  -2   4 -13    1.39    1.50
  -2   4 -13    0.07    0.17
  -2   4 -13    0.10    0.25
  -2   4 -13    1.17    1.16
   2  -4  13    0.00    0.45
   2  -4  13    0.02    0.69
   2  -4  13   -0.29    0.98
   2  -4  13   -0.84    0.87
  -3   4 -13   10.54    1.67
  -3   4 -13    6.81    1.96
   3  -4  13   10.67    1.37
   3  -4  13    8.18    1.60
   3  -4  13    6.78    1.50
   3  -4  13    7.25    0.85
  -4   4 -13   -1.00    1.65
  -4   4 -13    0.75    1.06
   4  -4  13   -0.81    1.02
   4  -4  13    1.18    0.44
   4  -4  13    0.93    0.90
   4  -4  13   -0.77    1.17
  -5   4 -13   31.73    3.76
  -5   4 -13   26.53    2.44
   5  -4  13   29.93    3.46
   5  -4  13   23.92    2.61
   7   3 -13    1.44    1.36
   7   3 -13    0.74    1.00
   6   3 -13   -1.08    1.06
   6   3 -13   -1.29    1.20
   6   3 -13    0.13    0.90
  -6  -3  13    1.43    1.16
   5   3 -13    0.87    1.29
   5   3 -13   -0.33    1.04
   5   3 -13    1.94    0.94
  -5  -3  13    1.11    1.07
  -5  -3  13    1.08    0.40
  -5  -3  13    0.25    0.98
   4   3 -13    2.25    1.11
   4   3 -13    3.85    1.40
   4   3 -13    3.92    1.12
  -4  -3  13    2.38    1.06
  -4  -3  13    1.58    1.03
  -4  -3  13    2.68    0.98
   3   3 -13    8.73    1.81
   3   3 -13    7.91    1.28
   3   3 -13   11.63    1.85
  -3  -3  13    8.28    1.25
  -3  -3  13    8.91    1.69
  -3  -3  13    8.57    1.47
  -3  -3  13   10.64    1.59
   2   3 -13   46.47    3.56
   2   3 -13   42.95    3.32
  -2  -3  13   39.25    3.88
  -2  -3  13   44.73    3.01
   1   3 -13   27.90    2.06
   1   3 -13   29.26    2.86
   1   3 -13   31.81    2.04
   1   3 -13   28.55    1.96
   1   3 -13   29.79    3.04
  -1  -3  13   29.76    2.35
  -1  -3  13   31.84    2.11
  -1  -3  13   31.54    2.77
  -1  -3  13   28.68    1.86
   0   3 -13   -0.20    0.55
   0   3 -13   -0.10    0.59
   0   3 -13   -1.51    1.12
   0   3 -13    0.06    0.39
   0   3 -13   -1.51    1.19
   0  -3  13   -0.47    0.50
   0  -3  13    0.60    0.62
   0  -3  13   -0.03    0.85
  -1   3 -13    1.52    0.40
  -1   3 -13   -0.50    1.36
  -1   3 -13    0.55    2.49
  -1   3 -13   -0.04    0.42
  -1   3 -13    0.62    0.21
   1  -3  13    1.93    0.62
   1  -3  13    0.28    0.87
   1  -3  13   -0.19    0.94
   1  -3  13    0.57    0.63
   1  -3  13    0.86    0.66
  -2   3 -13    3.08    1.66
   2  -3  13    2.93    0.74
   2  -3  13    1.34    1.12
   2  -3  13    5.76    1.01
   2  -3  13    2.74    1.29
  -3   3 -13    4.14    1.41
  -3   3 -13    2.47    1.63
   3  -3  13    3.66    0.79
   3  -3  13    3.98    1.31
   3  -3  13    3.37    1.02
   3  -3  13    2.00    1.22
  -4   3 -13    1.33    1.55
  -4   3 -13    2.38    1.19
   4  -3  13    0.88    1.04
   4  -3  13    2.00    0.70
   4  -3  13    2.24    1.08
   4  -3  13    0.25    1.18
  -5   3 -13    0.61    1.68
  -5   3 -13    1.79    1.03
   5  -3  13    1.15    0.67
   5  -3  13    1.08    1.34
   5  -3  13    0.59    0.89
   8   2 -13   -0.73    1.22
   8   2 -13   -1.65    1.37
   8   2 -13    0.95    1.05
  -8  -2  13    2.75    1.26
   7   2 -13   -0.20    1.11
   7   2 -13   -0.95    0.89
   7   2 -13   -1.20    1.24
  -7  -2  13    0.82    1.06
   6   2 -13   -0.16    1.20
   6   2 -13   -0.38    1.02
  -6  -2  13   -1.19    0.91
  -6  -2  13    1.01    1.02
   5   2 -13    0.63    1.26
   5   2 -13    1.15    1.02
   5   2 -13   -0.89    0.93
  -5  -2  13   -0.41    0.80
  -5  -2  13   -0.19    0.91
  -5  -2  13    0.07    0.72
   4   2 -13    6.96    1.29
   4   2 -13    8.94    1.60
   4   2 -13    6.57    1.14
  -4  -2  13    6.36    1.18
  -4  -2  13    7.37    1.70
  -4  -2  13    8.16    1.24
  -4  -2  13    6.40    1.36
   3   2 -13   -1.64    1.20
   3   2 -13   -0.92    0.84
   3   2 -13   -1.47    1.08
   3   2 -13    0.10    0.70
  -3  -2  13    0.04    0.72
  -3  -2  13   -1.78    1.04
  -3  -2  13   -0.66    0.79
  -3  -2  13   -0.72    0.87
   2   2 -13    6.67    1.60
   2   2 -13    7.82    1.17
   2   2 -13    7.72    1.52
   2   2 -13    7.53    1.05
  -2  -2  13   12.38    1.50
  -2  -2  13   10.05    1.51
   1   2 -13   34.51    2.43
   1   2 -13   36.47    3.44
   1   2 -13   39.57    2.93
   1   2 -13   37.82    2.63
   1   2 -13   37.48    2.57
   1   2 -13   44.31    2.52
  -1  -2  13   43.70    2.31
  -1  -2  13   40.34    2.63
  -1  -2  13   39.38    2.78
  -1  -2  13   38.43    2.89
   0   2 -13   35.04    2.30
   0   2 -13   31.58    3.20
   0   2 -13   36.63    2.66
   0   2 -13   33.96    2.14
   0  -2  13   36.97    2.53
   0  -2  13   34.85    2.69
   0  -2  13   32.57    2.43
   0  -2  13   34.24    2.24
   0  -2  13   32.35    2.17
  -1   2 -13   14.06    1.43
  -1   2 -13   15.75    1.77
  -1   2 -13   13.71    2.46
  -1   2 -13   14.49    1.35
   1  -2  13   15.49    1.59
   1  -2  13   12.98    1.33
   1  -2  13   13.27    2.48
   1  -2  13   14.58    1.41
  -2   2 -13    0.53    1.41
  -2   2 -13    3.15    1.15
  -2   2 -13   -0.29    0.51
  -2   2 -13   -0.25    1.03
   2  -2  13    0.40    0.68
   2  -2  13    0.20    0.97
   2  -2  13    0.92    0.97
  -3   2 -13    0.97    0.96
  -3   2 -13    0.26    0.32
  -3   2 -13    0.71    1.59
  -3   2 -13    2.92    1.51
   3  -2  13    1.23    0.93
   3  -2  13    2.84    1.25
   3  -2  13    2.17    0.82
  -4   2 -13    0.35    0.96
  -4   2 -13    1.08    1.17
  -4   2 -13   -1.19    1.54
   4  -2  13    0.90    0.97
   4  -2  13    0.06    1.20
  -5   2 -13    1.21    1.33
  -5   2 -13    1.29    0.98
   5  -2  13    0.53    1.06
   5  -2  13    1.50    0.84
   5  -2  13   -0.01    2.25
   8   1 -13   -1.89    1.15
   8   1 -13    0.73    1.26
   8   1 -13    0.10    1.21
   8   1 -13   -0.35    1.31
  -8  -1  13    0.57    1.61
   7   1 -13   -0.68    1.10
   7   1 -13   -0.39    0.78
   7   1 -13    0.96    1.36
  -7  -1  13    0.60    1.09
  -7  -1  13   -0.53    0.98
   6   1 -13   14.12    2.03
   6   1 -13   10.85    1.54
   6   1 -13   13.09    2.05
   6   1 -13   15.52    1.72
  -6  -1  13   15.84    1.71
  -6  -1  13   16.08    1.99
   5   1 -13    1.94    1.30
   5   1 -13    0.79    1.26
   5   1 -13    0.29    0.73
   5   1 -13    3.74    1.00
  -5  -1  13    1.01    0.46
  -5  -1  13    0.83    0.98
  -5  -1  13    2.68    1.01
   4   1 -13    0.16    1.37
   4   1 -13   -0.33    0.64
   4   1 -13   -0.57    0.89
  -4  -1  13   -0.39    0.87
  -4  -1  13   -0.45    0.61
  -4  -1  13    0.57    0.97
  -4  -1  13    0.35    0.94
   3   1 -13   -0.36    0.56
   3   1 -13    0.74    0.95
   3   1 -13   -0.17    0.93
   3   1 -13   -1.55    1.38
  -3  -1  13   -0.14    0.68
  -3  -1  13    0.45    0.91
  -3  -1  13    0.12    1.17
  -3  -1  13   -0.40    0.73
   2   1 -13   14.08    1.84
   2   1 -13   11.87    1.23
   2   1 -13   18.34    3.02
   2   1 -13   13.26    1.26
   2   1 -13   11.50    1.27
  -2  -1  13   14.78    1.51
  -2  -1  13   13.21    1.67
   1   1 -13    1.46    1.15
   1   1 -13    1.36    0.79
   1   1 -13    1.16    0.70
   1   1 -13   -2.04    1.49
   1   1 -13    1.20    0.71
  -1  -1  13    0.58    0.82
  -1  -1  13    1.87    1.06
  -1  -1  13    0.96    0.75
  -1  -1  13    0.33    0.36
   0   1 -13  141.17    7.26
   0   1 -13  136.17    8.14
   0   1 -13  136.67    7.29
   0   1 -13  126.79    7.08
   0   1 -13  135.66    7.47
   0   1 -13  131.50    7.08
   0  -1  13  128.89    7.23
   0  -1  13  135.41    7.36
   0  -1  13  139.10    7.59
   0  -1  13  134.45    7.33
  -1   1 -13   45.68    3.15
  -1   1 -13   45.14    2.98
  -1   1 -13   47.31    3.90
   1  -1  13   54.05    4.38
   1  -1  13   41.21    2.93
   1  -1  13   44.05    2.92
   1  -1  13   47.36    2.94
  -2   1 -13    1.58    1.61
  -2   1 -13    1.69    1.08
  -2   1 -13    1.68    0.94
   2  -1  13    1.16    0.80
   2  -1  13    1.67    1.04
   2  -1  13    0.89    1.04
  -3   1 -13   42.74    2.82
  -3   1 -13   39.25    3.82
  -3   1 -13   42.24    3.38
   3  -1  13   41.31    2.75
   3  -1  13   33.93    3.69
   3  -1  13   40.62    3.17
  -4   1 -13    1.10    1.70
  -4   1 -13    1.01    0.84
  -4   1 -13    1.15    1.15
   4  -1  13    0.27    1.15
   4  -1  13    1.36    1.04
   4  -1  13   -0.12    0.77
  -5   1 -13    4.78    1.48
  -5   1 -13    4.55    2.45
   5  -1  13    3.70    1.17
   5  -1  13    5.89    1.43
   8   0 -13   -2.10    1.69
   8   0 -13   -1.41    1.29
  -8   0  13   -1.94    1.38
  -8   0  13    1.40    1.12
   7   0 -13   -0.45    1.23
   7   0 -13   -0.57    1.36
   7   0 -13    0.77    0.83
   7   0 -13    1.93    1.18
  -7   0  13    0.04    0.98
  -7   0  13    2.02    1.13
   6   0 -13    8.39    1.88
   6   0 -13    6.92    1.03
   6   0 -13    6.39    1.35
   6   0 -13    7.89    1.67
  -6   0  13    6.53    1.35
  -6   0  13    7.56    1.43
   5   0 -13    6.69    2.03
   5   0 -13    3.55    1.13
   5   0 -13    8.01    1.61
   5   0 -13    5.00    0.82
  -5   0  13    5.07    1.62
  -5   0  13    4.73    1.18
   4   0 -13    8.42    1.84
   4   0 -13   11.25    2.05
   4   0 -13    7.52    1.25
   4   0 -13    7.37    0.94
  -4   0  13    8.42    1.38
  -4   0  13    8.00    1.45
  -4   0  13    8.50    0.97
   3   0 -13   18.70    1.28
   3   0 -13   17.52    3.51
   3   0 -13   18.70    1.98
   3   0 -13   15.88    1.55
  -3   0  13   12.93    1.30
  -3   0  13   16.19    1.63
  -3   0  13   17.08    1.80
   2   0 -13  182.77   10.23
   2   0 -13  220.85   11.16
   2   0 -13  179.84    9.83
   2   0 -13  217.09   10.03
   2   0 -13  177.67    9.74
   2   0 -13  173.72    9.97
  -2   0  13  180.67   10.15
  -2   0  13  189.71    9.91
  -2   0  13  185.64   10.26
   1   0 -13    9.59    1.06
   1   0 -13   11.23    1.41
   1   0 -13    7.72    2.07
   1   0 -13    9.65    1.51
   1   0 -13    9.52    1.07
   1   0 -13    8.79    0.98
  -1   0  13    8.36    1.11
  -1   0  13    9.68    1.36
  -1   0  13    8.73    1.13
  -1   0  13   10.43    1.53
   0   0 -13   -2.25    1.64
   0   0 -13    0.10    0.77
   0   0 -13    0.52    1.07
   0   0 -13   -0.35    0.57
   0   0 -13    0.73    0.45
   0   0  13    0.55    0.78
   0   0  13   -0.59    0.68
   0   0  13    1.29    1.05
   0   0  13    0.35    0.67
  -1   0 -13   33.73    3.74
  -1   0 -13   26.23    1.80
  -1   0 -13   34.16    2.46
   1   0  13   31.59    2.37
   1   0  13   33.18    2.26
   1   0  13   30.61    2.31
   1   0  13   32.65    2.61
  -2   0 -13   -0.34    0.97
  -2   0 -13    0.08    1.44
  -2   0 -13    1.03    1.11
   2   0  13    0.99    1.04
   2   0  13    0.72    0.70
   2   0  13    1.67    0.93
  -3   0 -13   18.90    2.96
  -3   0 -13   19.17    1.70
  -3   0 -13   19.80    1.97
   3   0  13   24.24    2.26
   3   0  13   18.65    1.81
   3   0  13   16.49    1.88
  -4   0 -13    6.72    2.02
  -4   0 -13    7.97    1.63
   4   0  13    7.90    1.36
   4   0  13    8.64    1.72
   4   0  13    8.43    1.40
  -5   0 -13    1.76    2.04
  -5   0 -13    2.10    1.33
   5   0  13    0.47    1.79
   5   0  13    1.07    1.01
   5   0  13    2.33    1.03
   8  -1 -13    1.60    1.40
  -8   1  13    1.77    1.13
  -8   1  13    1.99    1.77
   7  -1 -13    1.62    1.20
   7  -1 -13    1.84    0.74
   7  -1 -13   -0.22    1.28
   7  -1 -13   -1.90    1.53
  -7   1  13   -0.90    0.91
  -7   1  13    0.09    0.96
   6  -1 -13    0.00    0.56
   6  -1 -13   -0.70    1.48
   6  -1 -13   -0.20    1.22
   6  -1 -13    0.54    0.78
  -6   1  13    1.90    1.06
  -6   1  13    1.53    1.01
   5  -1 -13   37.21    2.92
   5  -1 -13   30.49    3.32
   5  -1 -13   42.07    2.64
  -5   1  13   36.06    2.69
  -5   1  13   35.70    2.76
   4  -1 -13  112.58    5.84
   4  -1 -13  107.43    6.97
   4  -1 -13  131.43    6.33
  -4   1  13  102.21    7.27
  -4   1  13  108.59    6.42
   3  -1 -13   88.42    4.55
   3  -1 -13   81.82    5.51
   3  -1 -13   73.36    4.78
  -3   1  13   75.89    4.71
  -3   1  13   75.12    4.69
   2  -1 -13   13.11    1.33
   2  -1 -13   15.86    1.24
   2  -1 -13   15.07    1.80
   2  -1 -13   11.62    2.01
  -2   1  13   14.01    1.51
  -2   1  13   14.95    1.69
  -2   1  13   13.90    1.07
   1  -1 -13    1.20    1.92
   1  -1 -13    0.57    0.67
   1  -1 -13    0.29    0.53
   1  -1 -13    1.16    0.96
   1  -1 -13   -0.16    0.98
  -1   1  13    0.61    0.91
  -1   1  13    1.19    0.59
  -1   1  13    1.03    0.93
  -1   1  13    2.55    0.79
   0  -1 -13    0.71    0.86
   0  -1 -13   -2.70    1.69
   0  -1 -13    0.11    0.44
   0  -1 -13   -0.43    0.55
   0   1  13    0.26    0.66
   0   1  13   -0.45    0.72
   0   1  13   -0.79    0.80
   0   1  13   -0.49    0.85
  -1  -1 -13   13.79    0.99
  -1  -1 -13   11.20    2.30
  -1  -1 -13    8.48    1.34
  -1  -1 -13   11.57    2.83
   1   1  13    9.95    1.61
   1   1  13   10.62    1.37
   1   1  13   11.72    1.23
  -2  -1 -13    2.36    1.06
  -2  -1 -13    1.32    1.65
  -2  -1 -13    1.69    0.89
   2   1  13    1.35    1.02
   2   1  13    1.68    1.34
   2   1  13    0.93    0.78
   2   1  13    0.19    1.02
  -3  -1 -13    8.09    1.57
  -3  -1 -13    6.62    1.97
  -3  -1 -13    6.25    1.01
   3   1  13    8.35    1.45
   3   1  13    7.62    0.97
   3   1  13    5.25    1.46
   3   1  13    7.90    1.21
  -4  -1 -13   -0.54    1.66
  -4  -1 -13    3.08    1.33
  -4  -1 -13    1.49    0.39
   4   1  13    0.10    1.21
   4   1  13    0.09    1.07
   4   1  13    1.14    0.84
   5   1  13    0.65    0.93
   5   1  13   -0.64    1.12
   5   1  13   -0.50    1.07
   8  -2 -13    0.39    1.72
   8  -2 -13    1.34    1.48
  -8   2  13    0.18    0.98
   7  -2 -13    4.07    0.67
   7  -2 -13    5.42    1.60
   7  -2 -13    3.58    1.20
   7  -2 -13    2.67    0.73
  -7   2  13    3.71    1.26
  -7   2  13    4.49    1.19
   6  -2 -13   -0.93    1.55
   6  -2 -13   -0.10    0.95
   6  -2 -13    1.43    1.33
  -6   2  13    1.86    1.00
  -6   2  13   -0.01    1.02
   5  -2 -13   25.57    3.09
   5  -2 -13   24.67    1.43
   5  -2 -13   28.49    2.11
   5  -2 -13   25.92    2.43
  -5   2  13   27.00    2.22
  -5   2  13   24.34    2.19
   4  -2 -13    2.23    0.52
   4  -2 -13    3.47    1.89
   4  -2 -13    0.12    1.29
   4  -2 -13    0.51    0.95
  -4   2  13    4.74    1.17
  -4   2  13    3.11    1.03
   3  -2 -13   21.71    3.04
   3  -2 -13   16.84    1.54
   3  -2 -13   16.43    1.31
  -3   2  13   13.45    1.66
  -3   2  13   13.73    1.67
   2  -2 -13    4.04    1.22
   2  -2 -13    6.94    2.22
   2  -2 -13    4.78    0.89
  -2   2  13    4.38    1.10
  -2   2  13    3.34    1.08
   1  -2 -13    6.34    1.34
   1  -2 -13    6.45    0.91
   1  -2 -13    8.45    1.29
  -1   2  13    8.33    1.36
  -1   2  13   10.41    1.54
  -1   2  13    7.29    1.84
   0  -2 -13    6.31    0.89
   0  -2 -13    7.10    1.26
   0  -2 -13    4.01    1.84
   0  -2 -13    7.50    3.61
   0   2  13    5.73    0.86
   0   2  13    5.71    0.84
   0   2  13    7.62    1.35
   0   2  13    5.83    1.47
   0   2  13    5.92    1.23
  -1  -2 -13    7.00    1.22
  -1  -2 -13    4.99    1.21
  -1  -2 -13    7.29    2.28
   1   2  13    5.30    1.83
   1   2  13    7.75    1.66
   1   2  13    6.64    0.98
   1   2  13    7.35    0.88
  -2  -2 -13    0.23    0.24
  -2  -2 -13    0.62    1.73
  -2  -2 -13   -1.45    1.64
  -2  -2 -13   -0.89    0.76
   2   2  13    1.73    0.63
   2   2  13    0.93    0.94
   2   2  13    0.60    1.00
   2   2  13   -0.22    0.71
  -3  -2 -13    9.06    1.60
  -3  -2 -13    7.36    2.16
   3   2  13    8.44    1.30
   3   2  13    7.97    1.58
   3   2  13    5.48    1.32
  -4  -2 -13    1.58    0.51
  -4  -2 -13   -0.91    1.71
  -4  -2 -13    1.12    1.24
   4   2  13   -0.85    1.09
   4   2  13    0.72    0.90
   4   2  13   -1.17    1.07
  -5  -2 -13    1.11    1.34
   5   2  13    0.01    0.93
   5   2  13   -0.12    1.43
   8  -3 -13    0.07    1.58
   8  -3 -13   -2.85    1.98
   8  -3 -13   -0.21    1.08
  -8   3  13    1.46    1.68
  -8   3  13   -0.33    0.81
   7  -3 -13    1.62    0.56
   7  -3 -13    2.28    1.45
   7  -3 -13   -0.87    1.90
   7  -3 -13    5.17    1.13
  -7   3  13    3.61    1.36
  -7   3  13    2.05    1.00
   6  -3 -13    5.22    0.77
   6  -3 -13    4.43    1.53
   6  -3 -13    0.66    1.94
   6  -3 -13    5.36    1.14
  -6   3  13    3.03    1.17
  -6   3  13    5.17    1.11
   5  -3 -13    2.07    1.13
   5  -3 -13    3.29    0.65
   5  -3 -13   -0.95    1.86
   5  -3 -13    2.05    1.33
  -5   3  13    0.68    0.96
  -5   3  13    1.85    0.89
   4  -3 -13    0.51    1.12
   4  -3 -13   -0.95    2.22
   4  -3 -13    1.94    0.65
  -4   3  13    0.57    0.23
  -4   3  13   -0.26    0.97
  -4   3  13   -0.75    0.78
  -4   3  13    0.83    0.77
   3  -3 -13    4.72    1.54
   3  -3 -13    5.38    0.97
  -3   3  13    5.20    1.96
  -3   3  13    4.56    1.15
  -3   3  13    6.10    1.07
   2  -3 -13   -0.86    0.93
   2  -3 -13    3.11    2.94
   2  -3 -13    0.93    0.75
  -2   3  13    0.10    0.94
  -2   3  13    0.38    0.58
  -2   3  13   -0.21    0.61
  -2   3  13    0.39    0.87
   1  -3 -13   76.58    5.37
   1  -3 -13   65.66    4.11
   1  -3 -13   68.34    4.18
  -1   3  13   65.00    4.20
  -1   3  13   66.69    4.15
  -1   3  13   67.84    4.22
  -1   3  13   64.27    4.10
   0  -3 -13   -0.39    2.09
   0  -3 -13   -0.10    0.49
   0  -3 -13   -0.04    0.82
   0   3  13    0.10    0.23
   0   3  13    0.39    0.63
   0   3  13    0.05    0.87
   0   3  13   -0.90    0.81
  -1  -3 -13    1.24    0.98
  -1  -3 -13    0.32    0.33
  -1  -3 -13   -2.95    1.91
  -1  -3 -13    1.03    0.91
   1   3  13    0.81    0.52
   1   3  13    1.02    0.59
   1   3  13    0.26    0.90
  -2  -3 -13   -0.81    1.80
  -2  -3 -13    0.36    1.04
  -2  -3 -13    0.86    0.54
   2   3  13    0.59    0.53
   2   3  13    1.28    1.08
   2   3  13    0.17    0.98
   2   3  13    0.91    1.04
  -3  -3 -13    7.10    2.26
  -3  -3 -13    2.45    1.29
   3   3  13    1.01    0.88
   3   3  13    1.72    1.21
   3   3  13    1.79    1.28
  -4  -3 -13    2.07    1.89
  -4  -3 -13    2.57    1.57
   4   3  13   -1.22    1.22
   4   3  13    0.63    1.11
   4   3  13    0.45    0.76
   8  -4 -13    2.45    2.30
  -8   4  13    4.01    1.53
   7  -4 -13   -2.17    1.78
   7  -4 -13   -1.96    1.41
   7  -4 -13    0.18    1.38
  -7   4  13   -0.68    0.94
  -7   4  13    1.14    0.72
   6  -4 -13    0.44    0.76
   6  -4 -13   -0.21    1.92
   6  -4 -13    2.00    1.43
  -6   4  13    2.28    1.01
  -6   4  13    2.67    0.85
  -6   4  13    1.79    1.22
   5  -4 -13   22.95    1.75
   5  -4 -13   25.04    2.40
   5  -4 -13   14.91    2.98
  -5   4  13   22.23    1.99
  -5   4  13   20.11    2.03
   4  -4 -13   -0.52    1.91
   4  -4 -13   -1.07    1.06
   4  -4 -13    2.39    0.80
  -4   4  13    0.35    0.71
  -4   4  13    1.19    0.34
  -4   4  13    1.13    0.85
  -4   4  13    0.48    0.93
   3  -4 -13   37.07    2.71
   3  -4 -13   30.23    3.58
   3  -4 -13   34.29    2.38
  -3   4  13   34.80    2.70
  -3   4  13   31.87    2.37
  -3   4  13   33.06    2.41
   2  -4 -13   13.28    2.79
   2  -4 -13   11.51    1.49
   2  -4 -13    9.70    1.64
  -2   4  13   10.09    1.24
  -2   4  13    8.72    1.49
   1  -4 -13   10.09    1.34
   1  -4 -13   12.34    2.66
   1  -4 -13    6.35    1.30
  -1   4  13    7.29    1.39
  -1   4  13    8.01    1.11
  -1   4  13    7.83    1.26
   0  -4 -13    0.43    0.96
   0  -4 -13    1.06    2.00
   0  -4 -13    2.25    0.98
   0   4  13    0.39    0.22
   0   4  13    0.64    0.63
   0   4  13   -0.23    0.89
  -1  -4 -13    8.67    1.59
  -1  -4 -13    6.65    2.42
  -1  -4 -13    8.00    1.27
   1   4  13    9.23    1.65
   1   4  13    8.83    1.11
   1   4  13   10.89    1.61
  -2  -4 -13    2.65    1.25
  -2  -4 -13   -0.80    2.15
   2   4  13    1.25    0.59
   2   4  13    2.63    1.33
   2   4  13    1.39    0.78
   2   4  13    1.81    1.19
  -3  -4 -13    1.37    1.28
  -3  -4 -13    0.80    0.33
  -3  -4 -13    0.26    1.82
   3   4  13    0.91    1.16
   3   4  13    0.07    1.14
   3   4  13    0.72    0.79
   3   4  13    0.57    0.58
   7  -5 -13    0.57    1.68
   7  -5 -13    0.21    2.56
  -7   5  13   -0.45    1.47
  -7   5  13    1.04    1.06
   6  -5 -13   -0.28    2.09
   6  -5 -13    1.74    1.48
  -6   5  13    1.80    1.08
  -6   5  13    4.14    1.17
   5  -5 -13    5.76    1.74
   5  -5 -13    6.80    1.90
   5  -5 -13    7.32    1.09
   5  -5 -13    3.02    2.39
  -5   5  13    4.57    0.60
  -5   5  13    5.64    1.41
  -5   5  13    5.91    1.26
   4  -5 -13    4.03    1.42
   4  -5 -13    3.54    2.20
   4  -5 -13    5.08    1.08
   4  -5 -13    7.09    1.03
  -4   5  13    3.60    1.20
  -4   5  13    4.70    1.15
   3  -5 -13   -1.00    1.04
   3  -5 -13    1.05    0.66
   3  -5 -13    0.84    0.88
   3  -5 -13    0.36    1.87
  -3   5  13    0.72    0.60
  -3   5  13   -0.13    1.04
  -3   5  13    0.24    0.80
   2  -5 -13    2.46    2.37
   2  -5 -13    2.47    1.17
   2  -5 -13    2.34    1.03
  -2   5  13    1.64    0.83
  -2   5  13    1.94    1.08
  -2   5  13    1.12    0.74
   1  -5 -13    9.03    1.74
   1  -5 -13   12.02    2.71
   1  -5 -13    9.11    1.48
  -1   5  13    8.88    1.27
  -1   5  13    8.90    1.58
  -1   5  13   10.75    1.45
   0  -5 -13   19.23    3.23
   0  -5 -13   20.92    1.78
   0  -5 -13   17.13    2.02
   0   5  13   13.91    1.79
   0   5  13   14.76    1.98
  -1  -5 -13    9.92    2.89
  -1  -5 -13   10.28    1.68
   1   5  13   11.23    1.78
   1   5  13   12.82    1.81
   1   5  13   10.93    1.38
  -2  -5 -13    0.27    2.25
  -2  -5 -13    3.39    1.32
   2   5  13    2.34    1.17
   2   5  13    1.39    0.41
   2   5  13    0.54    1.86
   2   5  13    1.66    0.80
  -3  -5 -13    3.05    1.25
   3   5  13    4.64    1.40
   6  -6 -13    8.97    2.34
  -6   6  13   14.39    2.75
   5  -6 -13    1.74    1.39
   5  -6 -13   -3.08    2.28
  -5   6  13    1.07    1.03
  -5   6  13    0.43    1.09
   4  -6 -13    1.08    1.21
   4  -6 -13   -1.91    2.30
   4  -6 -13   -0.67    1.25
  -4   6  13    0.55    0.94
  -4   6  13   -0.48    0.76
   3  -6 -13    5.19    1.44
   3  -6 -13    4.39    2.53
   3  -6 -13    5.15    1.32
  -3   6  13    5.91    1.20
  -3   6  13    3.37    1.20
   2  -6 -13    1.72    1.03
   2  -6 -13    0.19    1.22
   2  -6 -13    4.25    2.38
  -2   6  13    5.47    1.38
  -2   6  13    1.29    0.87
  -2   6  13    1.15    0.37
   1  -6 -13    2.82    1.11
   1  -6 -13    4.31    1.30
   1  -6 -13   10.69    2.91
  -1   6  13    3.39    1.03
  -1   6  13    3.80    1.25
   0  -6 -13    0.08    2.51
   0  -6 -13    0.24    0.88
   0  -6 -13    2.15    1.12
   0   6  13   -0.16    0.75
   0   6  13   -1.29    1.12
   0   6  13   -0.59    0.77
   0   6  13    0.61    0.26
  -1  -6 -13    5.88    3.25
   1   6  13    4.43    1.25
   1   6  13    5.45    1.63
   4  -7 -13    2.15    2.68
   4  -7 -13    4.91    1.33
   4  -7 -13    5.27    1.79
  -4   7  13    5.02    2.07
  -4   7  13    5.34    1.30
   3  -7 -13   -2.03    2.36
   3  -7 -13    1.17    1.00
   3  -7 -13   -0.18    1.19
   2  -7 -13    6.37    1.46
   2  -7 -13    4.58    2.68
   2  -7 -13    4.20    1.42
  -2   7  13    3.50    1.11
  -2   7  13    3.53    0.51
   1  -7 -13    1.71    1.06
   1  -7 -13    3.44    2.71
   1  -7 -13    3.97    1.21
  -1   7  13    0.72    0.90
  -1   7  13    0.83    1.11
   2   7 -14   -0.14    0.42
   2   7 -14    0.84    1.06
   2   7 -14    0.73    1.41
   2   7 -14    0.65    1.09
  -2  -7  14    0.30    1.52
  -2  -7  14    1.32    1.04
   1   7 -14    1.31    1.50
   1   7 -14    0.16    1.08
   1   7 -14    0.58    0.39
   1   7 -14    0.15    1.18
  -1  -7  14    0.32    0.94
   0   7 -14    1.75    1.49
   0   7 -14    1.81    0.98
   0   7 -14    0.62    1.22
   0  -7  14   -0.12    0.76
   0  -7  14    1.18    1.02
   0  -7  14    1.96    1.72
  -1   7 -14    6.52    1.76
  -1   7 -14    7.37    2.02
   1  -7  14    4.71    1.68
   1  -7  14    6.67    1.41
   1  -7  14    5.66    1.25
   4   6 -14    4.67    1.49
   4   6 -14    5.10    1.17
  -4  -6  14    7.61    1.61
   3   6 -14    5.98    1.45
   3   6 -14    2.72    1.26
   3   6 -14    3.30    1.54
   3   6 -14    5.03    1.21
  -3  -6  14    1.82    1.29
  -3  -6  14    4.08    1.29
   2   6 -14    1.43    1.65
   2   6 -14    1.71    0.48
   2   6 -14    0.23    1.05
   2   6 -14    2.40    1.22
  -2  -6  14    1.73    1.12
  -2  -6  14    1.46    1.36
   1   6 -14   -0.88    1.60
   1   6 -14   -1.12    1.31
  -1  -6  14    2.84    1.46
  -1  -6  14    0.66    1.00
   0   6 -14    2.05    0.88
   0   6 -14    0.25    1.33
   0   6 -14   -1.32    1.33
   0  -6  14    0.29    0.98
   0  -6  14    4.28    1.46
   0  -6  14    1.03    0.56
  -1   6 -14    1.21    1.37
  -1   6 -14    0.63    0.30
  -1   6 -14   -0.56    0.38
  -1   6 -14    0.38    1.47
   1  -6  14    0.39    1.01
   1  -6  14   -0.35    1.46
  -2   6 -14    6.31    1.96
   2  -6  14    2.80    1.23
   2  -6  14    2.66    1.07
   2  -6  14   -0.26    1.47
  -3   6 -14    0.64    1.61
  -3   6 -14    0.29    1.73
   3  -6  14    1.23    0.90
   3  -6  14   -1.28    1.13
   3  -6  14   -1.21    1.15
   5   5 -14    4.61    1.67
   5   5 -14    4.81    1.23
   5   5 -14    0.54    1.25
  -5  -5  14    0.68    1.25
   4   5 -14    2.45    0.96
   4   5 -14   -1.05    1.32
   4   5 -14    0.76    1.14
  -4  -5  14   -0.43    1.16
  -4  -5  14   -0.82    0.71
  -4  -5  14    0.55    1.05
   3   5 -14    2.59    1.13
   3   5 -14    2.51    1.12
   3   5 -14    3.24    0.90
   3   5 -14    0.80    1.38
  -3  -5  14    3.25    1.24
  -3  -5  14    1.85    1.16
   2   5 -14    1.91    1.18
   2   5 -14    1.10    1.52
   2   5 -14    1.46    0.70
   2   5 -14    0.82    1.25
  -2  -5  14    2.09    1.20
  -2  -5  14   -0.29    0.93
   1   5 -14   -0.03    1.13
   1   5 -14    0.10    0.76
   1   5 -14   -0.25    1.26
   1   5 -14    0.24    0.44
  -1  -5  14   -0.06    0.97
  -1  -5  14    1.58    1.16
   0   5 -14    0.18    1.30
   0   5 -14    1.32    1.44
   0   5 -14    0.15    0.89
   0  -5  14    0.86    1.01
   0  -5  14    0.46    0.59
   0  -5  14   -0.88    1.06
  -1   5 -14    0.36    0.37
  -1   5 -14    1.23    0.54
  -1   5 -14    0.24    1.21
  -1   5 -14    0.61    1.37
  -1   5 -14   -0.29    0.27
   1  -5  14    0.09    0.67
   1  -5  14    0.26    1.04
   1  -5  14   -1.48    1.02
  -2   5 -14    0.93    0.38
  -2   5 -14    3.02    1.42
  -2   5 -14    0.39    0.44
  -2   5 -14    0.52    0.25
   2  -5  14    0.94    0.90
   2  -5  14    0.34    1.14
   2  -5  14    1.49    1.20
  -3   5 -14   -0.60    1.15
  -3   5 -14    1.43    1.76
   3  -5  14    0.96    1.01
   3  -5  14   -1.47    1.03
   3  -5  14    0.05    1.22
   4  -5  14   -1.35    1.05
   6   4 -14    0.17    1.00
   6   4 -14    1.16    1.42
  -6  -4  14    0.58    1.05
  -6  -4  14    2.63    1.86
   5   4 -14    4.50    1.39
   5   4 -14    3.85    1.13
   5   4 -14    3.41    1.55
  -5  -4  14    2.89    1.31
  -5  -4  14    3.11    1.26
   4   4 -14    0.11    1.35
   4   4 -14    3.58    1.12
   4   4 -14    0.09    0.86
   4   4 -14    1.95    1.15
  -4  -4  14    1.75    1.05
  -4  -4  14    1.12    1.09
   3   4 -14   11.17    1.93
   3   4 -14   17.73    1.68
   3   4 -14   13.90    1.98
  -3  -4  14   14.09    1.86
  -3  -4  14   10.68    1.43
   2   4 -14    1.98    1.17
   2   4 -14   -0.72    1.17
   2   4 -14    2.22    1.04
  -2  -4  14    0.95    1.02
  -2  -4  14    0.62    0.76
  -2  -4  14    2.09    1.33
   1   4 -14   18.77    2.44
   1   4 -14   16.76    1.91
   1   4 -14   16.80    2.13
  -1  -4  14   17.67    1.95
  -1  -4  14   13.71    0.89
  -1  -4  14   17.84    1.49
   0   4 -14    0.33    0.38
   0   4 -14    0.27    0.65
   0   4 -14    2.04    1.46
   0   4 -14    0.01    1.70
   0  -4  14    0.79    1.06
   0  -4  14   -0.29    0.55
   0  -4  14   -0.61    0.97
   0  -4  14   -0.22    0.54
  -1   4 -14    5.45    1.47
  -1   4 -14    3.83    1.75
   1  -4  14    3.02    0.85
   1  -4  14    2.50    1.16
   1  -4  14    4.37    0.78
   1  -4  14    3.57    1.32
  -2   4 -14    1.26    1.54
  -2   4 -14    0.66    0.32
  -2   4 -14   -0.13    1.20
   2  -4  14    0.71    0.73
   2  -4  14    1.12    1.10
   2  -4  14    0.41    1.07
  -3   4 -14    1.66    1.70
  -3   4 -14    5.19    1.46
   3  -4  14    5.03    1.22
   3  -4  14    3.58    1.35
   3  -4  14    3.56    1.45
  -4   4 -14    1.86    1.30
  -4   4 -14    1.13    1.85
   4  -4  14    1.03    1.04
   7   3 -14    0.80    1.38
   7   3 -14    1.87    1.55
   7   3 -14    0.29    1.29
  -7  -3  14   -0.03    1.09
   6   3 -14    1.75    1.06
   6   3 -14    3.05    0.89
   6   3 -14    3.22    1.49
   6   3 -14    0.43    0.93
  -6  -3  14    1.72    1.18
   5   3 -14   25.62    2.15
   5   3 -14   22.14    2.47
   5   3 -14   24.17    2.18
  -5  -3  14   23.06    2.13
  -5  -3  14   20.31    2.26
  -5  -3  14   22.57    2.15
   4   3 -14   10.28    1.74
   4   3 -14    8.07    1.73
   4   3 -14   11.47    1.52
  -4  -3  14    7.58    1.53
  -4  -3  14    9.92    1.44
  -4  -3  14   10.35    1.53
   3   3 -14    4.99    1.37
   3   3 -14    4.07    1.08
   3   3 -14    2.82    1.39
  -3  -3  14    1.87    1.07
  -3  -3  14    2.87    1.13
  -3  -3  14    3.26    1.02
   2   3 -14   25.08    1.97
   2   3 -14   26.15    2.50
   2   3 -14   22.80    2.63
  -2  -3  14   30.05    2.37
  -2  -3  14   25.87    2.40
  -2  -3  14   26.50    2.01
   1   3 -14    0.31    1.24
   1   3 -14    0.90    0.64
   1   3 -14    0.79    0.76
   1   3 -14    0.66    1.18
  -1  -3  14    0.27    0.23
  -1  -3  14   -0.46    0.98
  -1  -3  14    0.13    0.73
  -1  -3  14    1.12    1.04
   0   3 -14   -0.54    0.59
   0   3 -14    1.09    2.00
   0   3 -14    1.04    0.30
   0   3 -14    2.31    1.24
   0   3 -14    0.96    0.61
   0  -3  14    0.54    1.04
   0  -3  14   -0.69    0.86
   0  -3  14   -0.15    0.54
   0  -3  14    0.73    0.66
  -1   3 -14   20.88    2.20
  -1   3 -14   21.05    2.92
   1  -3  14   22.90    2.29
   1  -3  14   23.30    1.78
   1  -3  14   25.89    1.87
  -2   3 -14    0.90    1.58
  -2   3 -14    0.87    1.13
  -2   3 -14   -0.11    0.34
   2  -3  14    0.23    0.76
   2  -3  14   -0.04    0.62
   2  -3  14   -0.15    1.11
   2  -3  14   -0.44    0.91
  -3   3 -14    2.74    1.29
  -3   3 -14    0.37    0.38
  -3   3 -14    1.28    1.58
   3  -3  14    2.83    0.77
   3  -3  14    1.51    0.95
   3  -3  14    0.36    1.20
   3  -3  14    2.61    1.28
  -4   3 -14    2.96    1.30
  -4   3 -14    2.40    2.79
   4  -3  14    2.33    1.17
   4  -3  14    2.33    0.78
   4  -3  14    4.33    1.14
   4  -3  14    0.95    1.37
   7   2 -14    0.54    1.18
   7   2 -14    0.93    1.44
  -7  -2  14   -0.88    1.07
   6   2 -14    3.05    1.53
   6   2 -14    2.77    1.28
   6   2 -14    3.96    1.16
  -6  -2  14    4.15    1.20
  -6  -2  14    2.50    1.25
   5   2 -14    3.89    1.49
   5   2 -14    4.60    1.09
   5   2 -14    5.78    1.41
  -5  -2  14    4.58    1.27
  -5  -2  14    4.80    1.25
  -5  -2  14    4.78    1.32
   4   2 -14    0.37    1.27
   4   2 -14    1.46    1.16
   4   2 -14   -0.75    0.96
  -4  -2  14    2.70    0.84
  -4  -2  14    0.66    0.95
  -4  -2  14    0.72    0.69
  -4  -2  14    0.28    0.96
   3   2 -14    5.50    1.24
   3   2 -14   11.05    2.68
   3   2 -14    8.52    1.67
   3   2 -14    9.58    1.16
  -3  -2  14    9.03    1.35
  -3  -2  14    8.61    1.47
   2   2 -14    0.72    1.34
   2   2 -14    0.56    1.30
   2   2 -14    1.32    0.82
   2   2 -14    1.23    1.54
  -2  -2  14    0.58    0.96
  -2  -2  14    1.91    0.95
  -2  -2  14    2.09    0.89
   1   2 -14   -0.02    1.30
   1   2 -14    0.99    0.59
   1   2 -14   -0.08    0.64
  -1  -2  14    0.51    0.95
  -1  -2  14    1.50    0.85
  -1  -2  14    0.31    0.28
  -1  -2  14    0.23    0.79
   0   2 -14   47.97    3.05
   0   2 -14   51.94    4.68
   0  -2  14   54.04    2.98
   0  -2  14   48.26    3.51
   0  -2  14   48.50    3.18
   0  -2  14   47.60    3.23
  -1   2 -14   11.63    2.20
   1  -2  14    8.71    1.24
   1  -2  14   10.17    1.63
   1  -2  14    8.29    1.37
  -2   2 -14   -0.03    1.51
  -2   2 -14    0.61    0.89
   2  -2  14   -0.49    0.70
   2  -2  14    0.39    1.78
   2  -2  14   -0.08    1.04
  -3   2 -14    1.41    1.69
  -3   2 -14    0.84    1.18
   3  -2  14    2.03    1.29
   3  -2  14    0.51    0.93
   3  -2  14    1.73    0.82
  -4   2 -14   -1.15    1.71
  -4   2 -14   -1.51    1.18
  -4   2 -14   -0.51    0.86
   4  -2  14    1.46    0.81
   4  -2  14   -1.24    0.87
   4  -2  14   -1.73    1.09
  -5   2 -14    2.49    0.65
  -5   2 -14    1.84    1.62
   5  -2  14    0.80    1.19
   5  -2  14   -0.34    1.23
   5  -2  14    1.11    0.85
   8   1 -14    6.02    1.51
   8   1 -14   -0.14    0.98
   8   1 -14   -1.06    1.68
  -8  -1  14    1.83    1.24
   7   1 -14    1.16    1.24
   7   1 -14    0.56    1.24
   7   1 -14    0.02    1.41
  -7  -1  14    0.58    1.13
  -7  -1  14    0.60    1.07
   6   1 -14    0.79    1.30
   6   1 -14   -0.86    1.19
   6   1 -14   -0.98    1.31
   6   1 -14   -0.86    1.00
  -6  -1  14    2.12    1.11
  -6  -1  14    0.33    1.01
   5   1 -14    3.99    1.50
   5   1 -14    3.72    0.84
   5   1 -14    4.80    1.23
   5   1 -14    3.50    1.50
  -5  -1  14    2.69    1.17
  -5  -1  14    4.14    1.17
  -5  -1  14    2.27    0.81
   4   1 -14    3.40    0.93
   4   1 -14    2.61    1.42
   4   1 -14    1.62    1.14
   4   1 -14    0.39    1.62
  -4  -1  14    1.52    1.00
  -4  -1  14    1.98    0.78
  -4  -1  14    1.06    0.90
   3   1 -14    6.89    1.14
   3   1 -14    8.33    0.99
   3   1 -14    8.37    1.90
   3   1 -14   10.50    1.89
  -3  -1  14    6.25    1.21
  -3  -1  14    5.57    0.98
  -3  -1  14    7.12    1.54
   2   1 -14   26.20    2.97
   2   1 -14   26.94    2.00
   2   1 -14   25.50    2.66
   2   1 -14   28.66    2.11
  -2  -1  14   23.73    2.03
  -2  -1  14   27.89    2.01
   1   1 -14   12.81    1.25
   1   1 -14   14.07    1.81
   1   1 -14   13.08    2.46
   1   1 -14   14.52    1.29
   1   1 -14   14.41    1.24
  -1  -1  14   16.24    1.56
  -1  -1  14   11.98    1.46
   0   1 -14   12.17    1.34
   0   1 -14   12.99    1.85
   0   1 -14   15.71    3.52
   0   1 -14   11.21    1.20
   0  -1  14   12.52    1.73
   0  -1  14   10.32    1.28
   0  -1  14   11.72    1.38
   0  -1  14    9.54    1.09
  -1   1 -14    0.56    0.90
  -1   1 -14    2.05    1.63
   1  -1  14    0.72    1.08
   1  -1  14    1.41    0.89
   1  -1  14    1.31    0.80
  -2   1 -14   22.76    3.06
  -2   1 -14   22.75    2.10
  -2   1 -14   22.98    2.03
   2  -1  14   22.41    1.93
   2  -1  14   20.72    1.95
   2  -1  14   24.02    2.33
  -3   1 -14   13.46    2.55
  -3   1 -14   12.19    1.65
  -3   1 -14   13.50    1.64
   3  -1  14   12.18    1.92
   3  -1  14   10.04    1.67
   3  -1  14   13.29    1.49
  -4   1 -14    2.72    1.31
  -4   1 -14    3.87    1.03
  -4   1 -14    0.33    1.81
   4  -1  14    2.15    1.09
   4  -1  14    2.59    1.41
   4  -1  14    2.69    1.64
  -5   1 -14   -0.32    1.23
  -5   1 -14    1.67    1.69
   5  -1  14    0.33    0.88
   5  -1  14   -1.50    1.23
   5  -1  14    0.54    1.60
   8   0 -14    3.79    1.41
  -8   0  14    2.81    1.36
  -8   0  14    1.53    1.36
   7   0 -14    0.31    1.63
   7   0 -14    4.02    1.13
   7   0 -14    2.81    1.55
  -7   0  14    2.79    1.20
  -7   0  14    2.93    1.21
   6   0 -14    0.66    1.54
   6   0 -14    1.57    1.45
   6   0 -14    1.71    1.16
   6   0 -14    2.65    0.72
  -6   0  14    1.23    1.09
  -6   0  14    2.95    1.12
   5   0 -14   12.98    2.39
   5   0 -14   11.57    1.53
   5   0 -14   11.32    1.90
   5   0 -14   12.06    1.12
  -5   0  14    8.58    1.54
  -5   0  14   12.35    1.74
   4   0 -14    7.27    0.90
   4   0 -14    7.11    1.62
   4   0 -14    7.61    1.30
   4   0 -14    7.14    1.95
  -4   0  14    6.72    1.26
  -4   0  14    5.16    1.49
   3   0 -14    6.96    2.11
   3   0 -14    5.44    0.82
   3   0 -14    5.19    1.05
  -3   0  14    4.76    1.19
  -3   0  14    5.21    1.30
  -3   0  14    6.16    0.76
   2   0 -14   16.72    1.27
   2   0 -14   14.12    1.52
   2   0 -14   17.88    2.80
   2   0 -14   17.79    1.99
   2   0 -14   16.54    1.22
  -2   0  14   17.95    1.47
  -2   0  14   16.94    1.85
  -2   0  14   18.03    1.78
   1   0 -14    8.53    1.10
   1   0 -14   10.95    1.04
   1   0 -14    8.36    2.10
   1   0 -14    9.33    1.05
   1   0 -14   10.37    1.60
  -1   0  14    9.83    1.28
  -1   0  14    8.03    1.11
  -1   0  14    9.94    1.55
   0   0 -14    1.93    0.88
   0   0 -14    0.37    0.68
   0   0 -14    0.21    2.24
   0   0  14    0.70    1.09
   0   0  14    0.05    0.74
   0   0  14    2.49    0.75
  -1   0 -14    2.99    1.22
  -1   0 -14    2.56    1.69
  -1   0 -14    3.36    1.57
   1   0  14    3.82    1.24
   1   0  14    3.75    0.85
   1   0  14    4.01    1.08
  -2   0 -14   49.90    3.20
  -2   0 -14   45.21    3.29
  -2   0 -14   51.47    4.27
   2   0  14   47.48    3.19
   2   0  14   46.59    3.51
   2   0  14   47.82    3.19
  -3   0 -14   18.23    2.98
  -3   0 -14   22.17    2.09
  -3   0 -14   22.10    1.88
   3   0  14   18.56    1.86
   3   0  14   18.92    2.35
   3   0  14   20.56    1.92
  -4   0 -14    7.26    2.28
  -4   0 -14    8.60    1.63
   4   0  14    7.54    1.37
   4   0  14    7.49    1.73
   4   0  14    9.31    1.50
   8  -1 -14   -3.61    2.00
   8  -1 -14   -0.64    1.19
  -8   1  14    0.90    1.12
  -8   1  14    0.77    1.23
   7  -1 -14    3.03    1.52
   7  -1 -14    0.79    0.91
   7  -1 -14    0.89    1.74
  -7   1  14    2.58    1.18
  -7   1  14    1.77    1.28
   6  -1 -14    6.84    1.71
   6  -1 -14    7.59    1.41
  -6   1  14    5.84    1.39
  -6   1  14    4.02    1.21
   5  -1 -14    7.24    1.66
   5  -1 -14    5.44    0.61
   5  -1 -14    6.30    1.99
   5  -1 -14    6.64    1.21
  -5   1  14    5.25    1.27
  -5   1  14    5.00    1.23
   4  -1 -14    7.73    1.63
   4  -1 -14   10.24    2.38
   4  -1 -14   11.08    2.18
  -4   1  14   10.31    1.54
  -4   1  14    7.61    1.39
   3  -1 -14    3.51    1.06
  -3   1  14    3.68    1.33
  -3   1  14    3.75    1.08
   2  -1 -14   11.45    2.47
   2  -1 -14    8.42    1.03
   2  -1 -14    8.80    1.57
  -2   1  14    8.22    1.38
  -2   1  14    9.16    1.38
   1  -1 -14    3.21    0.83
   1  -1 -14    2.83    1.22
   1  -1 -14    2.70    0.64
   1  -1 -14    2.19    2.95
   1  -1 -14    2.53    0.86
  -1   1  14    4.02    1.14
  -1   1  14    5.37    1.25
  -1   1  14    1.70    0.57
   0  -1 -14   12.26    1.33
   0  -1 -14   13.38    1.60
   0  -1 -14   13.46    2.56
   0   1  14   12.75    1.61
   0   1  14    9.54    1.44
   0   1  14   10.32    1.18
  -1  -1 -14    1.30    1.03
  -1  -1 -14    0.46    1.77
  -1  -1 -14    0.53    0.25
  -1  -1 -14    0.81    0.29
  -1  -1 -14    3.15    1.01
   1   1  14    2.56    1.19
   1   1  14    2.63    0.76
  -2  -1 -14    5.19    1.88
  -2  -1 -14    4.47    2.21
   2   1  14    5.56    1.18
   2   1  14    5.33    1.41
   2   1  14    5.24    1.01
  -3  -1 -14    5.89    1.37
   3   1  14    5.37    1.10
   3   1  14    6.86    1.59
  -4  -1 -14   18.96    2.15
  -4  -1 -14   19.40    3.85
   4   1  14   19.13    1.98
   4   1  14   22.82    4.04
   4   1  14   14.55    1.94
   8  -2 -14   -0.29    0.87
   8  -2 -14    1.72    1.50
  -8   2  14    0.12    1.08
  -8   2  14    2.32    1.11
   7  -2 -14   19.87    2.46
   7  -2 -14   20.82    2.03
  -7   2  14   19.76    2.21
  -7   2  14   17.16    2.03
   6  -2 -14   17.66    2.24
   6  -2 -14   11.29    2.57
   6  -2 -14   18.52    1.81
  -6   2  14   17.76    1.97
  -6   2  14   13.64    1.77
   5  -2 -14   13.88    1.56
   5  -2 -14   11.75    1.91
   5  -2 -14   16.11    3.19
  -5   2  14   11.55    1.59
  -5   2  14    9.50    1.61
   4  -2 -14    4.72    2.78
   4  -2 -14    6.81    1.27
   4  -2 -14    4.13    1.39
  -4   2  14    3.57    1.24
  -4   2  14    3.61    1.09
   3  -2 -14    1.64    0.95
   3  -2 -14    2.22    0.69
   3  -2 -14    0.43    1.20
  -3   2  14    1.52    0.98
  -3   2  14    1.04    0.93
  -3   2  14    0.60    0.26
   2  -2 -14   26.30    2.38
   2  -2 -14   27.35    2.03
   2  -2 -14   33.57    3.88
   2  -2 -14   29.96    2.69
  -2   2  14   29.26    2.39
  -2   2  14   28.26    2.38
   1  -2 -14    6.00    1.45
   1  -2 -14    6.93    2.32
   1  -2 -14    7.77    1.22
  -1   2  14    6.43    0.92
  -1   2  14    7.43    1.35
  -1   2  14   10.07    1.53
   0  -2 -14    0.43    2.02
   0  -2 -14    3.36    1.22
   0  -2 -14    4.51    1.66
   0   2  14    3.79    1.19
   0   2  14    2.90    0.70
  -1  -2 -14    0.60    0.92
  -1  -2 -14   -1.09    1.78
  -1  -2 -14   -0.19    0.25
  -1  -2 -14   -0.74    0.97
   1   2  14    0.61    0.59
   1   2  14    0.09    0.86
   1   2  14    0.19    0.98
  -2  -2 -14    0.00    1.61
  -2  -2 -14    1.61    1.13
  -2  -2 -14    0.94    0.85
   2   2  14    0.63    1.15
   2   2  14    3.97    1.25
   2   2  14    1.96    0.73
  -3  -2 -14    4.12    1.39
  -3  -2 -14    1.70    1.85
   3   2  14    2.90    1.30
   3   2  14    3.38    1.39
   3   2  14    4.26    1.05
  -4  -2 -14    0.97    1.41
  -4  -2 -14    3.86    3.06
   4   2  14    0.51    1.14
  -7   3  14   27.75    2.26
  -7   3  14   20.80    2.28
   6  -3 -14   14.04    1.02
   6  -3 -14   11.25    1.64
   6  -3 -14   14.79    2.16
  -6   3  14    8.34    1.75
   5  -3 -14    3.40    1.02
   5  -3 -14    2.98    1.42
   5  -3 -14    5.76    2.39
  -5   3  14    2.64    1.17
  -5   3  14    4.96    1.15
   4  -3 -14    1.12    1.29
   4  -3 -14    2.62    0.69
   4  -3 -14    0.99    1.96
  -4   3  14    0.81    0.28
  -4   3  14    1.24    0.94
  -4   3  14    1.08    0.82
  -4   3  14    1.44    1.01
   3  -3 -14   12.06    2.58
   3  -3 -14    6.25    1.45
  -3   3  14    8.76    1.34
  -3   3  14    6.82    1.35
   2  -3 -14    7.69    2.58
   2  -3 -14    5.33    1.04
  -2   3  14    5.14    0.99
  -2   3  14    3.50    1.11
  -2   3  14    3.35    1.15
   1  -3 -14    1.22    1.06
   1  -3 -14    2.92    1.58
   1  -3 -14    3.66    2.18
  -1   3  14    2.49    1.02
  -1   3  14    1.72    1.04
  -1   3  14    1.51    0.67
   0  -3 -14    4.96    1.16
   0  -3 -14    4.60    1.26
   0  -3 -14    1.25    2.18
   0   3  14    2.96    1.66
   0   3  14    3.00    1.12
   0   3  14    5.61    1.49
  -1  -3 -14    3.94    2.28
  -1  -3 -14    6.15    1.46
  -1  -3 -14    4.08    1.24
   1   3  14    4.90    1.34
   1   3  14    7.04    1.47
   1   3  14    7.57    0.95
  -2  -3 -14   -0.05    2.03
  -2  -3 -14    3.04    1.22
   2   3  14   -0.02    0.52
   2   3  14   -0.05    1.03
   2   3  14    1.34    0.65
   2   3  14    0.56    1.15
  -3  -3 -14    3.34    1.34
  -3  -3 -14    0.05    1.67
  -3  -3 -14    1.39    0.43
   3   3  14    0.45    0.70
   3   3  14   -0.64    1.00
   3   3  14    0.65    1.21
   7  -4 -14    1.62    1.26
   7  -4 -14    2.08    1.54
   7  -4 -14   -0.22    1.98
  -7   4  14    0.49    1.70
  -7   4  14    2.31    0.69
   6  -4 -14    2.25    0.97
   6  -4 -14   -0.93    2.06
   6  -4 -14   -1.37    1.09
   6  -4 -14    0.36    1.35
  -6   4  14    1.17    1.09
  -6   4  14    1.11    0.76
   5  -4 -14    9.87    2.60
   5  -4 -14   14.36    2.07
   5  -4 -14   15.16    1.36
  -5   4  14   10.52    1.66
  -5   4  14   13.08    1.50
  -5   4  14   12.59    1.60
   4  -4 -14    2.22    0.81
   4  -4 -14    1.14    2.09
   4  -4 -14    0.51    1.38
  -4   4  14    0.82    0.77
  -4   4  14    0.15    0.76
  -4   4  14    0.86    0.33
  -4   4  14    0.23    0.94
   3  -4 -14   10.70    1.30
   3  -4 -14    7.26    2.48
   3  -4 -14    8.58    1.60
  -3   4  14    8.06    1.29
  -3   4  14    6.81    1.42
  -3   4  14    8.52    1.31
   2  -4 -14    1.54    1.28
   2  -4 -14    1.01    0.85
   2  -4 -14    1.45    2.09
  -2   4  14    0.23    0.77
  -2   4  14    0.20    0.90
  -2   4  14    1.76    0.80
   1  -4 -14    2.89    1.16
   1  -4 -14    4.49    1.07
   1  -4 -14    5.74    2.58
  -1   4  14    3.13    0.85
  -1   4  14    2.71    1.04
  -1   4  14    2.72    1.13
   0  -4 -14    0.08    1.01
   0  -4 -14   -0.13    1.00
   0  -4 -14   -0.88    2.22
   0   4  14   -0.56    0.92
   0   4  14   -0.36    0.91
   0   4  14   -0.15    0.67
   0   4  14    0.35    0.24
  -1  -4 -14   -0.68    2.21
  -1  -4 -14   -0.51    0.90
  -1  -4 -14    2.00    1.12
   1   4  14   -0.02    1.05
   1   4  14   -0.30    0.99
   1   4  14    0.75    0.31
   1   4  14    1.69    0.68
  -2  -4 -14    2.04    2.27
  -2  -4 -14    3.46    1.32
   2   4  14    1.20    1.01
   2   4  14    1.47    0.44
   2   4  14    0.39    1.14
   2   4  14    0.76    1.13
  -3  -4 -14    4.22    2.38
   3   4  14    1.01    0.59
   3   4  14    2.15    0.63
   3   4  14    0.34    1.31
   3   4  14    0.75    1.36
   6  -5 -14   -2.55    2.17
   6  -5 -14   -1.99    1.47
  -6   5  14    0.44    0.99
  -6   5  14   -2.40    1.47
   5  -5 -14    1.19    1.36
   5  -5 -14    2.37    0.92
   5  -5 -14   -1.52    2.18
  -5   5  14    2.04    1.03
  -5   5  14    0.93    1.15
   4  -5 -14    2.93    2.35
   4  -5 -14    1.93    1.36
  -4   5  14    1.81    0.97
  -4   5  14    2.59    1.12
   3  -5 -14    3.51    1.33
   3  -5 -14    5.30    1.12
   3  -5 -14    2.68    2.29
  -3   5  14    3.03    0.78
  -3   5  14    4.54    1.13
  -3   5  14    3.05    1.20
   2  -5 -14    6.05    1.52
   2  -5 -14    6.89    2.44
   2  -5 -14    3.12    1.24
  -2   5  14    2.67    1.19
  -2   5  14    3.43    0.99
  -2   5  14    3.79    0.97
   1  -5 -14    1.25    1.21
   1  -5 -14    4.05    1.12
   1  -5 -14    5.80    2.72
  -1   5  14    3.71    1.26
  -1   5  14    1.53    0.82
  -1   5  14    3.11    1.08
   0  -5 -14    2.13    2.60
   0  -5 -14    0.72    1.00
   0  -5 -14    0.25    0.91
   0   5  14    1.42    1.10
   0   5  14    0.71    0.98
   0   5  14    0.35    0.73
   0   5  14    0.01    0.22
  -1  -5 -14   -3.15    2.59
  -1  -5 -14    2.55    1.28
   1   5  14   -1.61    0.90
   1   5  14    0.86    0.36
   1   5  14    0.84    0.78
   2   5  14   -1.32    1.11
   2   5  14   -0.23    1.11
   2   5  14    1.20    0.41
   5  -6 -14   -1.05    1.54
   5  -6 -14   -3.59    2.17
   5  -6 -14   -0.04    0.94
  -5   6  14    1.90    1.00
  -5   6  14    1.07    1.62
   4  -6 -14    5.31    1.19
   4  -6 -14   -1.45    3.38
   4  -6 -14    1.98    1.44
  -4   6  14   -0.40    1.42
  -4   6  14    4.48    1.33
   3  -6 -14    2.35    0.99
   3  -6 -14   -0.03    1.20
   3  -6 -14    2.20    4.04
  -3   6  14    1.42    1.31
  -3   6  14    0.62    0.84
   2  -6 -14    7.93    4.64
   2  -6 -14    3.71    1.41
   2  -6 -14    5.21    1.31
  -2   6  14    4.85    2.05
  -2   6  14    5.33    1.17
   1  -6 -14    6.23    1.39
  -1   6  14    5.17    1.14
  -1   6  14    6.01    2.11
   0  -6 -14    3.60    1.23
   0  -6 -14   -0.51    2.46
   0   6  14   -0.43    0.83
   0   6  14    0.45    0.75
   0   6  14    0.20    1.16
   3   6 -15    3.11    1.25
   3   6 -15    2.89    0.90
   3   6 -15    2.11    1.70
  -3  -6  15    2.18    1.28
  -3  -6  15    0.84    1.78
   2   6 -15    1.33    1.22
   2   6 -15   -1.21    0.94
   2   6 -15    1.27    0.43
  -2  -6  15   -0.28    1.02
  -2  -6  15   -1.28    1.30
   1   6 -15    0.26    1.34
   1   6 -15    0.49    0.98
   1   6 -15    1.33    0.43
  -1  -6  15   -0.65    0.41
  -1  -6  15    1.64    1.09
  -1  -6  15    1.37    1.39
   0   6 -15    2.52    0.60
   0   6 -15    6.30    1.93
   0   6 -15    4.51    1.66
   0  -6  15    5.51    1.34
   0  -6  15    5.43    1.64
  -1   6 -15   15.69    2.14
   1  -6  15   10.37    1.40
   5   5 -15    0.38    1.55
   5   5 -15   -0.32    2.01
  -5  -5  15    0.02    1.10
  -5  -5  15    2.02    1.19
   4   5 -15    2.35    1.28
   4   5 -15    4.11    1.13
   4   5 -15    1.41    1.48
   4   5 -15    2.46    1.02
  -4  -5  15    3.09    1.30
   3   5 -15    0.81    0.73
   3   5 -15    0.48    1.41
   3   5 -15    3.26    1.53
   3   5 -15    0.01    1.03
  -3  -5  15   -0.16    1.18
  -3  -5  15   -0.14    1.06
   2   5 -15    5.26    1.44
   2   5 -15    3.73    0.85
   2   5 -15    5.30    1.30
   2   5 -15    7.53    1.73
  -2  -5  15    4.96    1.64
  -2  -5  15    4.68    1.34
   1   5 -15   15.61    2.31
   1   5 -15   19.34    1.71
   1   5 -15   17.25    2.40
  -1  -5  15   22.71    2.57
  -1  -5  15   15.10    2.01
   0   5 -15   -0.26    1.28
   0   5 -15    0.78    1.33
   0   5 -15   -0.76    0.47
   0  -5  15    0.41    0.41
   0  -5  15    0.78    1.10
   0  -5  15    2.48    1.41
  -1   5 -15    1.22    1.54
  -1   5 -15    0.92    1.33
  -1   5 -15    0.76    0.42
   1  -5  15   -1.67    1.19
   1  -5  15    0.80    0.73
  -2   5 -15    0.35    0.39
  -2   5 -15    3.66    1.51
  -2   5 -15    0.98    1.73
   2  -5  15    2.00    1.22
   2  -5  15    0.79    0.83
   2  -5  15   -0.47    1.19
  -3   5 -15    1.03    1.79
   3  -5  15    0.75    0.94
   3  -5  15   -2.53    1.09
   6   4 -15   -0.87    1.17
   6   4 -15   -0.14    1.38
  -6  -4  15   -0.67    1.00
  -6  -4  15    0.96    1.00
   5   4 -15    2.82    1.10
   5   4 -15    2.41    1.32
   5   4 -15    3.76    1.15
   5   4 -15    2.95    1.74
  -5  -4  15    2.38    1.27
   4   4 -15    2.02    1.07
   4   4 -15   -0.47    1.05
   4   4 -15    0.48    1.38
  -4  -4  15   -1.66    0.90
  -4  -4  15    1.64    0.88
  -4  -4  15   -0.21    1.02
   3   4 -15    4.10    1.20
   3   4 -15    5.39    1.37
   3   4 -15    3.74    1.60
  -3  -4  15    2.60    1.23
  -3  -4  15    4.37    1.27
  -3  -4  15    5.31    1.20
   2   4 -15    0.40    1.32
   2   4 -15    2.13    1.28
   2   4 -15    1.89    0.93
  -2  -4  15    1.47    1.08
  -2  -4  15    1.72    0.84
  -2  -4  15    3.39    1.34
   1   4 -15    0.17    1.22
   1   4 -15    1.11    1.84
   1   4 -15    0.46    0.77
  -1  -4  15    1.71    1.15
  -1  -4  15    1.04    1.12
  -1  -4  15    0.47    0.67
   0   4 -15    2.12    1.50
   0   4 -15   -0.20    0.42
   0   4 -15   -0.56    1.21
   0  -4  15   -0.74    1.04
   0  -4  15    0.22    0.31
   0  -4  15    0.60    1.05
   0  -4  15   -0.11    0.61
  -1   4 -15    2.59    1.60
  -1   4 -15    0.45    1.22
  -1   4 -15    2.78    0.56
  -1   4 -15    1.25    0.32
   1  -4  15   -0.67    1.05
   1  -4  15   -0.24    1.05
   1  -4  15    0.84    0.64
   1  -4  15    0.97    0.74
  -2   4 -15    0.85    1.22
  -2   4 -15    1.29    1.74
   2  -4  15   -0.02    0.53
   2  -4  15   -1.09    1.11
   2  -4  15   -0.15    0.77
   2  -4  15    0.13    1.12
  -3   4 -15    1.60    3.09
   3  -4  15    0.51    0.85
   3  -4  15   -0.07    1.10
   6   3 -15    4.58    1.46
   6   3 -15    5.19    1.69
   6   3 -15    6.01    1.37
   6   3 -15    4.30    1.66
  -6  -3  15    4.34    1.78
   5   3 -15    1.67    1.01
   5   3 -15   -0.26    1.39
   5   3 -15    0.13    1.07
  -5  -3  15   -0.03    1.05
  -5  -3  15    0.07    0.83
   4   3 -15    2.51    1.07
   4   3 -15    2.92    1.33
   4   3 -15    1.94    1.48
  -4  -3  15    2.87    1.08
  -4  -3  15    0.95    1.05
  -4  -3  15    1.82    0.98
   3   3 -15   15.56    2.17
   3   3 -15   12.74    1.79
   3   3 -15   12.35    1.94
  -3  -3  15   12.01    1.82
  -3  -3  15   12.84    1.76
  -3  -3  15   10.79    1.64
   2   3 -15    8.47    1.76
   2   3 -15   11.08    1.98
   2   3 -15   11.36    1.45
  -2  -3  15    9.23    1.31
  -2  -3  15   12.74    1.81
  -2  -3  15   10.84    1.70
   1   3 -15    4.36    0.92
   1   3 -15    4.43    1.45
  -1  -3  15    3.53    1.13
  -1  -3  15    1.88    0.83
  -1  -3  15    3.91    1.28
   0   3 -15    0.04    0.43
   0   3 -15    3.61    1.69
   0   3 -15    1.68    0.63
   0   3 -15    2.21    1.30
   0  -3  15    1.04    0.48
   0  -3  15    1.73    1.13
   0  -3  15    2.09    0.97
  -1   3 -15    0.12    0.27
  -1   3 -15   -1.23    1.31
  -1   3 -15   -0.51    1.15
  -1   3 -15    1.03    0.29
   1  -3  15   -1.13    0.82
   1  -3  15   -0.25    0.57
   1  -3  15   -0.23    0.68
   1  -3  15    2.54    1.20
  -2   3 -15    4.31    1.98
  -2   3 -15    7.31    1.51
   2  -3  15    3.43    1.43
   2  -3  15    6.27    1.67
   2  -3  15    5.86    0.99
   2  -3  15    4.13    1.29
  -3   3 -15   16.27    2.05
  -3   3 -15   15.81    3.18
   3  -3  15   18.91    1.71
   3  -3  15   14.72    2.15
   3  -3  15   13.84    2.18
   3  -3  15   14.38    1.44
  -4   3 -15    2.57    1.75
  -4   3 -15    4.91    1.38
   4  -3  15    1.50    1.44
   4  -3  15    2.73    1.11
   4  -3  15    1.54    2.12
   7   2 -15    6.64    1.61
   7   2 -15    3.91    1.20
  -7  -2  15    3.20    1.28
   6   2 -15    0.25    1.15
   6   2 -15    1.59    1.07
   6   2 -15   -0.52    1.36
  -6  -2  15    0.23    1.06
  -6  -2  15    0.71    1.07
   5   2 -15   -0.03    1.08
   5   2 -15    2.39    1.34
   5   2 -15   -0.80    1.39
  -5  -2  15    0.43    1.02
  -5  -2  15   -0.06    0.90
  -5  -2  15    0.46    0.75
   4   2 -15    1.40    1.20
   4   2 -15   -0.40    0.97
   4   2 -15   -2.02    1.22
  -4  -2  15    0.02    0.83
  -4  -2  15   -0.62    0.88
  -4  -2  15   -0.94    0.94
   3   2 -15   27.00    1.97
   3   2 -15   17.42    2.33
   3   2 -15   21.74    2.54
  -3  -2  15   26.90    2.33
  -3  -2  15   20.67    2.15
  -3  -2  15   20.54    1.91
   2   2 -15    5.40    1.01
   2   2 -15    5.00    1.67
   2   2 -15    5.58    1.57
  -2  -2  15    6.42    1.45
  -2  -2  15    5.63    1.33
  -2  -2  15    4.51    1.27
   1   2 -15    1.75    0.41
   1   2 -15    0.23    1.22
   1   2 -15    0.53    0.70
  -1  -2  15   -0.27    0.95
  -1  -2  15    0.77    1.03
  -1  -2  15    0.27    0.23
  -1  -2  15   -0.08    0.77
   0   2 -15   46.35    3.31
   0   2 -15   49.60    3.98
   0  -2  15   40.42    3.12
   0  -2  15   44.09    2.97
   0  -2  15   44.47    3.37
   0  -2  15   50.52    2.80
  -1   2 -15    3.34    1.71
  -1   2 -15    3.00    1.22
   1  -2  15    2.23    1.01
   1  -2  15    2.70    0.78
   1  -2  15    2.01    0.88
   1  -2  15    1.13    1.14
  -2   2 -15    3.33    1.25
  -2   2 -15    1.89    1.58
  -2   2 -15    4.23    1.87
   2  -2  15    2.22    1.32
   2  -2  15    3.25    1.25
   2  -2  15    3.30    0.92
  -3   2 -15    2.60    1.13
  -3   2 -15    1.31    1.20
  -3   2 -15    2.96    1.85
   3  -2  15    1.85    0.83
   3  -2  15    1.82    1.38
   3  -2  15    0.85    1.01
  -4   2 -15    1.76    1.24
  -4   2 -15    1.70    1.80
  -4   2 -15    2.02    1.04
   4  -2  15    0.50    1.32
   4  -2  15    2.06    0.87
   4  -2  15    0.12    1.18
   7   1 -15   -2.19    2.28
   7   1 -15    1.65    1.57
  -7  -1  15    0.42    1.70
  -7  -1  15   -0.11    1.49
   6   1 -15    0.25    1.12
   6   1 -15   -0.69    1.43
   6   1 -15    0.90    1.42
  -6  -1  15    0.78    1.07
   5   1 -15    0.43    1.06
   5   1 -15   -1.72    1.34
   5   1 -15   -0.50    1.21
   5   1 -15    1.49    0.67
  -5  -1  15    0.35    1.03
  -5  -1  15    0.36    0.94
   4   1 -15    0.42    1.41
   4   1 -15    0.21    1.35
   4   1 -15    1.42    0.88
   4   1 -15   -0.75    0.89
  -4  -1  15   -0.11    0.96
  -4  -1  15    0.60    0.90
   3   1 -15    6.84    1.17
   3   1 -15    9.86    1.58
   3   1 -15    4.35    1.53
   3   1 -15    5.16    1.79
  -3  -1  15    5.23    0.92
  -3  -1  15    4.95    1.17
  -3  -1  15    6.21    1.38
   2   1 -15    3.73    0.98
   2   1 -15    0.37    1.23
   2   1 -15    1.24    1.52
   2   1 -15    2.98    0.72
  -2  -1  15    2.19    0.96
  -2  -1  15    3.56    1.21
  -2  -1  15    3.55    0.93
   1   1 -15   11.55    1.20
   1   1 -15    9.78    2.31
   1   1 -15   13.06    1.83
  -1  -1  15    9.31    1.37
  -1  -1  15   11.13    1.33
  -1  -1  15   10.07    1.64
   0   1 -15    0.91    1.25
   0   1 -15    2.39    1.57
   0   1 -15    0.81    0.26
   0   1 -15    1.10    0.88
   0   1 -15    0.54    0.45
   0  -1  15    2.79    1.19
   0  -1  15    1.64    0.87
   0  -1  15    0.58    1.23
  -1   1 -15    0.55    0.21
  -1   1 -15   -0.05    1.45
  -1   1 -15   -0.16    0.21
  -1   1 -15   -0.65    0.85
  -1   1 -15    1.46    2.13
   1  -1  15    0.28    0.75
   1  -1  15   -0.98    0.78
   1  -1  15    2.05    1.29
  -2   1 -15   19.15    3.00
  -2   1 -15   13.51    2.60
   2  -1  15   15.63    2.09
   2  -1  15   16.00    1.62
   2  -1  15   15.22    1.83
  -3   1 -15    3.50    1.41
  -3   1 -15    1.74    1.85
  -3   1 -15    3.76    1.81
   3  -1  15    3.35    1.41
   3  -1  15    2.72    1.04
   3  -1  15    2.47    1.06
  -4   1 -15    0.90    1.83
  -4   1 -15    1.81    1.19
   4  -1  15   -1.08    1.28
   4  -1  15    0.74    1.08
   4  -1  15   -0.54    0.83
   7   0 -15    2.83    1.79
   7   0 -15    4.50    1.86
  -7   0  15    4.81    2.13
  -7   0  15    6.99    1.50
   6   0 -15    1.89    1.63
   6   0 -15    2.36    1.22
   6   0 -15    3.11    1.61
  -6   0  15    5.05    1.34
  -6   0  15    0.88    1.18
   5   0 -15    3.67    1.85
   5   0 -15    5.07    1.56
   5   0 -15    3.48    0.69
  -5   0  15    4.63    1.27
  -5   0  15    4.31    1.30
   4   0 -15   81.53    4.33
   4   0 -15   74.44    4.66
   4   0 -15   63.57    3.86
   4   0 -15   64.73    5.06
  -4   0  15   70.07    4.53
   3   0 -15    0.04    0.53
   3   0 -15    1.27    0.85
   3   0 -15    0.80    1.27
   3   0 -15    3.51    1.86
  -3   0  15    0.27    0.87
  -3   0  15    0.70    1.01
   2   0 -15    2.18    0.89
   2   0 -15    3.08    1.32
   2   0 -15    1.57    0.56
  -2   0  15    2.54    1.13
  -2   0  15    0.82    0.90
   1   0 -15    1.09    1.68
   1   0 -15    1.09    0.47
   1   0 -15    1.81    0.72
  -1   0  15    0.61    0.63
  -1   0  15    0.28    1.00
   0   0 -15    5.05    1.08
   0   0 -15    4.16    1.83
   0   0 -15    4.39    0.76
   0   0  15    5.95    1.98
   0   0  15    5.33    1.36
   0   0  15    4.50    0.93
  -1   0 -15    2.01    1.73
  -1   0 -15    1.23    0.99
  -1   0 -15    2.71    1.20
   1   0  15    1.15    0.96
   1   0  15    0.06    1.10
   1   0  15    1.49    0.83
  -2   0 -15    2.79    1.28
  -2   0 -15    3.10    1.16
  -2   0 -15    1.94    1.72
   2   0  15    2.73    0.96
   2   0  15    3.69    1.17
   2   0  15    3.27    1.33
  -3   0 -15    0.92    1.14
  -3   0 -15    0.65    1.72
  -3   0 -15    1.03    0.89
   3   0  15   -0.74    0.73
   3   0  15   -0.37    1.22
   3   0  15    0.62    0.97
  -4   0 -15    1.58    1.22
  -4   0 -15    1.87    1.76
   4   0  15    1.13    1.02
   4   0  15    0.65    0.98
   4   0  15   -1.63    1.13
   7  -1 -15    7.71    2.20
  -7   1  15    9.72    2.62
   6  -1 -15   29.96    2.83
   6  -1 -15   25.32    3.32
  -6   1  15   25.57    2.36
  -6   1  15   24.72    2.48
   5  -1 -15    1.25    1.40
   5  -1 -15    1.94    1.06
  -5   1  15    0.83    1.00
  -5   1  15    2.05    1.09
   4  -1 -15    6.50    1.60
   4  -1 -15    4.79    1.18
   4  -1 -15    5.98    2.71
  -4   1  15    6.64    1.39
  -4   1  15    5.65    1.30
   3  -1 -15    0.52    0.86
   3  -1 -15    0.57    2.08
   3  -1 -15    1.76    1.28
  -3   1  15    0.98    0.97
  -3   1  15    2.96    1.13
  -3   1  15    0.49    0.27
   2  -1 -15    3.28    1.36
   2  -1 -15    3.65    0.78
   2  -1 -15    4.53    2.08
  -2   1  15    3.69    1.22
  -2   1  15    3.42    1.11
   1  -1 -15    0.42    0.69
   1  -1 -15    0.56    1.85
   1  -1 -15    1.04    0.76
  -1   1  15    0.03    0.96
  -1   1  15    0.59    0.87
   0  -1 -15    1.27    0.97
   0  -1 -15    1.42    1.91
   0  -1 -15    0.17    1.16
   0  -1 -15    1.27    0.63
   0   1  15    2.75    1.18
   0   1  15    1.89    1.01
   0   1  15    0.35    0.50
  -1  -1 -15    4.33    1.10
  -1  -1 -15    2.46    1.85
  -1  -1 -15    2.71    1.19
   1   1  15    2.52    1.23
   1   1  15    2.64    0.79
   1   1  15    3.12    1.13
  -2  -1 -15    5.38    2.04
  -2  -1 -15    6.32    1.21
   2   1  15    5.07    1.00
   2   1  15    5.88    1.38
   2   1  15    4.55    1.47
  -3  -1 -15   24.45    2.38
  -3  -1 -15   32.72    4.25
   3   1  15   23.24    2.58
   3   1  15   25.99    2.22
   3   1  15   22.93    2.27
   4   1  15    0.45    1.10
   4   1  15    2.19    1.04
   7  -2 -15    4.30    1.58
   7  -2 -15    1.73    2.01
   7  -2 -15    6.59    2.09
  -7   2  15    4.47    1.20
  -7   2  15    9.07    2.12
   6  -2 -15    2.10    1.13
   6  -2 -15    2.32    2.06
   6  -2 -15    2.49    1.45
  -6   2  15    0.48    1.06
  -6   2  15    2.16    1.15
   5  -2 -15    4.57    1.57
   5  -2 -15    4.70    2.21
   5  -2 -15    4.10    1.22
  -5   2  15    3.53    1.19
  -5   2  15    3.07    1.24
   4  -2 -15    2.40    1.45
   4  -2 -15    3.90    2.25
   4  -2 -15    3.98    0.84
   4  -2 -15    1.59    1.06
  -4   2  15    2.66    1.11
  -4   2  15    2.83    1.12
   3  -2 -15    0.53    1.36
   3  -2 -15    0.55    2.21
   3  -2 -15    0.28    1.20
   3  -2 -15    2.02    0.68
  -3   2  15    0.38    1.05
   2  -2 -15   11.50    1.30
   2  -2 -15   13.86    1.34
   2  -2 -15    8.77    1.70
   2  -2 -15   12.12    2.71
  -2   2  15    9.86    1.49
  -2   2  15   11.21    1.78
   1  -2 -15    4.53    1.07
   1  -2 -15    1.86    2.05
   1  -2 -15    2.68    0.89
  -1   2  15    3.91    1.21
  -1   2  15    1.65    0.98
   0  -2 -15   -0.02    0.67
   0  -2 -15   -0.03    0.34
   0  -2 -15   -0.59    1.96
   0  -2 -15    0.01    1.02
   0  -2 -15    2.80    1.11
   0   2  15   -0.67    0.41
   0   2  15    1.45    1.12
   0   2  15   -0.40    0.99
  -1  -2 -15   13.65    2.67
  -1  -2 -15   10.28    1.52
  -1  -2 -15   11.55    2.62
   1   2  15   10.28    1.76
   1   2  15    9.12    1.56
  -2  -2 -15    0.38    0.73
  -2  -2 -15    0.62    0.27
  -2  -2 -15    1.54    1.27
  -2  -2 -15   -1.19    1.66
   2   2  15   -0.36    0.62
   2   2  15   -1.09    1.13
   2   2  15    1.22    1.03
  -3  -2 -15    2.87    1.34
   3   2  15    1.64    1.58
   3   2  15    2.72    0.97
   3   2  15    2.95    1.25
   7  -3 -15    1.53    1.21
   7  -3 -15    1.66    1.52
   7  -3 -15   -1.17    2.16
  -7   3  15    1.64    1.16
  -7   3  15    2.60    1.04
   6  -3 -15    2.01    2.21
   6  -3 -15   -0.27    1.38
   6  -3 -15    1.32    1.17
  -6   3  15    2.48    1.07
  -6   3  15    1.78    1.26
   5  -3 -15    0.57    1.37
   5  -3 -15    0.70    0.87
   5  -3 -15   -0.49    2.20
  -5   3  15    0.81    0.95
  -5   3  15   -0.68    0.96
   4  -3 -15    2.94    2.24
   4  -3 -15   -0.79    1.00
   4  -3 -15    0.13    1.29
   4  -3 -15    1.86    0.68
  -4   3  15   -0.07    0.93
  -4   3  15   -0.69    1.16
   3  -3 -15   -0.58    2.21
   3  -3 -15    0.04    1.20
  -3   3  15   -0.35    0.67
  -3   3  15    0.31    0.90
  -3   3  15   -1.42    0.82
   2  -3 -15    5.86    1.12
   2  -3 -15    2.38    1.28
   2  -3 -15    3.49    2.31
  -2   3  15    3.92    1.20
   1  -3 -15    8.41    2.64
   1  -3 -15    8.59    1.36
   1  -3 -15    8.03    2.29
  -1   3  15    7.00    1.41
  -1   3  15    6.52    1.02
  -1   3  15    6.34    1.40
   0  -3 -15   12.33    2.77
   0  -3 -15   16.21    1.91
   0  -3 -15   13.25    1.64
   0   3  15   12.55    1.83
   0   3  15   13.30    1.32
   0   3  15   13.89    1.75
  -1  -3 -15   -0.63    0.93
  -1  -3 -15   -0.70    2.10
  -1  -3 -15    0.61    1.08
   1   3  15    0.23    0.33
   1   3  15    1.21    1.05
   1   3  15    0.55    1.16
   1   3  15    0.51    0.59
  -2  -3 -15   -0.05    2.54
  -2  -3 -15   -0.53    0.63
  -2  -3 -15    4.68    1.36
   2   3  15    0.66    1.04
   2   3  15    0.20    0.37
   2   3  15    0.83    1.29
  -3  -3 -15    1.27    0.50
   3   3  15    0.10    1.31
   3   3  15    0.66    0.71
   3   3  15   -0.06    1.18
   6  -4 -15    1.52    1.79
   6  -4 -15   -0.87    2.16
   6  -4 -15    3.24    1.58
  -6   4  15    3.44    0.92
  -6   4  15    0.37    1.86
   5  -4 -15    3.92    2.34
   5  -4 -15    3.28    1.52
  -5   4  15    2.97    1.06
  -5   4  15    3.16    1.00
  -5   4  15    2.65    1.20
   4  -4 -15    2.43    1.40
   4  -4 -15    5.23    2.69
  -4   4  15    2.48    0.94
  -4   4  15    1.78    0.88
  -4   4  15    1.40    0.44
  -4   4  15    2.61    1.26
   3  -4 -15   10.04    1.58
   3  -4 -15    7.62    1.77
   3  -4 -15   10.36    3.02
  -3   4  15    8.17    1.60
  -3   4  15    6.21    1.16
  -3   4  15    8.40    1.31
   2  -4 -15   -0.15    2.46
   2  -4 -15    2.74    1.02
   2  -4 -15    1.19    1.33
  -2   4  15    1.03    1.44
  -2   4  15    0.75    1.10
  -2   4  15    2.12    0.88
   1  -4 -15    3.37    1.22
   1  -4 -15    4.35    2.40
   1  -4 -15   -0.98    1.04
  -1   4  15    1.11    0.73
  -1   4  15   -0.31    0.97
  -1   4  15   -0.50    0.94
   0  -4 -15   -2.05    2.30
   0  -4 -15    1.76    1.02
   0   4  15    0.23    0.98
   0   4  15    0.59    0.28
   0   4  15    0.45    1.01
   0   4  15    0.74    0.74
  -1  -4 -15    2.20    1.13
  -1  -4 -15   -0.28    2.97
   1   4  15    0.74    0.38
   1   4  15    1.93    1.21
   1   4  15   -1.29    0.98
   1   4  15    0.47    0.63
  -2  -4 -15    5.94    2.52
  -2  -4 -15   10.59    1.68
   2   4  15    7.02    0.98
   2   4  15    5.63    1.63
   2   4  15    4.22    1.52
   6  -5 -15   -3.18    2.22
   5  -5 -15   -3.59    3.79
  -5   5  15    2.27    1.40
   4  -5 -15    1.80    1.41
   4  -5 -15    3.99    0.93
   4  -5 -15    7.85    3.17
  -4   5  15    1.06    0.93
  -4   5  15   -0.34    1.60
   3  -5 -15    0.22    1.25
   3  -5 -15    4.21    2.84
  -3   5  15    0.67    0.85
  -3   5  15    0.76    1.16
  -3   5  15    1.11    0.55
   2  -5 -15    6.76    2.90
   2  -5 -15    1.35    0.90
   2  -5 -15    0.12    1.11
  -2   5  15    0.13    0.73
  -2   5  15    0.23    0.80
  -2   5  15   -0.42    0.92
   1  -5 -15    1.80    1.01
   1  -5 -15   -0.63    1.14
   1  -5 -15    2.14    3.23
  -1   5  15    1.46    1.79
  -1   5  15    0.16    0.80
  -1   5  15    0.32    0.88
   0  -5 -15    2.49    1.13
   0  -5 -15   -0.53    2.74
   0  -5 -15   -1.88    1.02
   0   5  15   -0.15    1.02
   0   5  15    0.89    0.73
   0   5  15   -0.96    1.02
  -1  -5 -15    3.53    1.23
   1   5  15    1.89    0.83
   1   5  15    1.23    1.13
   1   5  15    0.18    1.14
   1   5  15    1.41    0.45
   4  -6 -15   -0.37    2.34
  -4   6  15    0.76    0.92
  -4   6  15    0.20    1.00
   3  -6 -15   -1.38    2.33
   3  -6 -15    4.24    1.44
   3  -6 -15    3.19    1.05
   2  -6 -15    3.84    1.46
   2  -6 -15    3.20    2.57
  -2   6  15    6.42    1.49
  -2   6  15    3.64    1.07
   2   6 -16   15.54    2.61
   1   6 -16    1.97    0.92
   1   6 -16    5.31    1.73
   1   6 -16    2.74    1.44
   4   5 -16    1.34    1.28
   4   5 -16    3.48    1.03
   4   5 -16    2.04    1.55
  -4  -5  16    2.81    1.30
  -4  -5  16    0.24    1.17
   3   5 -16    0.44    0.78
   3   5 -16    2.55    1.26
   3   5 -16   -0.17    1.48
   3   5 -16    0.51    1.13
  -3  -5  16    1.66    1.35
  -3  -5  16    1.31    1.34
   2   5 -16   15.68    2.17
   2   5 -16   13.80    1.61
  -2  -5  16   12.75    2.10
  -2  -5  16   10.47    2.02
   1   5 -16    2.39    1.53
   1   5 -16    6.23    1.64
  -1  -5  16    2.34    1.19
  -1  -5  16    2.54    1.43
   0   5 -16   -0.04    0.42
   0   5 -16   -0.56    1.20
   0  -5  16    0.46    0.47
   0  -5  16   -0.19    1.27
   0  -5  16   -0.25    1.41
  -1   5 -16   -0.57    1.48
  -1   5 -16   -1.73    2.05
  -1   5 -16   -0.18    0.34
   1  -5  16   -1.79    1.35
   1  -5  16    1.39    0.79
   5   4 -16    5.40    1.26
   5   4 -16    7.40    1.95
   5   4 -16    5.59    1.80
  -5  -4  16   11.19    1.74
  -5  -4  16    5.76    1.52
   4   4 -16    1.10    1.28
  -4  -4  16    0.80    1.04
   3   4 -16    1.30    1.47
   3   4 -16    0.80    1.16
   3   4 -16    0.91    1.20
  -3  -4  16    0.16    0.87
  -3  -4  16    0.27    1.08
  -3  -4  16   -0.10    1.00
   2   4 -16    6.56    1.76
   2   4 -16    7.60    1.84
   2   4 -16    5.28    1.16
  -2  -4  16    7.15    1.66
  -2  -4  16    5.56    1.43
   1   4 -16    0.63    0.81
   1   4 -16    1.78    1.39
   1   4 -16    1.10    1.50
  -1  -4  16    1.04    1.16
  -1  -4  16   -0.35    0.66
   0   4 -16   21.55    2.43
   0   4 -16   21.81    2.91
   0  -4  16   18.48    1.63
   0  -4  16   18.74    2.27
   0  -4  16   19.25    2.24
  -1   4 -16    9.50    2.16
  -1   4 -16    9.46    1.79
   1  -4  16    5.49    0.92
   1  -4  16    8.31    1.70
   1  -4  16    4.07    1.60
   1  -4  16    8.25    1.10
  -2   4 -16    2.45    1.35
   2  -4  16    0.14    0.72
   2  -4  16    0.91    1.57
   6   3 -16    6.66    1.61
   6   3 -16    2.67    1.77
   6   3 -16    3.87    1.75
  -6  -3  16    4.38    1.40
   5   3 -16    2.50    1.28
   5   3 -16    3.40    1.89
  -5  -3  16    4.33    1.18
  -5  -3  16    5.84    1.28
   4   3 -16   -0.45    1.03
   4   3 -16    3.33    1.31
   4   3 -16    2.74    1.56
  -4  -3  16    1.28    1.59
  -4  -3  16    2.48    1.21
  -4  -3  16    1.47    1.08
   3   3 -16    3.01    1.06
   3   3 -16    3.19    1.54
   3   3 -16    3.69    1.41
  -3  -3  16    2.27    0.99
  -3  -3  16    2.47    1.20
  -3  -3  16    2.18    1.15
   2   3 -16    0.52    1.32
   2   3 -16    1.20    1.49
   2   3 -16    1.07    0.86
  -2  -3  16    1.62    1.14
  -2  -3  16    1.47    1.38
  -2  -3  16    0.41    0.98
   1   3 -16    9.20    1.84
   1   3 -16    9.21    1.23
   1   3 -16   12.38    2.41
  -1  -3  16    8.65    1.68
  -1  -3  16    7.51    2.58
  -1  -3  16    9.64    1.31
   0   3 -16    2.61    1.40
   0   3 -16    1.91    0.42
   0   3 -16    1.01    1.51
   0  -3  16    0.49    0.29
   0  -3  16    1.51    1.18
   0  -3  16   -0.85    0.97
   0  -3  16    1.09    0.81
  -1   3 -16    1.16    1.61
  -1   3 -16   -0.56    1.15
  -1   3 -16    0.80    0.37
   1  -3  16    0.79    0.72
   1  -3  16    0.99    0.64
   1  -3  16    1.17    1.23
   1  -3  16    0.34    1.07
  -2   3 -16    8.41    2.32
  -2   3 -16    6.00    1.60
   2  -3  16    5.25    1.03
   2  -3  16    4.47    1.38
   2  -3  16    7.54    1.23
   2  -3  16    6.53    1.92
  -3   3 -16    2.12    1.83
  -3   3 -16    1.13    1.22
   3  -3  16   -1.75    1.22
   3  -3  16    0.05    1.25
   3  -3  16    0.16    0.88
   3  -3  16    0.63    0.66
   6   2 -16    2.73    1.34
   6   2 -16   -1.41    1.79
  -6  -2  16    2.82    1.44
  -6  -2  16   -0.52    1.21
   5   2 -16    1.10    1.57
   5   2 -16    3.19    1.30
   5   2 -16    1.52    1.16
  -5  -2  16    2.07    1.17
  -5  -2  16    1.22    1.17
   4   2 -16   -0.69    0.94
   4   2 -16    2.03    1.30
   4   2 -16   -1.98    1.29
  -4  -2  16    1.52    0.89
  -4  -2  16    0.90    0.73
  -4  -2  16    0.61    1.12
   3   2 -16    0.55    0.90
   3   2 -16    1.76    1.80
   3   2 -16    0.51    1.39
  -3  -2  16    1.10    0.83
  -3  -2  16    0.74    0.96
  -3  -2  16    0.35    1.02
   2   2 -16    2.75    0.97
   2   2 -16    1.66    1.34
   2   2 -16    4.00    1.69
  -2  -2  16    3.11    1.21
  -2  -2  16    4.06    1.13
  -2  -2  16    2.62    1.04
   1   2 -16   -0.50    1.19
   1   2 -16    0.68    0.73
   1   2 -16    2.74    1.45
  -1  -2  16   -0.09    0.30
  -1  -2  16    0.16    0.96
  -1  -2  16    0.67    0.94
  -1  -2  16    0.19    1.05
  -1  -2  16    0.44    0.23
   0   2 -16    1.54    1.29
   0   2 -16    1.64    1.68
   0   2 -16    0.00    0.33
   0  -2  16    0.65    1.01
   0  -2  16    2.35    0.92
   0  -2  16    1.32    1.16
   0  -2  16    0.76    0.32
  -1   2 -16    2.56    1.81
  -1   2 -16    3.43    1.35
   1  -2  16    3.75    1.38
   1  -2  16    5.27    0.93
   1  -2  16    4.70    1.04
   1  -2  16    2.84    1.13
  -2   2 -16    5.18    1.47
  -2   2 -16    3.97    1.88
   2  -2  16    3.99    1.24
   2  -2  16    4.05    1.51
   2  -2  16    5.64    1.09
  -3   2 -16    2.54    1.18
  -3   2 -16   -0.41    1.58
  -3   2 -16    1.87    1.16
   3  -2  16    0.14    1.17
   3  -2  16   -1.62    1.19
   7   1 -16   -1.97    1.53
   7   1 -16    1.31    1.24
  -7  -1  16    1.85    1.22
   6   1 -16   -1.01    1.49
   6   1 -16    0.35    1.30
  -6  -1  16    1.20    1.16
  -6  -1  16    0.53    1.21
   5   1 -16    2.50    1.18
   5   1 -16    2.03    1.61
   5   1 -16    0.13    1.42
  -5  -1  16    0.80    1.03
  -5  -1  16    2.33    1.22
   4   1 -16    0.24    1.41
   4   1 -16    1.02    1.13
   4   1 -16    1.77    2.33
  -4  -1  16    0.77    1.08
  -4  -1  16    0.25    0.90
   3   1 -16    2.44    0.70
   3   1 -16    0.73    1.82
   3   1 -16    0.01    1.33
  -3  -1  16    0.28    0.87
  -3  -1  16    1.65    0.43
  -3  -1  16   -0.49    0.98
   2   1 -16    1.84    1.53
   2   1 -16    3.05    0.94
   2   1 -16    2.79    0.74
   2   1 -16    1.82    1.41
  -2  -1  16    3.27    1.23
  -2  -1  16    2.02    1.01
   1   1 -16    4.11    0.85
   1   1 -16    3.54    1.75
   1   1 -16    1.95    1.34
  -1  -1  16    3.83    1.09
  -1  -1  16    5.41    1.36
  -1  -1  16    2.87    0.95
   0   1 -16    0.36    0.30
   0   1 -16    0.07    1.15
   0   1 -16    1.25    0.91
   0   1 -16    0.15    1.57
   0  -1  16   -0.24    0.94
   0  -1  16    0.17    0.34
   0  -1  16    1.84    1.15
   0  -1  16   -0.18    0.79
  -1   1 -16    3.52    1.30
  -1   1 -16    3.64    1.11
  -1   1 -16    3.75    1.97
   1  -1  16    2.37    1.32
   1  -1  16    4.32    1.05
   1  -1  16    3.27    0.99
  -2   1 -16   18.43    2.07
  -2   1 -16   15.58    2.86
  -2   1 -16   16.84    1.96
   2  -1  16   15.95    1.70
   2  -1  16   14.61    2.22
   2  -1  16   14.40    1.89
  -3   1 -16    1.51    1.31
  -3   1 -16    2.81    1.09
  -3   1 -16    2.18    1.84
   3  -1  16    0.45    1.05
   3  -1  16   -0.52    1.27
   3  -1  16    1.19    0.92
   7   0 -16    6.85    1.50
   7   0 -16    2.84    1.77
   7   0 -16    7.02    2.15
  -7   0  16    4.80    1.42
   6   0 -16    0.70    1.86
   6   0 -16    1.83    1.22
   6   0 -16    2.74    1.85
  -6   0  16    1.90    1.18
  -6   0  16    0.65    1.02
   5   0 -16    2.42    2.00
   5   0 -16    2.83    1.17
   5   0 -16    2.65    1.58
  -5   0  16    1.49    1.09
  -5   0  16    1.86    1.20
   4   0 -16   -0.04    1.38
   4   0 -16    1.66    1.90
   4   0 -16    3.97    1.05
   4   0 -16    1.58    0.54
  -4   0  16   -0.33    0.89
  -4   0  16    1.17    1.09
   3   0 -16    7.94    0.85
   3   0 -16    8.05    2.09
   3   0 -16    5.23    1.59
  -3   0  16    9.04    1.56
  -3   0  16    6.05    1.40
   2   0 -16   -1.49    1.55
   2   0 -16    0.49    1.42
   2   0 -16    0.00    0.74
  -2   0  16    0.35    1.00
  -2   0  16    0.03    0.92
   1   0 -16    6.64    1.57
   1   0 -16    6.97    1.03
   1   0 -16    6.47    2.11
  -1   0  16    6.39    1.33
  -1   0  16    5.46    1.38
   0   0 -16    3.19    1.42
   0   0 -16    3.49    1.02
   0   0 -16    2.95    1.81
   0   0  16    2.24    1.04
   0   0  16    2.45    1.25
   0   0  16    2.95    0.85
  -1   0 -16   -0.75    1.51
  -1   0 -16    0.17    0.27
  -1   0 -16    0.47    1.03
  -1   0 -16    0.43    0.99
  -1   0 -16    0.25    0.27
   1   0  16   -0.37    1.07
   1   0  16   -0.76    0.85
   1   0  16   -0.50    0.69
  -2   0 -16    8.98    2.37
  -2   0 -16    9.47    1.66
  -2   0 -16   11.04    1.65
   2   0  16   10.53    1.89
   2   0  16    9.64    1.48
   2   0  16    7.07    1.34
  -3   0 -16    7.19    2.19
  -3   0 -16    4.86    1.40
   3   0  16    1.00    1.39
   3   0  16    2.66    1.09
   3   0  16    3.31    1.12
   7  -1 -16   -0.92    1.68
   7  -1 -16    1.25    1.67
   7  -1 -16    2.93    1.11
  -7   1  16    1.17    1.10
  -7   1  16    3.24    1.32
   6  -1 -16    0.27    1.73
   6  -1 -16    3.56    2.07
   6  -1 -16    1.74    1.19
  -6   1  16    2.60    1.16
  -6   1  16    1.58    1.33
   5  -1 -16   14.43    2.72
   5  -1 -16   13.17    1.61
   5  -1 -16    8.99    1.96
  -5   1  16    7.87    1.60
  -5   1  16    8.25    1.55
   4  -1 -16    3.01    1.54
   4  -1 -16    5.84    1.16
   4  -1 -16    3.41    2.19
  -4   1  16    3.83    1.24
  -4   1  16    3.54    1.19
   3  -1 -16   18.02    3.05
   3  -1 -16   14.47    1.52
   3  -1 -16   12.90    2.03
  -3   1  16   14.59    1.82
  -3   1  16   14.90    1.75
   2  -1 -16   23.81    1.74
   2  -1 -16   28.92    2.00
   2  -1 -16   25.32    3.42
   2  -1 -16   23.03    2.43
  -2   1  16   21.33    2.12
  -2   1  16   25.55    2.34
   1  -1 -16    1.45    1.39
   1  -1 -16    1.76    0.85
   1  -1 -16   -0.44    1.92
   1  -1 -16   -0.95    0.66
  -1   1  16   -0.81    1.01
  -1   1  16    1.66    1.00
   0  -1 -16    5.19    1.14
   0  -1 -16    4.71    2.13
   0  -1 -16    4.61    1.48
   0   1  16    2.90    1.29
   0   1  16    3.42    1.21
  -1  -1 -16    3.76    1.84
  -1  -1 -16    2.59    1.31
  -1  -1 -16    3.11    1.86
   1   1  16    1.96    1.24
   1   1  16    1.28    0.66
   1   1  16    2.28    1.05
  -2  -1 -16   14.77    1.88
  -2  -1 -16   25.34    4.97
   2   1  16   17.74    1.88
   2   1  16   19.44    2.34
  -3  -1 -16    4.94    0.77
  -3  -1 -16    6.29    2.10
  -3  -1 -16    6.43    1.47
   3   1  16    5.50    1.36
   3   1  16    4.86    1.17
   3   1  16    3.30    1.55
   7  -2 -16   -0.45    1.55
   7  -2 -16   -0.62    2.15
  -7   2  16    0.44    1.11
   6  -2 -16    0.67    1.10
   6  -2 -16   -0.83    2.03
  -6   2  16   -1.00    1.65
  -6   2  16    0.88    1.07
   5  -2 -16   -0.24    1.37
   5  -2 -16    4.65    2.22
   5  -2 -16    0.11    1.08
  -5   2  16   -0.40    0.99
  -5   2  16    0.30    0.94
   4  -2 -16   -1.58    1.48
   4  -2 -16    1.97    1.06
   4  -2 -16   -0.57    2.23
  -4   2  16    1.31    1.04
  -4   2  16    1.21    1.04
  -4   2  16    0.72    0.21
   3  -2 -16   -1.41    2.02
   3  -2 -16    1.19    0.93
   3  -2 -16    0.23    1.34
   3  -2 -16    1.42    0.65
  -3   2  16    0.57    1.00
  -3   2  16    0.43    0.96
  -3   2  16    0.50    0.27
   2  -2 -16    1.52    1.30
   2  -2 -16    3.06    0.90
   2  -2 -16    3.65    1.13
   2  -2 -16    2.69    2.24
  -2   2  16    4.89    1.25
  -2   2  16    2.46    1.09
   1  -2 -16    0.42    0.80
   1  -2 -16    3.73    1.20
   1  -2 -16    2.12    1.38
   1  -2 -16    0.42    2.03
  -1   2  16   -0.51    1.00
  -1   2  16    0.46    0.91
   0  -2 -16   19.36    2.16
   0  -2 -16   17.73    3.44
   0  -2 -16   18.54    1.78
   0   2  16   18.89    2.30
   0   2  16   18.30    2.06
  -1  -2 -16    4.26    1.26
  -1  -2 -16    2.81    2.19
   1   2  16    6.13    1.61
   1   2  16    4.88    1.41
  -2  -2 -16    2.59    1.24
  -2  -2 -16    7.00    2.49
   2   2  16    0.91    1.45
   2   2  16    3.62    1.24
   6  -3 -16   -1.09    2.08
   6  -3 -16   -0.22    1.39
   6  -3 -16    1.41    1.60
  -6   3  16    0.29    0.88
  -6   3  16   -0.91    1.12
   5  -3 -16    1.15    2.23
   5  -3 -16   -0.38    1.04
   5  -3 -16   -0.50    1.39
  -5   3  16    1.04    1.37
  -5   3  16    0.41    0.98
   4  -3 -16    7.37    2.93
   4  -3 -16    3.16    1.20
   4  -3 -16    6.17    1.76
  -4   3  16    5.13    1.31
  -4   3  16    4.54    1.17
   3  -3 -16   -0.59    2.40
   3  -3 -16   -0.20    0.92
   3  -3 -16   -0.15    1.31
  -3   3  16    2.77    1.18
  -3   3  16   -0.56    0.88
   2  -3 -16    1.73    0.89
   2  -3 -16   -0.92    1.19
   2  -3 -16    3.64    2.71
  -2   3  16    0.03    1.02
  -2   3  16    1.25    1.13
   1  -3 -16    1.26    1.00
   1  -3 -16   -0.60    2.33
   1  -3 -16   -1.08    1.28
  -1   3  16    0.52    0.97
  -1   3  16    0.43    0.70
  -1   3  16    0.65    1.09
   0  -3 -16    2.89    1.31
   0  -3 -16    0.98    2.20
   0   3  16    1.16    1.16
   0   3  16    1.46    1.20
  -1  -3 -16    4.21    1.26
  -1  -3 -16    1.21    3.62
   1   3  16    0.01    1.21
   1   3  16    1.72    1.14
  -2  -3 -16    0.53    0.60
  -2  -3 -16    0.58    0.42
  -2  -3 -16    2.00    1.30
   2   3  16    0.40    1.13
   2   3  16    0.58    0.38
   6  -4 -16   -3.34    3.53
   5  -4 -16   -0.47    1.38
   5  -4 -16   -1.91    2.89
  -5   4  16    0.01    1.10
  -5   4  16    0.71    0.83
   4  -4 -16    0.39    1.36
   4  -4 -16    0.08    2.48
  -4   4  16    1.00    0.81
  -4   4  16    0.78    1.75
  -4   4  16    0.77    0.83
   3  -4 -16    3.90    0.95
   3  -4 -16    0.67    1.34
   3  -4 -16    8.06    2.91
  -3   4  16    2.70    1.00
  -3   4  16    1.59    0.92
  -3   4  16    2.01    1.13
   2  -4 -16    3.85    1.03
   2  -4 -16   -0.31    1.22
   2  -4 -16    4.47    2.60
  -2   4  16    0.52    0.99
  -2   4  16    0.02    0.81
  -2   4  16    1.00    0.96
   1  -4 -16    3.36    1.16
   1  -4 -16   -0.04    1.33
  -1   4  16   -0.30    0.65
  -1   4  16    2.19    1.81
  -1   4  16   -0.66    0.94
   0  -4 -16    0.92    1.13
   0  -4 -16   -0.26    2.40
   0  -4 -16    3.05    1.10
   0   4  16    0.62    0.75
   0   4  16   -1.10    1.44
   0   4  16   -0.13    1.11
  -1  -4 -16    6.99    1.52
   1   4  16    3.38    1.44
   1   4  16    3.66    0.89
   1   4  16    3.27    1.33
   4  -5 -16    0.85    2.76
  -4   5  16    1.77    1.17
   3  -5 -16    5.92    1.60
   3  -5 -16    3.38    2.66
  -3   5  16    5.36    1.19
  -3   5  16    7.10    1.00
   2  -5 -16    0.04    2.50
   2  -5 -16    0.38    1.33
  -2   5  16    2.08    1.24
  -2   5  16    1.18    0.93
  -2   5  16    1.52    0.96
   1  -5 -16    9.68    3.23
   1  -5 -16    4.45    1.49
  -1   5  16    3.95    1.37
  -1   5  16    5.29    1.11
  -1   5  16    4.51    1.23
   2   5 -17   13.19    1.70
   2   5 -17   11.35    2.17
  -2  -5  17   10.74    1.91
   1   5 -17   -0.55    0.51
   1   5 -17    0.35    1.38
   1   5 -17    1.96    1.44
  -1  -5  17    1.11    1.16
  -1  -5  17    0.98    1.57
   4   4 -17    3.20    1.74
   4   4 -17    2.26    1.22
  -4  -4  17    4.59    1.26
  -4  -4  17    2.97    1.33
   3   4 -17    0.16    1.54
   3   4 -17    1.63    1.10
   3   4 -17    3.04    1.34
  -3  -4  17    2.29    1.28
  -3  -4  17    3.77    1.29
  -3  -4  17    0.23    0.85
   2   4 -17   -1.13    0.93
   2   4 -17    1.55    1.36
  -2  -4  17    0.15    1.16
  -2  -4  17   -0.51    0.76
  -2  -4  17    1.14    1.85
   1   4 -17    2.50    1.59
  -1  -4  17    2.22    1.34
   0   4 -17   17.51    2.89
   0  -4  17   16.68    2.58
   0  -4  17   15.81    2.35
   0  -4  17   14.20    1.49
   1  -4  17    1.22    1.31
   1  -4  17    1.94    0.71
   1  -4  17   -0.28    1.36
   1  -4  17    2.74    0.79
   5   3 -17    3.77    1.35
   5   3 -17    4.99    1.33
   5   3 -17    0.36    1.64
  -5  -3  17    1.49    1.23
  -5  -3  17    8.36    1.27
  -5  -3  17    1.04    1.11
   4   3 -17   25.75    3.60
   4   3 -17   20.01    2.14
  -4  -3  17   18.16    1.93
  -4  -3  17   12.25    2.43
  -4  -3  17   22.39    2.06
   3   3 -17    2.42    1.05
   3   3 -17    2.62    1.61
   3   3 -17    4.01    1.64
  -3  -3  17    3.88    1.41
  -3  -3  17    4.25    1.11
  -3  -3  17    2.47    1.05
   2   3 -17    0.19    1.29
   2   3 -17    0.34    1.04
   2   3 -17    0.35    1.39
  -2  -3  17    0.99    1.23
  -2  -3  17    0.07    1.06
  -2  -3  17   -0.08    0.81
   1   3 -17    0.61    1.45
   1   3 -17    0.40    1.37
   1   3 -17    0.13    0.49
  -1  -3  17    0.51    0.82
  -1  -3  17    0.36    1.10
  -1  -3  17    3.27    1.26
   0   3 -17    2.78    1.59
   0   3 -17    3.17    1.46
   0  -3  17    1.60    0.46
   0  -3  17    2.24    1.52
   0  -3  17    3.13    1.09
   0  -3  17    2.96    1.30
  -1   3 -17    3.92    1.42
  -1   3 -17    4.66    2.17
   1  -3  17    2.77    1.58
   1  -3  17    0.56    1.25
  -2   3 -17   32.28    3.67
  -2   3 -17   34.24    2.87
   2  -3  17   31.16    2.31
   2  -3  17   22.86    2.56
   2  -3  17   27.43    2.90
   2  -3  17   28.53    2.18
   5   2 -17    2.50    1.42
   5   2 -17   -0.96    1.62
   5   2 -17   -1.12    1.03
  -5  -2  17    0.58    1.03
  -5  -2  17    0.15    1.30
   4   2 -17   -0.13    1.00
   4   2 -17    2.10    1.45
   4   2 -17    1.31    1.75
  -4  -2  17    0.17    1.09
  -4  -2  17    0.66    0.92
   3   2 -17   11.33    1.56
   3   2 -17    8.46    1.92
   3   2 -17    7.65    1.83
  -3  -2  17    8.22    1.63
  -3  -2  17    8.17    1.50
   2   2 -17   36.25    2.47
   2   2 -17   39.60    3.58
   2   2 -17   32.63    3.01
  -2  -2  17   36.77    2.74
  -2  -2  17   29.52    2.47
  -2  -2  17   31.00    2.87
   1   2 -17    2.55    1.68
   1   2 -17   -0.53    0.50
   1   2 -17    3.01    1.45
  -1  -2  17   -0.62    1.09
  -1  -2  17    0.31    1.10
  -1  -2  17    0.74    0.87
   0   2 -17    2.38    1.42
   0   2 -17    1.72    1.61
   0  -2  17    3.37    1.32
   0  -2  17    2.28    1.20
   0  -2  17    2.79    1.01
  -1   2 -17    4.80    1.96
  -1   2 -17    2.30    1.32
   1  -2  17    3.29    1.00
   1  -2  17    3.27    1.18
   1  -2  17    1.46    0.58
  -2   2 -17    1.04    1.14
  -2   2 -17    0.91    1.83
   2  -2  17   -1.45    0.91
   2  -2  17   -0.36    1.28
   2  -2  17    1.81    0.89
   2  -2  17    0.47    0.74
   6   1 -17    1.20    1.43
   6   1 -17    0.32    1.31
   6   1 -17    1.42    1.75
  -6  -1  17    1.28    1.21
  -6  -1  17    0.48    1.15
   5   1 -17   -0.21    1.36
   5   1 -17   -0.10    1.08
  -5  -1  17   -0.25    0.92
  -5  -1  17    1.18    1.14
   4   1 -17    1.19    1.59
   4   1 -17    1.64    1.67
   4   1 -17    1.88    1.09
  -4  -1  17    1.76    1.19
  -4  -1  17    1.63    1.00
   3   1 -17    1.19    0.70
   3   1 -17   -0.89    1.51
   3   1 -17    0.75    1.50
   3   1 -17    0.28    1.01
  -3  -1  17    0.77    1.14
  -3  -1  17   -0.63    0.92
   2   1 -17    3.37    0.99
   2   1 -17    2.71    1.60
   2   1 -17    4.84    1.64
  -2  -1  17    3.08    1.27
  -2  -1  17    5.56    1.30
   1   1 -17   -0.71    1.54
   1   1 -17   -0.38    0.71
   1   1 -17    0.07    1.33
  -1  -1  17    0.59    0.83
  -1  -1  17   -0.91    0.70
  -1  -1  17   -0.04    1.12
   0   1 -17    1.14    0.64
   0   1 -17    0.56    1.21
   0   1 -17    0.05    0.32
   0   1 -17   -0.36    1.61
   0  -1  17    0.15    0.93
   0  -1  17   -0.27    0.85
   0  -1  17   -0.68    1.17
  -1   1 -17    1.17    0.38
  -1   1 -17   -0.35    1.07
  -1   1 -17    0.65    1.09
  -1   1 -17   -0.70    1.59
   1  -1  17    0.87    1.53
   1  -1  17   -1.35    0.86
   1  -1  17   -1.04    0.74
  -2   1 -17    0.99    1.20
  -2   1 -17    2.37    1.18
  -2   1 -17    0.34    1.68
   2  -1  17    0.80    1.35
   2  -1  17   -1.46    0.88
   2  -1  17    1.27    0.91
   6   0 -17    8.15    2.26
   6   0 -17    9.05    2.11
  -6   0  17    8.53    1.66
   5   0 -17   -0.97    1.84
   5   0 -17    0.42    1.79
   5   0 -17    0.95    1.17
  -5   0  17    0.89    1.16
  -5   0  17    1.93    1.10
   4   0 -17   -2.31    1.35
   4   0 -17    0.16    1.61
   4   0 -17    1.80    1.07
  -4   0  17    0.26    1.09
  -4   0  17    0.02    1.10
   3   0 -17   -0.24    1.82
   3   0 -17    1.25    1.06
   3   0 -17    1.50    1.50
  -3   0  17    4.13    1.28
  -3   0  17    1.08    1.14
   2   0 -17    0.39    1.69
   2   0 -17    0.40    1.46
   2   0 -17    0.03    0.73
  -2   0  17   -0.11    0.86
  -2   0  17   -0.39    0.99
   1   0 -17   -1.18    1.65
   1   0 -17    1.13    0.76
   1   0 -17    1.01    1.34
   1   0 -17    0.01    0.60
  -1   0  17   -0.18    1.09
  -1   0  17    0.17    0.91
   0   0 -17    1.62    0.90
   0   0 -17   -1.00    1.29
   0   0 -17    0.25    0.36
   0   0 -17   -0.45    1.66
   0   0 -17    0.40    0.39
   0   0  17    0.45    0.97
   0   0  17    0.14    1.18
  -1   0 -17    0.03    1.07
  -1   0 -17    0.52    1.90
  -1   0 -17   -0.30    0.26
  -1   0 -17    0.33    1.25
   1   0  17    0.03    0.78
   1   0  17    0.43    0.95
   1   0  17   -1.21    1.09
  -2   0 -17   22.37    2.12
  -2   0 -17   19.54    2.10
  -2   0 -17   23.20    3.19
   2   0  17   14.74    2.38
   2   0  17   21.28    2.04
   2   0  17   16.41    1.93
   6  -1 -17    1.49    2.06
   6  -1 -17    4.48    1.84
   6  -1 -17    7.78    1.94
  -6   1  17    5.55    1.44
  -6   1  17    7.65    1.58
   5  -1 -17    4.37    2.26
   5  -1 -17    7.89    1.48
  -5   1  17    6.27    1.47
  -5   1  17    6.84    1.75
   4  -1 -17   -1.08    1.47
   4  -1 -17    2.21    2.12
   4  -1 -17    0.97    1.01
  -4   1  17    1.53    1.11
  -4   1  17   -0.11    1.03
   3  -1 -17    2.38    2.23
   3  -1 -17   -0.39    1.33
   3  -1 -17    0.22    0.90
  -3   1  17    0.50    1.07
  -3   1  17    0.82    0.23
  -3   1  17    0.72    1.03
   2  -1 -17    1.15    1.40
   2  -1 -17    0.98    0.94
   2  -1 -17   -0.24    2.11
  -2   1  17    0.36    1.05
  -2   1  17    0.55    0.24
  -2   1  17   -0.34    1.10
  -2   1  17   -0.54    0.33
   1  -1 -17    4.06    2.35
   1  -1 -17    5.99    1.07
   1  -1 -17    4.03    0.91
  -1   1  17    4.36    1.20
  -1   1  17    4.02    1.37
   0  -1 -17   16.22    1.74
   0  -1 -17   14.31    2.98
   0  -1 -17   13.25    2.02
   0   1  17   16.06    2.14
   0   1  17   11.22    1.76
  -1  -1 -17    2.41    1.07
  -1  -1 -17    0.99    1.14
  -1  -1 -17    6.09    3.51
   1   1  17   -0.23    0.98
   1   1  17   -0.54    1.39
  -2  -1 -17    2.65    1.84
  -2  -1 -17    4.74    1.35
  -2  -1 -17    3.05    1.06
   2   1  17    1.32    1.38
   2   1  17    1.30    1.15
   2   1  17    1.45    0.70
   6  -2 -17   -0.80    1.15
   6  -2 -17   -1.06    1.55
   6  -2 -17   -0.73    2.28
  -6   2  17   -0.97    1.00
  -6   2  17    2.19    1.09
   5  -2 -17   -1.59    2.19
   5  -2 -17    0.81    1.09
  -5   2  17    1.63    1.10
  -5   2  17   -0.95    1.55
   4  -2 -17   -0.53    1.48
   4  -2 -17    0.65    2.25
   4  -2 -17   -0.33    0.99
  -4   2  17    0.56    1.06
   3  -2 -17    1.71    0.62
   3  -2 -17    0.26    1.44
   3  -2 -17   -0.30    2.47
   3  -2 -17    0.05    1.04
  -3   2  17    0.07    1.06
  -3   2  17   -1.13    0.89
   2  -2 -17   10.56    1.29
   2  -2 -17    6.03    1.72
   2  -2 -17   14.89    1.40
   2  -2 -17   12.68    3.15
  -2   2  17   10.51    1.76
  -2   2  17   16.42    1.93
   1  -2 -17   16.24    3.26
   1  -2 -17   20.44    1.58
   1  -2 -17   16.98    2.30
   1  -2 -17   17.16    1.64
  -1   2  17   13.15    1.81
  -1   2  17   14.97    2.15
   0  -2 -17    3.26    1.80
   0  -2 -17    1.34    0.43
   0  -2 -17   -2.01    1.22
   0   2  17    1.06    1.27
   0   2  17    0.84    1.07
  -1  -2 -17    1.94    1.15
  -1  -2 -17   -1.25    1.07
  -1  -2 -17    1.03    0.41
  -1  -2 -17    1.35    2.00
   1   2  17    1.35    1.62
   1   2  17    1.96    1.43
   5  -3 -17   -1.88    2.63
   5  -3 -17    0.23    1.54
  -5   3  17    1.59    1.03
  -5   3  17   -0.23    1.19
   4  -3 -17    1.42    2.64
   4  -3 -17    0.51    1.65
   4  -3 -17    3.34    1.20
  -4   3  17    1.09    1.30
  -4   3  17    2.17    1.08
   3  -3 -17    0.99    1.12
   3  -3 -17   -1.12    1.51
   3  -3 -17    1.62    2.50
  -3   3  17    0.34    1.78
  -3   3  17    1.91    0.97
   2  -3 -17   -0.79    3.04
   2  -3 -17    0.87    1.53
   2  -3 -17    3.93    1.02
   2  -3 -17   -0.65    0.88
  -2   3  17   -0.05    1.02
  -2   3  17    0.94    1.04
   1  -3 -17   11.31    1.88
   1  -3 -17    9.27    4.23
  -1   3  17   13.43    2.05
  -1   3  17   16.39    2.88
   0  -3 -17    0.79    2.18
   0  -3 -17    0.50    0.44
   0  -3 -17   -0.02    1.18
   0   3  17    1.66    1.63
   0   3  17    0.97    1.22
   4  -4 -17    2.29    1.30
   4  -4 -17    0.79    2.71
  -4   4  17    0.20    0.82
  -4   4  17    0.73    1.18
   3  -4 -17    1.13    2.93
   3  -4 -17    1.62    1.48
  -3   4  17    2.73    1.08
  -3   4  17    1.87    1.18
  -3   4  17    4.14    1.04
   2  -4 -17    0.17    2.74
   2  -4 -17   -0.53    1.34
  -2   4  17    0.37    1.00
  -2   4  17    0.87    1.00
  -2   4  17    1.30    0.78
   1  -4 -17   -1.86    2.36
   1  -4 -17   -1.44    1.31
  -1   4  17    0.50    1.01
  -1   4  17    1.21    1.11
  -1   4  17    0.47    0.66
   3   3 -18    1.24    1.26
   3   3 -18   -1.52    1.45
   3   3 -18    0.06    0.92
  -3  -3  18    2.18    1.03
  -3  -3  18    2.91    1.11
  -3  -3  18    0.77    1.18
   2   3 -18    1.10    1.45
   2   3 -18    1.59    1.75
  -2  -3  18    2.01    1.25
  -2  -3  18   -0.27    0.84
  -2  -3  18   -0.20    1.16
   1   3 -18    4.76    1.79
   1   3 -18    0.46    2.32
  -1  -3  18    4.71    1.52
  -1  -3  18    2.44    0.97
  -1  -3  18    2.93    1.38
   0   3 -18    8.07    1.87
   0   3 -18    7.04    3.37
   0  -3  18    4.16    1.05
   0  -3  18    2.17    1.25
   0  -3  18    4.89    1.54
   4   2 -18    2.34    1.40
   4   2 -18    0.56    1.69
   4   2 -18   -0.85    1.11
  -4  -2  18    0.14    0.86
  -4  -2  18    1.19    1.21
   3   2 -18    3.22    1.51
   3   2 -18    2.99    1.06
  -3  -2  18    0.22    0.94
  -3  -2  18    0.02    1.09
   2   2 -18    8.25    2.18
   2   2 -18    7.78    1.86
   2   2 -18    7.76    1.28
  -2  -2  18   10.87    1.55
  -2  -2  18    7.54    2.33
   1   2 -18   15.36    2.21
  -1  -2  18   11.66    1.57
  -1  -2  18   13.50    2.02
  -1  -2  18   10.02    1.69
   0   2 -18    4.28    2.65
   0   2 -18    5.06    1.76
   0  -2  18    2.65    1.30
   0  -2  18    2.63    1.39
   0  -2  18    2.52    1.00
  -1   2 -18    0.62    1.54
  -1   2 -18    2.19    1.84
   1  -2  18   -1.41    1.02
   1  -2  18    1.11    0.45
   1  -2  18    0.76    0.86
   5   1 -18    0.65    1.24
   5   1 -18   -0.73    1.60
   5   1 -18    2.83    1.50
  -5  -1  18    1.35    1.19
  -5  -1  18    1.00    1.04
   4   1 -18    5.71    1.37
   4   1 -18    5.52    2.06
   4   1 -18    8.06    2.01
  -4  -1  18    4.71    1.34
   3   1 -18    3.65    1.75
   3   1 -18    0.62    1.07
   3   1 -18    0.95    1.77
  -3  -1  18    1.58    1.25
  -3  -1  18    1.88    1.11
   2   1 -18   -0.31    1.05
   2   1 -18    0.78    1.49
   2   1 -18    1.22    1.51
  -2  -1  18    0.69    0.98
  -2  -1  18    2.11    1.36
   1   1 -18    1.79    1.47
   1   1 -18    2.48    1.78
  -1  -1  18    2.25    1.04
   0   1 -18   11.60    3.83
   0   1 -18    9.68    1.96
   0  -1  18    9.65    1.86
   0  -1  18   10.16    1.55
  -1   1 -18    6.66    2.14
  -1   1 -18    5.25    1.57
   1  -1  18    3.77    1.09
   1  -1  18    5.34    1.59
   1  -1  18    1.88    1.15
   5   0 -18   -1.13    1.55
   5   0 -18    1.67    1.18
   5   0 -18    1.54    1.73
  -5   0  18   -0.12    1.15
  -5   0  18   -0.45    1.30
   4   0 -18    0.70    1.01
   4   0 -18    0.30    1.69
  -4   0  18    1.47    1.27
  -4   0  18    0.67    1.25
   3   0 -18    3.83    1.71
   3   0 -18    1.67    1.10
   3   0 -18    4.11    2.04
  -3   0  18    2.25    1.10
  -3   0  18    3.72    1.32
   2   0 -18    1.95    1.00
   2   0 -18    3.12    1.56
   2   0 -18    3.28    1.87
  -2   0  18    4.49    1.24
  -2   0  18    2.24    1.29
   1   0 -18   -0.58    1.31
   1   0 -18    0.44    0.44
   1   0 -18    0.51    1.68
  -1   0  18    0.15    1.17
  -1   0  18    0.00    0.86
   0   0 -18    7.91    2.94
   0   0 -18    6.09    1.74
   0   0 -18   10.10    1.40
   0   0  18    6.40    1.93
   0   0  18    7.71    1.48
  -1   0 -18   11.43    1.51
  -1   0 -18    9.42    2.53
  -1   0 -18    6.86    1.48
   1   0  18    6.54    1.72
   1   0  18    8.82    1.61
   5  -1 -18    2.73    1.82
   5  -1 -18    5.05    1.58
   5  -1 -18    1.76    2.29
  -5   1  18    4.04    1.49
  -5   1  18    1.89    1.22
   4  -1 -18   11.20    2.84
   4  -1 -18    8.19    1.47
  -4   1  18   12.96    1.87
   3  -1 -18    0.81    1.87
   3  -1 -18    3.02    1.08
   3  -1 -18   -0.37    1.47
  -3   1  18    2.86    1.21
  -3   1  18    0.66    1.15
   2  -1 -18    4.02    2.19
   2  -1 -18    1.82    0.95
   2  -1 -18    5.15    1.79
  -2   1  18    1.48    1.01
  -2   1  18    1.56    1.21
   1  -1 -18    3.44    1.53
   1  -1 -18    3.46    1.48
  -1   1  18    3.81    1.38
  -1   1  18    2.02    1.13
   0  -1 -18   16.40    2.28
   0  -1 -18   16.96    3.06
   0  -1 -18   21.55    2.22
   0   1  18   14.51    3.24
   0   1  18   17.36    2.02
   5  -2 -18    0.05    2.76
   4  -2 -18   10.77    1.48
   4  -2 -18    8.93    3.46
   4  -2 -18    7.65    2.21
  -4   2  18    7.37    1.70
  -4   2  18    6.52    1.50
   3  -2 -18   -0.58    3.15
   3  -2 -18    2.04    1.03
   3  -2 -18    1.33    1.75
  -3   2  18    0.15    1.20
  -3   2  18    1.29    1.11
   2  -2 -18   11.16    2.07
   2  -2 -18   16.40    1.44
   2  -2 -18   13.53    1.51
   2  -2 -18    6.96    4.38
  -2   2  18   10.74    1.82
  -2   2  18   10.06    2.66
   1  -2 -18    1.37    0.63
   1  -2 -18    2.69    2.29
   1  -2 -18    3.17    1.46
  -1   2  18    0.28    1.48
  -1   2  18    0.40    1.19
   0  -2 -18   -0.89    1.24
   0   2  18    1.64    1.04
   0   2  18   -0.68    1.69
   3  -3 -18    2.44    2.80
   3  -3 -18    2.02    1.07
  -3   3  18    2.49    1.36
  -3   3  18    1.40    1.04
   2  -3 -18    5.29    2.70
   2  -3 -18    4.76    1.61
  -2   3  18    6.30    1.46
  -2   3  18    5.49    1.37
   3   1 -19    6.69    1.96
   3   1 -19    2.35    1.74
   2   1 -19    0.34    1.52
   2   1 -19    5.11    2.55
   2   1 -19    0.15    0.73
  -2  -1  19    0.54    1.17
  -2  -1  19   -0.07    0.50
  -2  -1  19    0.43    1.02
   3   0 -19   -0.80    1.49
   3   0 -19    3.12    2.73
  -3   0  19    0.92    1.33
   2   0 -19   -0.51    1.61
   2   0 -19   -0.29    1.89
   2   0 -19    2.27    0.91
  -2   0  19    0.72    1.15
  -2   0  19    0.64    1.67
  -2   0  19    0.28    0.43
   0   0   0    0.00    0.00
;
_shelx_hkl_checksum              50387
loop_
_space_group_symop_operation_xyz
'x, y, z'
'-x, -y, -z'
loop_
_atom_site_label
_atom_site_type_symbol
_atom_site_fract_x
_atom_site_fract_y
_atom_site_fract_z
_atom_site_U_iso_or_equiv
_atom_site_adp_type
_atom_site_occupancy
_atom_site_site_symmetry_order
_atom_site_calc_flag
_atom_site_refinement_flags_posn
_atom_site_refinement_flags_adp
_atom_site_refinement_flags_occupancy
_atom_site_disorder_assembly
_atom_site_disorder_group
N1 N 0.48355(19) 0.25307(17) 0.15011(10) 0.0290(3) Uani 1 1 d . . . . .
C2 C 0.5316(3) 0.0770(2) 0.13890(14) 0.0388(4) Uani 1 1 d . . . . .
H2A H 0.661087 0.084396 0.131148 0.047 Uiso 1 1 calc R U . . .
H2AB H 0.448987 0.014406 0.079968 0.047 Uiso 1 1 calc R U . . .
C3 C 0.5112(3) -0.0195(2) 0.22583(15) 0.0417(5) Uani 1 1 d . . . . .
H3 H 0.482296 -0.142511 0.219371 0.050 Uiso 1 1 calc R U . . .
C4 C 0.5327(3) 0.0630(2) 0.31232(14) 0.0398(4) Uani 1 1 d . . . . .
H4 H 0.514238 -0.000503 0.366435 0.048 Uiso 1 1 calc R U . . .
C5 C 0.5847(2) 0.2516(2) 0.32432(12) 0.0309(4) Uani 1 1 d . . . . .
C6 C 0.5658(2) 0.3458(2) 0.24091(11) 0.0264(3) Uani 1 1 d . . . . .
C7 C 0.6310(2) 0.5217(2) 0.24736(11) 0.0283(3) Uani 1 1 d . . . . .
H7 H 0.625803 0.582870 0.190026 0.034 Uiso 1 1 calc R U . . .
C8 C 0.7038(2) 0.6079(2) 0.33745(12) 0.0302(4) Uani 1 1 d . . . . .
H8 H 0.745964 0.729156 0.341947 0.036 Uiso 1 1 calc R U . . .
C9 C 0.7155(2) 0.5187(2) 0.42129(12) 0.0322(4) Uani 1 1 d . . . . .
C10 C 0.6579(2) 0.3408(2) 0.41409(13) 0.0356(4) Uani 1 1 d . . . . .
H10 H 0.668757 0.279236 0.471485 0.043 Uiso 1 1 calc R U . . .
C11 C 0.7947(3) 0.6074(3) 0.51917(13) 0.0397(4) Uani 1 1 d . . . . .
O12 O 0.8180(3) 0.5352(2) 0.59307(10) 0.0657(5) Uani 1 1 d . . . . .
O13 O 0.8369(2) 0.7780(2) 0.51564(10) 0.0559(4) Uani 1 1 d . . . . .
C14 C 0.9177(4) 0.8752(3) 0.60747(16) 0.0634(7) Uani 1 1 d . . . . .
H14A H 0.956615 0.996360 0.595783 0.095 Uiso 1 1 calc R U . . .
H14B H 1.025712 0.824512 0.641227 0.095 Uiso 1 1 calc R U . . .
H14C H 0.825655 0.870668 0.647652 0.095 Uiso 1 1 calc R U . . .
C15 C 0.3622(2) 0.3127(2) 0.07527(11) 0.0273(3) Uani 1 1 d . . . . .
O16 O 0.32825(18) 0.24435(17) -0.00673(9) 0.0406(3) Uani 1 1 d . . . . .
C17 C 0.2658(2) 0.4614(2) 0.09784(11) 0.0251(3) Uani 1 1 d . . . . .
C18 C 0.2411(2) 0.5887(2) 0.03155(11) 0.0275(3) Uani 1 1 d . . . . .
H18 H 0.284726 0.579780 -0.026541 0.033 Uiso 1 1 calc R U . . .
C19 C 0.1536(2) 0.7278(2) 0.04957(11) 0.0285(3) Uani 1 1 d . . . . .
H19 H 0.139205 0.817089 0.005470 0.034 Uiso 1 1 calc R U . . .
C20 C 0.0876(2) 0.7340(2) 0.13310(11) 0.0257(3) Uani 1 1 d . . . . .
C21 C 0.1010(2) 0.6055(2) 0.19796(11) 0.0275(3) Uani 1 1 d . . . . .
H21 H 0.049103 0.610957 0.253525 0.033 Uiso 1 1 calc R U . . .
C22 C 0.1924(2) 0.4685(2) 0.17987(11) 0.0278(3) Uani 1 1 d . . . . .
H22 H 0.204844 0.378766 0.223763 0.033 Uiso 1 1 calc R U . . .
N23 N 0.0055(2) 0.88734(18) 0.15652(10) 0.0314(3) Uani 1 1 d . . . . .
O24 O 0.0392(2) 1.01919(17) 0.11586(11) 0.0496(4) Uani 1 1 d . . . . .
O25 O -0.08831(19) 0.87713(18) 0.21693(10) 0.0444(3) Uani 1 1 d . . . . .
loop_
_atom_site_aniso_label
_atom_site_aniso_U_11
_atom_site_aniso_U_22
_atom_site_aniso_U_33
_atom_site_aniso_U_23
_atom_site_aniso_U_13
_atom_site_aniso_U_12
N1 0.0304(7) 0.0253(7) 0.0299(7) -0.0027(5) 0.0014(5) 0.0087(5)
C2 0.0392(10) 0.0300(9) 0.0467(10) -0.0059(8) 0.0048(8) 0.0132(7)
C3 0.0361(10) 0.0249(8) 0.0600(12) 0.0036(8) -0.0001(9) 0.0076(7)
C4 0.0402(10) 0.0306(9) 0.0471(11) 0.0132(8) 0.0047(8) 0.0055(7)
C5 0.0292(8) 0.0291(8) 0.0345(9) 0.0068(7) 0.0053(7) 0.0066(6)
C6 0.0237(7) 0.0282(8) 0.0269(8) -0.0001(6) 0.0029(6) 0.0077(6)
C7 0.0303(8) 0.0289(8) 0.0247(7) 0.0038(6) 0.0031(6) 0.0049(6)
C8 0.0326(8) 0.0275(8) 0.0290(8) 0.0005(6) 0.0038(7) 0.0037(7)
C9 0.0315(8) 0.0382(9) 0.0259(8) 0.0015(7) 0.0032(6) 0.0067(7)
C10 0.0386(9) 0.0402(10) 0.0285(8) 0.0109(7) 0.0052(7) 0.0098(8)
C11 0.0380(10) 0.0533(12) 0.0263(9) 0.0001(8) 0.0038(7) 0.0072(8)
O12 0.0931(13) 0.0708(11) 0.0265(7) 0.0059(7) -0.0005(8) 0.0101(9)
O13 0.0765(11) 0.0512(9) 0.0302(7) -0.0091(6) 0.0030(7) -0.0088(8)
C14 0.0670(15) 0.0748(17) 0.0379(11) -0.0244(11) 0.0052(10) -0.0095(13)
C15 0.0228(7) 0.0304(8) 0.0281(8) -0.0005(6) 0.0043(6) 0.0041(6)
O16 0.0401(7) 0.0497(8) 0.0292(6) -0.0118(6) 0.0000(5) 0.0130(6)
C17 0.0203(7) 0.0282(8) 0.0249(7) -0.0003(6) 0.0013(6) 0.0037(6)
C18 0.0248(7) 0.0360(9) 0.0216(7) 0.0036(6) 0.0052(6) 0.0034(6)
C19 0.0277(8) 0.0304(8) 0.0265(8) 0.0083(6) 0.0034(6) 0.0045(6)
C20 0.0233(7) 0.0253(8) 0.0272(8) 0.0006(6) 0.0016(6) 0.0054(6)
C21 0.0290(8) 0.0317(8) 0.0234(7) 0.0040(6) 0.0071(6) 0.0078(6)
C22 0.0302(8) 0.0293(8) 0.0260(8) 0.0081(6) 0.0074(6) 0.0089(6)
N23 0.0329(7) 0.0284(7) 0.0305(7) 0.0004(6) -0.0001(6) 0.0086(6)
O24 0.0634(9) 0.0290(7) 0.0587(9) 0.0128(6) 0.0130(7) 0.0141(6)
O25 0.0514(8) 0.0451(8) 0.0426(7) 0.0003(6) 0.0169(6) 0.0191(6)
loop_
_atom_type_symbol
_atom_type_description
_atom_type_scat_dispersion_real
_atom_type_scat_dispersion_imag
_atom_type_scat_source
C C 0.0033 0.0016 'International Tables Vol C Tables 4.2.6.8 and 6.1.1.4'
H H 0.0000 0.0000 'International Tables Vol C Tables 4.2.6.8 and 6.1.1.4'
N N 0.0061 0.0033 'International Tables Vol C Tables 4.2.6.8 and 6.1.1.4'
O O 0.0106 0.0060 'International Tables Vol C Tables 4.2.6.8 and 6.1.1.4'
loop_
_geom_angle_atom_site_label_1
_geom_angle_atom_site_label_2
_geom_angle_atom_site_label_3
_geom_angle
_geom_angle_site_symmetry_1
_geom_angle_site_symmetry_3
_geom_angle_publ_flag
C15 N1 C6 125.39(13) . . ?
C15 N1 C2 118.82(14) . . ?
C6 N1 C2 115.76(13) . . ?
N1 C2 C3 109.78(15) . . ?
N1 C2 H2A 109.7 . . ?
C3 C2 H2A 109.7 . . ?
N1 C2 H2AB 109.7 . . ?
C3 C2 H2AB 109.7 . . ?
H2A C2 H2AB 108.2 . . ?
C4 C3 C2 121.25(16) . . ?
C4 C3 H3 119.4 . . ?
C2 C3 H3 119.4 . . ?
C3 C4 C5 120.05(17) . . ?
C3 C4 H4 120.0 . . ?
C5 C4 H4 120.0 . . ?
C10 C5 C6 118.48(15) . . ?
C10 C5 C4 123.14(16) . . ?
C6 C5 C4 118.34(16) . . ?
C7 C6 C5 120.63(15) . . ?
C7 C6 N1 121.78(14) . . ?
C5 C6 N1 117.56(14) . . ?
C8 C7 C6 119.79(15) . . ?
C8 C7 H7 120.1 . . ?
C6 C7 H7 120.1 . . ?
C7 C8 C9 120.42(15) . . ?
C7 C8 H8 119.8 . . ?
C9 C8 H8 119.8 . . ?
C8 C9 C10 119.50(16) . . ?
C8 C9 C11 121.72(16) . . ?
C10 C9 C11 118.75(16) . . ?
C5 C10 C9 121.00(15) . . ?
C5 C10 H10 119.5 . . ?
C9 C10 H10 119.5 . . ?
O12 C11 O13 123.23(18) . . ?
O12 C11 C9 124.44(19) . . ?
O13 C11 C9 112.34(15) . . ?
C11 O13 C14 116.34(17) . . ?
O13 C14 H14A 109.5 . . ?
O13 C14 H14B 109.5 . . ?
H14A C14 H14B 109.5 . . ?
O13 C14 H14C 109.5 . . ?
H14A C14 H14C 109.5 . . ?
H14B C14 H14C 109.5 . . ?
O16 C15 N1 121.50(15) . . ?
O16 C15 C17 120.44(14) . . ?
N1 C15 C17 118.02(13) . . ?
C22 C17 C18 119.93(14) . . ?
C22 C17 C15 121.47(14) . . ?
C18 C17 C15 118.49(14) . . ?
C19 C18 C17 120.37(15) . . ?
C19 C18 H18 119.8 . . ?
C17 C18 H18 119.8 . . ?
C20 C19 C18 118.24(14) . . ?
C20 C19 H19 120.9 . . ?
C18 C19 H19 120.9 . . ?
C19 C20 C21 122.95(14) . . ?
C19 C20 N23 118.77(14) . . ?
C21 C20 N23 118.24(14) . . ?
C20 C21 C22 118.11(14) . . ?
C20 C21 H21 120.9 . . ?
C22 C21 H21 120.9 . . ?
C21 C22 C17 120.27(14) . . ?
C21 C22 H22 119.9 . . ?
C17 C22 H22 119.9 . . ?
O25 N23 O24 123.59(15) . . ?
O25 N23 C20 118.38(14) . . ?
O24 N23 C20 118.01(15) . . ?
loop_
_geom_bond_atom_site_label_1
_geom_bond_atom_site_label_2
_geom_bond_distance
_geom_bond_site_symmetry_2
_geom_bond_publ_flag
N1 C15 1.371(2) . ?
N1 C6 1.421(2) . ?
N1 C2 1.472(2) . ?
C2 C3 1.487(3) . ?
C2 H2A 0.9900 . ?
C2 H2AB 0.9900 . ?
C3 C4 1.328(3) . ?
C3 H3 0.9500 . ?
C4 C5 1.462(2) . ?
C4 H4 0.9500 . ?
C5 C10 1.388(2) . ?
C5 C6 1.400(2) . ?
C6 C7 1.384(2) . ?
C7 C8 1.381(2) . ?
C7 H7 0.9500 . ?
C8 C9 1.386(2) . ?
C8 H8 0.9500 . ?
C9 C10 1.388(3) . ?
C9 C11 1.486(2) . ?
C10 H10 0.9500 . ?
C11 O12 1.193(2) . ?
C11 O13 1.329(2) . ?
O13 C14 1.446(2) . ?
C14 H14A 0.9800 . ?
C14 H14B 0.9800 . ?
C14 H14C 0.9800 . ?
C15 O16 1.2177(19) . ?
C15 C17 1.500(2) . ?
C17 C22 1.388(2) . ?
C17 C18 1.389(2) . ?
C18 C19 1.379(2) . ?
C18 H18 0.9500 . ?
C19 C20 1.376(2) . ?
C19 H19 0.9500 . ?
C20 C21 1.378(2) . ?
C20 N23 1.469(2) . ?
C21 C22 1.383(2) . ?
C21 H21 0.9500 . ?
C22 H22 0.9500 . ?
N23 O25 1.2144(19) . ?
N23 O24 1.2176(19) . ?
loop_
_geom_torsion_atom_site_label_1
_geom_torsion_atom_site_label_2
_geom_torsion_atom_site_label_3
_geom_torsion_atom_site_label_4
_geom_torsion
_geom_torsion_site_symmetry_1
_geom_torsion_site_symmetry_2
_geom_torsion_site_symmetry_3
_geom_torsion_site_symmetry_4
_geom_torsion_publ_flag
C15 N1 C2 C3 -130.71(16) . . . . ?
C6 N1 C2 C3 47.6(2) . . . . ?
N1 C2 C3 C4 -28.1(2) . . . . ?
C2 C3 C4 C5 -2.5(3) . . . . ?
C3 C4 C5 C10 -161.94(18) . . . . ?
C3 C4 C5 C6 15.8(3) . . . . ?
C10 C5 C6 C7 4.6(2) . . . . ?
C4 C5 C6 C7 -173.17(16) . . . . ?
C10 C5 C6 N1 -177.49(15) . . . . ?
C4 C5 C6 N1 4.7(2) . . . . ?
C15 N1 C6 C7 -41.3(2) . . . . ?
C2 N1 C6 C7 140.45(16) . . . . ?
C15 N1 C6 C5 140.85(17) . . . . ?
C2 N1 C6 C5 -37.4(2) . . . . ?
C5 C6 C7 C8 -4.6(2) . . . . ?
N1 C6 C7 C8 177.64(15) . . . . ?
C6 C7 C8 C9 1.4(2) . . . . ?
C7 C8 C9 C10 1.6(3) . . . . ?
C7 C8 C9 C11 179.39(16) . . . . ?
C6 C5 C10 C9 -1.6(3) . . . . ?
C4 C5 C10 C9 176.11(17) . . . . ?
C8 C9 C10 C5 -1.5(3) . . . . ?
C11 C9 C10 C5 -179.35(16) . . . . ?
C8 C9 C11 O12 -175.4(2) . . . . ?
C10 C9 C11 O12 2.4(3) . . . . ?
C8 C9 C11 O13 4.8(3) . . . . ?
C10 C9 C11 O13 -177.44(17) . . . . ?
O12 C11 O13 C14 1.1(3) . . . . ?
C9 C11 O13 C14 -179.07(18) . . . . ?
C6 N1 C15 O16 164.03(16) . . . . ?
C2 N1 C15 O16 -17.8(2) . . . . ?
C6 N1 C15 C17 -18.3(2) . . . . ?
C2 N1 C15 C17 159.94(15) . . . . ?
O16 C15 C17 C22 134.59(17) . . . . ?
N1 C15 C17 C22 -43.2(2) . . . . ?
O16 C15 C17 C18 -41.6(2) . . . . ?
N1 C15 C17 C18 140.67(15) . . . . ?
C22 C17 C18 C19 3.9(2) . . . . ?
C15 C17 C18 C19 -179.85(14) . . . . ?
C17 C18 C19 C20 -1.8(2) . . . . ?
C18 C19 C20 C21 -1.7(2) . . . . ?
C18 C19 C20 N23 175.86(14) . . . . ?
C19 C20 C21 C22 2.9(2) . . . . ?
N23 C20 C21 C22 -174.64(14) . . . . ?
C20 C21 C22 C17 -0.7(2) . . . . ?
C18 C17 C22 C21 -2.6(2) . . . . ?
C15 C17 C22 C21 -178.76(15) . . . . ?
C19 C20 N23 O25 163.94(15) . . . . ?
C21 C20 N23 O25 -18.4(2) . . . . ?
C19 C20 N23 O24 -17.8(2) . . . . ?
C21 C20 N23 O24 159.83(15) . . . . ?
