#------------------------------------------------------------------------------
#$Date: 2020-10-04 06:15:56 +0300 (Sun, 04 Oct 2020) $
#$Revision: 257084 $
#$URL: file:///home/coder/svn-repositories/cod/cif/4/51/77/4517790.cif $
#------------------------------------------------------------------------------
#
# This file is available in the Crystallography Open Database (COD),
# http://www.crystallography.net/
#
# All data on this site have been placed in the public domain by the
# contributors.
#
data_4517790
loop_
_publ_author_name
'Febriansyah, Benny'
'Koh, Teck Ming'
'Rana, Prem Jyoti Singh'
'Hooper, Thomas J. N.'
'Ang, Zhi Zhong'
'Li, Yongxin'
'Bruno, Annalisa'
'Gr\"atzel, Michael'
'England, Jason'
'Mhaisalkar, Subodh G.'
'Mathews, Nripan'
_publ_section_title
;
 Hybrid 2D [Pb(CH3NH2)I2]n Coordination Polymer Precursor for Scalable
 Perovskite Deposition
;
_journal_name_full               'ACS Energy Letters'
_journal_page_first              2305
_journal_page_last               2312
_journal_paper_doi               10.1021/acsenergylett.0c00781
_journal_year                    2020
_chemical_formula_sum            'C H5 I2 N Pb'
_chemical_formula_weight         492.05
_space_group_crystal_system      orthorhombic
_space_group_IT_number           64
_space_group_name_Hall           '-C 2ac 2'
_space_group_name_H-M_alt        'C m c e'
_atom_sites_solution_hydrogens   geom
_atom_sites_solution_primary     dual
_cell_angle_alpha                90
_cell_angle_beta                 90
_cell_angle_gamma                90
_cell_formula_units_Z            8
_cell_length_a                   8.8397(7)
_cell_length_b                   19.7094(18)
_cell_length_c                   8.4762(6)
_cell_measurement_reflns_used    1840
_cell_measurement_temperature    296.(2)
_cell_measurement_theta_max      26.0778
_cell_measurement_theta_min      3.4868
_cell_volume                     1476.8(2)
_computing_cell_refinement       'SAINT V8.38A (Bruker AXS Inc., 2017)'
_computing_data_collection       'APEX3 (Bruker AXS Inc., 2018)'
_computing_data_reduction        'SAINT V8.38A (Bruker AXS Inc., 2017)'
_computing_molecular_graphics    'XP (Bruker AXS Inc., 2018)'
_computing_publication_material  'APEX3 (Bruker AXS Inc., 2018)'
_computing_structure_refinement  'SHELXL-2017/1 (Sheldrick, 2017)'
_computing_structure_solution    'XT, VERSION 2014/5'
_diffrn_ambient_temperature      296.(2)
_diffrn_detector_area_resol_mean 7.4074
_diffrn_measured_fraction_theta_full 0.999
_diffrn_measured_fraction_theta_max 0.999
_diffrn_measurement_device_type  'Photon II CPADs detector'
_diffrn_measurement_method       'phi and omega scans'
_diffrn_radiation_monochromator  'Multilayer Mirror'
_diffrn_radiation_type           MoK\a
_diffrn_radiation_wavelength     0.71073
_diffrn_reflns_av_R_equivalents  0.0746
_diffrn_reflns_av_unetI/netI     0.0462
_diffrn_reflns_limit_h_max       12
_diffrn_reflns_limit_h_min       -12
_diffrn_reflns_limit_k_max       27
_diffrn_reflns_limit_k_min       -27
_diffrn_reflns_limit_l_max       9
_diffrn_reflns_limit_l_min       -11
_diffrn_reflns_number            8371
_diffrn_reflns_theta_full        30.07
_diffrn_reflns_theta_max         30.07
_diffrn_reflns_theta_min         3.17
_diffrn_source                   'Incoatec microfocus source'
_diffrn_source_type              'Bruker D8 Quest'
_exptl_absorpt_coefficient_mu    31.092
_exptl_absorpt_correction_T_max  0.57
_exptl_absorpt_correction_T_min  0.25
_exptl_absorpt_correction_type   multi-scan
_exptl_absorpt_process_details
;
SADABS-2016/2 - Bruker AXS area detector scaling and absorption correction
;
_exptl_crystal_colour            yellow
_exptl_crystal_density_diffrn    4.426
_exptl_crystal_density_method    'not measured'
_exptl_crystal_description       block
_exptl_crystal_F_000             1648
_exptl_crystal_size_max          0.060
_exptl_crystal_size_mid          0.040
_exptl_crystal_size_min          0.020
_refine_diff_density_max         1.483
_refine_diff_density_min         -1.832
_refine_ls_extinction_method     none
_refine_ls_goodness_of_fit_ref   1.036
_refine_ls_hydrogen_treatment    constr
_refine_ls_matrix_type           full
_refine_ls_number_parameters     29
_refine_ls_number_reflns         1153
_refine_ls_number_restraints     0
_refine_ls_restrained_S_all      1.036
_refine_ls_R_factor_all          0.0685
_refine_ls_R_factor_gt           0.0382
_refine_ls_shift/su_max          0.001
_refine_ls_shift/su_mean         0.000
_refine_ls_structure_factor_coef Fsqd
_refine_ls_weighting_details
'w=1/[\s^2^(Fo^2^)+(0.0239P)^2^+26.7833P] where P=(Fo^2^+2Fc^2^)/3'
_refine_ls_weighting_scheme      calc
_refine_ls_wR_factor_gt          0.0673
_refine_ls_wR_factor_ref         0.0769
_reflns_number_gt                822
_reflns_number_total             1153
_reflns_threshold_expression     'I > 2\s(I)'
_cod_data_source_file            nz0c00781_si_007.cif
_cod_data_source_block           je558m
_cod_depositor_comments
;
The following automatic conversions were performed:

data item '_exptl_absorpt_correction_type' value 'Multi-Scan' was
changed to 'multi-scan' in accordance with the
/home/data/users/saulius/crontab/automatic-downloads/rss-feeds/ACS/lib/dictionaries/cif_core.dic
dictionary named 'cif_core.dic' version 2.4.2 last updated on
2011-04-26.

Automatic conversion script
Id: cif_fix_values 7556 2019-12-06 15:28:31Z antanas 

 Adding full bibliography for 4517790--4517791.cif.
;
_cod_original_sg_symbol_H-M      'C m c a'
_cod_database_code               4517790
_shelx_res_file
;

TITL je558m in Cmca
    je558m.res
    created by SHELXL-2017/1 at 14:50:03 on 27-Mar-2019
CELL 0.71073   8.83970  19.70940   8.47620  90.0000  90.0000  90.0000
ZERR    8.00   0.00070   0.00180   0.00060   0.0000   0.0000   0.0000
LATT 7
SYMM -X, 1/2-Y, 1/2+Z
SYMM -X, 1/2+Y, 1/2-Z
SYMM X, -Y, -Z
SFAC C  H  I  N  Pb
UNIT 8  40  16  8  8
L.S. 10
ACTA
BOND $H
FMAP 2
PLAN 5
SIZE 0.02 0.04 0.06
TEMP 23
WGHT    0.023900   26.783300
FVAR       0.03085
C1    1    0.500000    0.629790    0.729726    10.50000    0.07839    0.06535 =
         0.02589   -0.00073    0.00000    0.00000
AFIX  33
H1C   2    0.500000    0.666626    0.803827    10.50000   -1.50000
H1D   2    0.411328    0.602489    0.745403    10.50000   -1.50000
H1E   2    0.588672    0.602489    0.745403    10.50000   -1.50000
AFIX   0
I1    3    0.239661    0.500000    0.500000    10.50000    0.03032    0.04785 =
         0.03225    0.00295    0.00000    0.00000
I2    3    0.750000    0.699848    0.250000    10.50000    0.04102    0.03594 =
         0.07069    0.00000    0.01783    0.00000
N1    4    0.500000    0.656771    0.569577    10.50000    0.08333    0.04542 =
         0.03809   -0.00058    0.00000    0.00000
AFIX  23
H1A   2    0.580587    0.683681    0.562763    10.50000   -1.20000
H1B   2    0.419413    0.683681    0.562763    10.50000   -1.20000
AFIX   0
PB1   5    0.500000    0.587529    0.329272    10.50000    0.03503    0.03795 =
         0.03299    0.00150    0.00000    0.00000
HKLF 4




REM  je558m in Cmca
REM R1 =  0.0382 for     822 Fo > 4sig(Fo)  and  0.0685 for all    1153 data
REM     29 parameters refined using      0 restraints

END

WGHT      0.0237     26.9116

REM Highest difference peak  1.483,  deepest hole -1.832,  1-sigma level  0.322
Q1    1   0.5000  0.5406  0.3414  10.50000  0.05    1.48
Q2    1   0.5000  0.7778  0.7858  10.50000  0.05    1.24
Q3    1   0.2362  0.5520  0.5017  11.00000  0.05    1.23
Q4    1   0.0000  0.5323  0.4953  10.50000  0.05    1.22
Q5    1   0.7268  0.6803  0.1766  11.00000  0.05    1.20
;
_shelx_res_checksum              62958
_shelx_hkl_file
;
  -2   0   0    8.87    0.78
  -2   0   0    9.49    0.84
   2   0   0    9.31    0.76
   2   0   0   10.59    0.86
   4   0   0  992.17   23.85
   4   0   0  977.63   24.19
  -4   0   0  956.15   23.99
  -4   0   0 1000.00   24.32
   6   0   0    4.70    1.11
   6   0   0    3.67    1.14
  -6   0   0    1.73    0.93
  -6   0   0    2.67    1.12
  -8   0   0  232.27    8.55
   8   0   0  222.38    7.90
   8   0   0  220.32    8.33
  -8   0   0  223.73    8.71
 -10   0   0    1.60    1.61
  10   0   0   -0.58    1.30
  10   0   0   -0.31    1.68
 -12   0   0   31.55    4.48
  12   0   0   32.90    3.93
  -1   1   0    0.26    0.17
   1  -1   0   -0.11    0.06
   1  -1   0   -0.07    0.12
  -1   1   0    0.03    0.14
   1   1   0    0.17    0.16
  -1  -1   0    0.24    0.16
  -1  -1   0   -0.21    0.10
  -3  -1   0    0.75    0.48
   3   1   0    0.24    0.48
  -3   1   0   -0.06    0.48
  -3   1   0    0.02    0.45
   3  -1   0    0.06    0.43
   3  -1   0   -0.15    0.43
  -3  -1   0   -0.58    0.41
   3   1   0    0.88    0.53
   5   1   0   -0.53    0.51
  -5   1   0    0.35    0.74
  -5  -1   0    0.34    0.61
  -5   1   0    0.53    0.61
   5  -1   0    0.55    0.64
  -5  -1   0    1.08    0.77
   5   1   0   -0.05    0.63
   5  -1   0   -0.56    0.60
   7  -1   0    0.09    0.91
   7   1   0   -0.99    0.80
  -7  -1   0   -0.04    0.89
   7  -1   0   -1.67    0.66
  -7   1   0   -0.35    0.96
   7   1   0    0.61    0.96
  -7   1   0    1.45    1.06
  -7  -1   0   -0.51    0.96
  -9  -1   0   -0.32    1.24
   9   1   0    0.73    1.19
   9   1   0    1.80    1.29
   9  -1   0   -0.01    1.16
   9  -1   0    1.16    1.21
  11  -1   0   -1.92    1.39
 -11  -1   0   -0.80    1.57
  11   1   0    6.23    2.57
 -11   1   0   -0.37    1.74
  11   1   0   -2.11    1.28
  -2   2   0   25.71    1.37
   2   2   0   24.13    1.37
   2   2   0   26.30    1.28
  -2   2   0   25.66    1.39
  -2  -2   0   27.76    1.42
   2  -2   0   25.37    1.35
   2  -2   0   23.98    1.35
  -2  -2   0   24.83    1.28
  -4  -2   0   59.93    2.84
   4  -2   0   54.28    2.57
   4   2   0   57.55    2.56
  -4  -2   0   60.71    2.72
   4  -2   0   60.16    2.81
   4   2   0   57.22    2.78
  -4   2   0   55.95    2.79
  -4   2   0   56.98    2.71
   6  -2   0   11.44    1.79
   6  -2   0   13.02    1.82
  -6   2   0   11.34    2.00
   6   2   0    9.31    1.48
   6   2   0    8.94    1.65
  -6  -2   0   12.71    1.86
  -6   2   0   11.92    1.80
  -6  -2   0   11.80    1.87
  -8  -2   0   17.78    2.61
   8   2   0   21.95    2.59
  -8   2   0   18.02    2.69
   8  -2   0   15.80    2.30
  -8   2   0   13.82    2.51
  -8  -2   0   28.70    2.88
   8  -2   0   17.80    2.34
   8   2   0   27.12    2.56
  10  -2   0   -1.26    1.59
  10   2   0    2.54    1.55
  10   2   0    1.56    1.79
 -10  -2   0    1.46    1.60
  10  -2   0    2.51    1.47
 -10   2   0    2.40    1.68
 -12  -2   0   -0.94    1.77
  12   2   0    6.76    2.18
 -12   2   0    0.99    2.11
  12  -2   0    3.79    2.02
   1  -3   0   -0.06    0.26
   1   3   0    0.02    0.37
   1   3   0    0.36    0.28
  -1   3   0   -0.20    0.25
  -1  -3   0    0.10    0.27
   1  -3   0   -0.20    0.33
  -1  -3   0    0.49    0.39
   3  -3   0    0.05    0.48
  -3   3   0    0.17    0.47
  -3   3   0   -0.21    0.47
   3   3   0    1.15    0.63
   3  -3   0   -0.40    0.48
  -3  -3   0   -0.60    0.39
   3   3   0   -0.21    0.44
  -3  -3   0   -0.13    0.50
   5  -3   0   -0.04    0.68
  -5  -3   0    0.46    0.66
   5   3   0   -0.47    0.56
   5  -3   0   -0.03    0.63
  -5  -3   0    0.06    0.72
  -5   3   0   -0.96    0.63
   5   3   0   -0.93    0.59
  -5   3   0    0.07    0.70
  -7   3   0    2.51    1.27
  -7   3   0    0.15    1.06
   7  -3   0   -0.24    0.91
  -7  -3   0    1.22    1.12
  -7  -3   0    0.01    1.06
   7   3   0    0.21    0.88
   7   3   0    2.46    1.22
   7  -3   0   -0.49    0.94
  -9   3   0    1.79    1.42
   9  -3   0    0.87    1.31
   9   3   0   -0.01    1.06
  -9  -3   0    0.10    1.19
   9  -3   0    0.88    1.22
   9   3   0    0.26    1.29
  11   3   0   -0.91    1.43
  11   3   0    3.86    3.86
 -11   3   0   -1.41    1.45
  11  -3   0   -0.52    1.28
 -11  -3   0    0.16    1.58
   0  -4   0    6.07    0.75
   0   4   0    5.05    0.65
   2  -4   0  568.12   14.60
  -2  -4   0  551.93   14.56
   2   4   0  590.59   14.73
  -2  -4   0  595.01   14.30
   2  -4   0  571.24   14.32
  -2   4   0  565.77   14.43
  -2   4   0  574.11   14.58
   2   4   0  593.36   14.24
  -4   4   0    4.78    1.12
   4   4   0    4.67    1.12
  -4  -4   0    5.58    1.12
   4  -4   0    3.45    0.98
  -4  -4   0    3.67    1.04
   4   4   0    5.12    1.01
   4  -4   0    3.24    0.97
  -4   4   0    5.47    1.15
   6  -4   0  175.73    6.41
   6   4   0  172.12    6.18
  -6   4   0  172.17    6.79
  -6   4   0  177.27    7.20
   6   4   0  182.64    6.78
   6  -4   0  176.88    6.54
  -6  -4   0  184.08    6.57
  -6  -4   0  179.19    6.79
  -8   4   0    0.96    1.28
   8  -4   0    1.34    1.25
   8  -4   0    0.60    1.21
  -8  -4   0    0.51    1.13
  -8  -4   0    0.28    1.28
   8   4   0    1.39    1.17
   8   4   0    2.72    1.38
  -8   4   0    1.44    1.43
 -10  -4   0   33.22    3.61
  10   4   0   29.67    3.42
  10   4   0   24.21    3.09
  10  -4   0   28.43    3.51
  10  -4   0   28.89    3.41
 -10   4   0   35.96    3.87
  12  -4   0   -3.51    1.64
 -12  -4   0   -2.44    1.51
  12   4   0   -0.88    1.80
 -12   4   0    0.46    1.86
  -1  -5   0    0.46    0.47
   1   5   0   -0.12    0.40
   1  -5   0    0.45    0.48
  -1   5   0    0.85    0.52
  -1  -5   0    0.76    0.73
   1   5   0    0.46    0.89
  -3  -5   0   -0.54    0.52
   3  -5   0    0.05    0.52
  -3  -5   0   -0.56    0.45
   3   5   0   -0.10    0.58
   3  -5   0   -0.78    0.53
  -3   5   0   -0.48    0.54
  -3   5   0    0.19    0.53
   3   5   0    0.39    0.52
  -5  -5   0    0.49    0.81
  -5  -5   0   -0.08    0.66
  -5   5   0   -0.33    0.77
   5  -5   0   -0.54    0.72
  -5   5   0    0.50    0.70
   5   5   0    0.18    0.76
   5  -5   0   -0.99    0.66
   7  -5   0   -0.43    1.01
  -7  -5   0   -0.28    1.02
   7   5   0    0.65    0.95
  -7   5   0   -0.21    0.99
  -7   5   0    1.79    1.09
  -7  -5   0   -1.11    0.86
   7   5   0    0.96    1.18
   7  -5   0   -2.24    0.94
   9  -5   0   -2.06    1.47
   9   5   0   -0.52    1.33
  -9   5   0   -1.94    1.06
  -9  -5   0   -0.89    1.22
   9  -5   0   -0.72    1.09
   9   5   0    2.11    1.46
  11   5   0   -0.79    1.57
 -11   5   0    0.66    1.75
 -11  -5   0    2.75    1.82
  11  -5   0   -0.44    1.50
   0  -6   0    4.52    0.85
   0   6   0    4.16    0.75
   2   6   0  637.60   16.83
   2  -6   0  589.97   16.59
  -2  -6   0  647.82   15.88
  -2  -6   0  610.90   16.48
   2  -6   0  659.63   15.99
  -2   6   0  643.44   16.07
   2   6   0  632.31   15.80
  -4   6   0    8.27    1.44
   4  -6   0    6.77    1.26
   4  -6   0    8.26    1.54
  -4  -6   0    6.50    1.25
  -4   6   0    6.30    1.33
   4   6   0    6.69    1.14
  -4  -6   0    7.00    1.35
   4   6   0    5.55    1.30
   6   6   0  231.49    9.53
   6  -6   0  228.40    8.08
  -6   6   0  250.38    8.41
   6   6   0  233.30    7.70
   6  -6   0  213.29    9.07
  -6  -6   0  236.76    8.12
  -6  -6   0  224.30    8.21
  -6   6   0  243.98    8.60
  -8   6   0    1.92    2.46
   8   6   0    3.76    1.55
   8  -6   0    4.57    1.62
  -8   6   0    2.87    1.52
   8  -6   0    2.72    1.54
   8   6   0    5.17    1.71
  -8  -6   0    4.87    1.68
  -8  -6   0    2.15    1.45
  10   6   0   39.26    4.08
  10   6   0   44.19    4.22
 -10  -6   0   52.16    4.55
  10  -6   0   33.89    4.01
  10  -6   0   44.72    3.93
 -10   6   0   46.34    4.43
 -12   6   0   -0.98    1.60
  12   6   0    0.14    3.44
  12  -6   0   -0.86    1.51
 -12  -6   0    0.50    1.85
   1  -7   0    0.38    0.58
   1   7   0   -0.35    0.99
   1   7   0    0.18    0.53
  -1   7   0    0.07    0.48
  -1  -7   0    0.30    0.53
   3   7   0    0.00    0.76
   3   7   0    0.60    0.64
  -3  -7   0   -0.07    0.66
   3  -7   0    0.08    0.62
   3  -7   0    1.66    1.03
  -3  -7   0    1.14    0.79
  -3   7   0    0.82    0.68
  -5  -7   0    0.89    0.81
   5  -7   0    0.72    0.89
  -5  -7   0    0.84    0.98
  -5   7   0    0.41    0.86
  -5   7   0    1.68    1.07
   5   7   0    0.33    0.94
   5  -7   0    0.17    0.79
   5   7   0    0.34    0.83
  -7  -7   0    0.80    1.17
  -7   7   0    0.09    1.05
   7   7   0   -1.27    0.98
  -7  -7   0   -1.18    1.00
   7  -7   0   -0.98    0.90
   7  -7   0    0.70    1.26
   7   7   0    2.40    1.39
  -7   7   0   -0.76    0.97
   9  -7   0   -1.24    1.15
   9  -7   0    3.96    1.86
  -9   7   0   -0.39    1.21
   9   7   0   -0.12    1.45
  -9  -7   0   -0.37    1.28
   9   7   0    0.19    2.44
  11  -7   0    0.39    1.42
 -11  -7   0   -0.60    1.52
  11   7   0   -1.55    1.46
 -11   7   0    0.02    1.78
   0   8   0    7.10    1.13
   0  -8   0    6.06    1.05
  -2  -8   0   23.02    2.15
   2   8   0   23.70    1.70
  -2   8   0   22.03    1.77
   2  -8   0   24.10    1.80
   2   8   0   25.26    2.56
   2  -8   0   22.50    2.40
  -2  -8   0   23.42    1.76
  -4   8   0    6.21    1.46
  -4  -8   0    4.50    1.31
  -4   8   0    4.71    1.25
   4   8   0    5.28    1.17
   4  -8   0    5.95    1.53
  -4  -8   0    5.15    1.28
   4   8   0    3.68    1.28
   4  -8   0    5.05    1.25
   6  -8   0   12.82    2.31
  -6   8   0   10.18    2.02
   6   8   0   11.17    1.80
  -6  -8   0    9.86    1.90
   6   8   0    8.42    1.89
  -6   8   0   11.47    2.11
   6  -8   0    9.30    1.89
  -6  -8   0    9.60    1.95
   8  -8   0    1.55    1.73
   8   8   0    3.16    1.51
   8   8   0    0.60    1.55
   8  -8   0    2.97    1.54
  -8  -8   0    2.53    1.55
  -8   8   0    3.69    1.73
  10  -8   0    1.23    1.42
 -10  -8   0    1.50    1.82
  10   8   0    2.16    1.72
  10   8   0    5.51    2.04
 -10   8   0    1.54    1.92
   1   9   0   -0.10    0.55
  -1   9   0   -0.06    0.52
  -1  -9   0   -0.20    0.62
   1  -9   0    0.11    0.65
   1   9   0   -0.83    1.16
   3  -9   0    0.05    0.70
  -3  -9   0   -0.31    0.78
  -3   9   0    0.82    0.78
  -3  -9   0   -0.36    0.65
   3  -9   0   -0.73    0.94
   3   9   0   -0.13    1.04
  -5  -9   0    0.10    0.99
   5   9   0    0.65    0.88
  -5  -9   0   -2.01    0.76
   5  -9   0   -1.59    1.05
   5  -9   0    0.13    0.88
  -5   9   0   -0.98    0.90
  -5   9   0   -0.37    0.95
   7  -9   0    0.10    1.53
   7   9   0    2.30    1.51
  -7  -9   0    0.37    1.20
  -7  -9   0    0.60    1.19
   7  -9   0   -0.68    1.02
  -7   9   0    0.41    1.22
  -7   9   0    1.12    1.29
   7   9   0   -0.26    1.18
  -9  -9   0    0.84    1.45
   9  -9   0    6.28    2.27
  -9   9   0    1.14    1.48
   9  -9   0   -0.95    1.18
   9   9   0   -0.84    1.38
   9   9   0   -0.36    1.49
 -11   9   0   -3.22    1.65
 -11  -9   0    1.71    2.03
  11  -9   0    2.48    1.71
  11   9   0   -0.64    1.82
   0 -10   0  529.14   14.10
   2 -10   0   41.97    2.56
   2 -10   0   40.53    3.57
  -2  10   0   41.59    2.58
   2  10   0   44.09    3.93
   2  10   0   43.79    2.59
  -2 -10   0   41.46    2.54
   4 -10   0  323.61    9.97
   4  10   0  312.55   11.00
   4  10   0  313.63    9.60
  -4  10   0  315.82   10.19
  -4 -10   0  331.20    9.94
  -4 -10   0  312.04   10.56
   4 -10   0  308.81   10.91
  -6  10   0   16.43    2.60
   6 -10   0   15.18    2.83
  -6 -10   0   17.06    4.12
   6  10   0   18.21    2.19
   6  10   0   11.47    2.45
   6 -10   0   14.56    2.31
  -6 -10   0   14.07    2.34
  -8  10   0   78.47    5.27
   8  10   0   89.05    4.98
   8 -10   0   89.15    5.18
  -8 -10   0   97.74    5.58
   8  10   0   89.29    5.76
   8 -10   0   85.15    5.81
 -10  10   0    3.09    1.94
  10  10   0    3.06    1.95
  10 -10   0    2.53    1.65
 -10 -10   0    1.35    1.81
  -1 -11   0    0.93    0.80
   1 -11   0    0.35    0.83
   1  11   0    0.43    0.71
  -1  11   0   -0.02    0.64
  -3 -11   0    0.63    1.08
  -3  11   0    0.42    0.79
   3  11   0   -0.59    1.34
   3 -11   0    1.69    1.07
  -3 -11   0    0.55    0.97
   3 -11   0    2.38    1.76
   3  11   0   -0.65    0.69
  -5 -11   0   -1.49    0.96
   5 -11   0   -1.32    1.32
   5  11   0   -1.12    1.25
  -5 -11   0    2.52    1.43
  -5  11   0    0.73    1.07
   5  11   0   -0.90    0.74
   5 -11   0    0.69    1.09
   7  11   0    1.16    1.53
   7  11   0    3.14    1.45
   7 -11   0    3.72    1.89
  -7 -11   0    0.71    1.24
   7 -11   0   -0.85    1.14
   9  11   0   -1.37    1.72
   9  11   0   -1.56    1.42
   9 -11   0    0.40    1.40
  -9 -11   0   -0.04    1.55
  -9  11   0    0.97    1.40
  11 -11   0    0.63    1.70
 -11  11   0   -1.77    1.60
 -11 -11   0   -3.22    1.80
   0  12   0  129.49    5.15
   0 -12   0  129.69    5.07
  -2  12   0   78.70    3.92
   2  12   0   81.90    3.92
  -2 -12   0   83.68    3.93
   2  12   0   68.99    5.66
   2 -12   0   82.04    4.00
   4  12   0   79.89    4.03
   4 -12   0   81.13    4.21
  -4  12   0   86.66    4.50
   4  12   0   69.58    5.14
  -4 -12   0   88.43    4.28
   4 -12   0   77.58    5.35
  -4 -12   0   74.58    4.64
  -6  12   0   30.19    3.20
   6  12   0   35.88    3.80
   6 -12   0   34.06    4.33
   6  12   0   33.11    2.95
  -6 -12   0   34.54    3.39
   6 -12   0   30.75    3.08
  -6 -12   0   32.38    3.03
   8  12   0   18.56    3.28
   8 -12   0   16.57    3.53
  -8 -12   0   20.28    3.06
   8  12   0   24.67    3.14
   8 -12   0   26.85    3.06
  10 -12   0    4.68    1.88
 -10 -12   0    5.91    2.41
  10  12   0    8.59    2.71
   1  13   0   -0.06    0.84
  -1  13   0    1.43    0.92
   3 -13   0    3.87    1.91
   3 -13   0   -0.08    0.97
   3  13   0   -0.65    0.86
  -3  13   0    0.05    0.84
  -3 -13   0   -1.32    0.85
   3  13   0   -0.57    1.58
   5 -13   0   -3.12    1.59
   5 -13   0    0.00    1.11
   5  13   0   -0.97    1.47
  -5 -13   0    2.38    1.35
  -5  13   0    1.56    1.19
   5  13   0    0.39    1.15
  -5 -13   0   -0.11    1.11
   7 -13   0    0.57    1.30
  -7 -13   0    1.07    1.46
   7 -13   0   -2.10    2.17
   7  13   0   -0.76    1.48
   7  13   0   -1.38    1.49
   9  13   0    0.77    1.97
   9 -13   0    2.76    1.74
  11 -13   0   -0.42    1.76
 -11 -13   0   -0.40    1.95
  11  13   0    0.69    2.04
   0 -14   0   73.56    3.89
   0  14   0   65.94    3.76
  -2  14   0   20.87    2.31
   2  14   0   25.67    2.41
  -2 -14   0   25.75    2.49
   2  14   0   20.30    4.17
   2 -14   0   25.02    2.59
   4  14   0   38.82    4.62
   4 -14   0   43.06    3.34
  -4 -14   0   43.35    3.31
   4  14   0   40.62    3.22
   4 -14   0   33.10    4.67
   6  14   0   11.20    3.01
  -6 -14   0   11.78    2.23
   6 -14   0    5.76    2.85
   6 -14   0   12.81    2.34
   6  14   0   10.20    2.46
   8  14   0    9.17    2.63
  -8 -14   0    9.95    2.49
   8  14   0   14.20    4.34
   8 -14   0   14.35    2.74
 -10 -14   0    0.76    1.89
  10 -14   0   -0.30    1.62
  10  14   0    0.17    4.04
   1  15   0   -2.43    2.02
   1  15   0    0.54    1.11
   1 -15   0    0.26    1.08
  -1 -15   0   -0.11    1.02
  -1  15   0   -1.30    0.80
   3 -15   0    1.06    2.10
  -3 -15   0    0.87    1.24
   3  15   0    2.41    2.27
   3 -15   0   -0.47    1.08
   3  15   0   -1.03    0.95
  -3  15   0    0.33    1.18
   5 -15   0   -1.11    2.34
   5  15   0   -0.52    1.76
  -5 -15   0    0.60    1.25
   5 -15   0    0.78    1.32
   5  15   0   -0.17    1.33
  -7 -15   0   -0.84    1.38
   7 -15   0    0.04    1.26
   7  15   0    2.74    2.16
   9 -15   0    1.13    1.88
  -9 -15   0   -1.55    1.44
   9  15   0    0.12    2.19
   0  16   0    0.67    2.32
   0 -16   0    1.82    1.39
   0  16   0    2.16    1.33
   2  16   0  128.48    9.35
   2  16   0  137.36    6.12
   2 -16   0  142.94    6.20
  -2 -16   0  141.52    6.12
   4  16   0    1.47    1.40
  -4 -16   0   -0.02    1.16
   4 -16   0    3.04    2.71
   4 -16   0    0.09    1.16
   4  16   0    2.15    2.27
  -4  16   0    3.31    1.38
  -6 -16   0   56.01    4.18
   6  16   0   49.15    5.14
   6 -16   0   50.59    4.15
   6  16   0   54.99    4.19
   8 -16   0    3.72    1.75
   8  16   0   -1.92    1.83
  10 -16   0   11.52    2.63
  10  16   0   11.27    3.42
 -10 -16   0    8.30    2.64
   1 -17   0   -0.18    1.25
   1  17   0    0.05    1.25
  -1 -17   0   -0.33    1.13
   1  17   0   -0.59    2.82
  -1  17   0   -0.62    1.08
  -3  17   0    1.10    1.31
   3 -17   0   -1.38    2.37
  -3 -17   0    0.01    1.16
   3 -17   0    0.34    1.36
   3  17   0    0.11    1.33
   3  17   0    2.20    2.69
   5  17   0    1.96    2.28
  -5 -17   0   -1.51    0.93
   5  17   0    1.42    1.67
   5 -17   0    0.17    1.37
   7  17   0   -0.18    2.07
   7 -17   0    0.21    1.22
  -7 -17   0    0.69    1.32
   9  17   0   -1.62    2.37
   9 -17   0    0.08    1.60
   0  18   0   49.36    5.92
   0  18   0   34.81    3.08
   0 -18   0   31.56    3.18
   2  18   0   28.50    3.08
  -2  18   0   26.89    3.15
   2 -18   0   32.55    3.11
   2  18   0   20.85    5.07
  -2 -18   0   32.60    3.08
   4 -18   0   22.92    3.03
  -4 -18   0   15.78    2.58
   4  18   0   22.45    4.80
   4  18   0   25.34    2.94
  -6 -18   0   16.43    2.80
   6 -18   0    8.41    2.23
   6  18   0   12.78    3.41
   8 -18   0    5.57    2.08
  -8 -18   0    5.80    2.28
   8  18   0    5.96    4.73
   1  19   0   -0.82    1.34
  -1 -19   0   -0.03    1.18
   1  19   0   -2.49    2.41
   1 -19   0   -1.98    0.90
   3 -19   0    1.17    1.35
   3  19   0   -3.52    2.07
  -3 -19   0    1.19    1.40
  -5 -19   0    1.42    1.34
   5 -19   0   -1.47    1.30
   5  19   0   -1.70    2.18
   7  19   0    0.57    2.44
  -7 -19   0   -1.98    1.32
   9  19   0   -4.20    2.27
  -9 -19   0   -2.43    1.73
   9 -19   0    3.57    2.14
   0  20   0   53.13    6.36
   0 -20   0   34.98    3.40
   2  20   0   33.49    6.21
  -2 -20   0   32.06    3.38
   2 -20   0   35.26    3.46
   4 -20   0   20.24    3.04
  -4 -20   0   20.44    3.01
   4  20   0   20.43    4.80
   6  20   0   16.40    4.38
  -6 -20   0   12.31    2.88
   8 -20   0    6.25    2.24
  -8 -20   0    6.42    2.45
   8  20   0   -0.42    2.79
   1  21   0   -0.04    2.94
  -1 -21   0    0.37    1.39
  -1  21   0   -1.21    2.48
   1 -21   0    0.52    1.39
  -3 -21   0    0.57    1.55
   3 -21   0   -2.24    1.21
   3  21   0    3.02    3.08
   5  21   0   -1.05    2.62
   5 -21   0   -2.20    2.06
  -5 -21   0    1.16    1.74
   7  21   0    3.00    2.83
  -7 -21   0    1.08    1.70
   7 -21   0    0.01    1.86
   0  22   0   25.41    5.40
   0 -22   0   12.95    2.54
   2  22   0   19.33    5.09
  -2 -22   0   15.17    2.78
   2 -22   0   15.17    2.67
   4  22   0    8.87    4.16
  -4 -22   0    8.90    2.43
   6 -22   0    7.85    2.20
   6  22   0    7.48    3.45
  -6 -22   0    8.56    2.45
   1 -23   0    0.58    1.52
  -1 -23   0    0.69    2.30
  -1  23   0    1.54    3.04
   1  23   0    4.08    3.28
   3 -23   0    0.79    1.67
  -3 -23   0   -0.54    1.46
  -5 -23   0   -1.66    1.48
   5 -23   0   -0.35    1.62
   5  23   0    3.43    3.51
   7 -23   0   -0.72    1.71
   0 -24   0   25.10    3.70
   0  24   0   38.37    6.87
   2  24   0   -0.46    3.10
   2 -24   0   -0.11    1.50
  -2  24   0   -0.27    2.47
  -2 -24   0    0.09    1.67
   4 -24   0   18.50    3.25
   4  24   0   19.08    5.38
  -4 -24   0   15.66    2.92
  -6 -24   0   -0.31    1.69
   6 -24   0    1.38    1.95
   6  24   0   -3.82    3.10
   1 -25   0   -2.79    1.32
  -1 -25   0    0.55    1.77
   1  25   0   -3.16    2.71
  -1  25   0   -3.94    2.23
   3 -25   0    0.73    1.62
  -3 -25   0    0.87    1.87
   3  25   0    1.21    3.44
  -5 -25   0    0.39    1.73
   5  25   0    3.51    3.91
   5 -25   0    1.26    1.92
   0 -26   0   -0.10    1.79
   0  26   0   -1.36    3.83
  -2 -26   0    5.09    2.33
   2  26   0    7.16    4.40
  -2  26   0    4.10    3.22
   2 -26   0    5.01    2.32
   4  26   0    5.28    4.57
   4 -26   0    2.91    1.84
  -4 -26   0    1.23    1.89
   1 -27   0   -0.54    1.85
  -1 -27   0   -0.04    1.66
  -1  27   0   -0.59    2.98
   1  27   0    6.22    3.97
   2   0   1    0.00    0.21
  -2   0   1    0.12    0.42
  -2   0  -1    0.05    0.26
   2   0  -1    0.18    0.43
   2   0  -1    0.54    0.46
  -2   0  -1    0.33    0.27
  -2   0   1    0.04    0.41
   2   0   1    0.10    0.21
   4   0   1   -0.05    0.44
  -4   0  -1    0.16    0.51
   4   0  -1   -0.94    0.53
  -4   0   1    1.07    0.67
   4   0  -1    0.21    0.62
   4   0   1    0.27    0.45
  -4   0  -1   -0.29    0.47
  -4   0   1    0.15    0.62
   6   0   1    0.02    0.67
  -6   0  -1   -0.04    0.80
   6   0  -1   -0.66    0.72
   6   0  -1    1.58    1.11
  -6   0  -1    0.35    0.79
   6   0   1   -0.25    0.72
  -6   0   1    1.27    0.88
  -8   0  -1    3.38    1.49
   8   0   1    1.35    1.10
   8   0  -1   -0.26    1.08
  -8   0   1    0.48    1.26
   8   0   1    0.19    0.98
  -8   0  -1    2.60    1.34
  -8   0   1   -0.67    1.25
   8   0  -1    2.22    1.30
  10   0  -1    3.25    1.84
 -10   0  -1   -0.57    1.18
  10   0   1    0.13    1.11
  10   0   1   -3.22    1.11
 -10   0   1    1.73    1.51
  12   0  -1    0.05    2.00
 -12   0   1   -1.99    1.69
 -12   0  -1    0.92    1.76
  12   0   1   -1.49    1.40
  -1   1   1   60.25    2.00
   1   1  -1   57.32    2.05
  -1  -1  -1   60.58    1.52
  -1   1   1   59.36    1.98
   1   1  -1   58.89    1.90
   1  -1  -1   54.64    1.96
  -1   1  -1   60.19    1.59
   1  -1  -1   61.29    2.01
  -1   1  -1   59.00    1.57
  -1  -1   1   57.11    2.02
  -1  -1   1   59.67    1.91
   3   1  -1   82.82    3.02
   3   1  -1   78.71    3.23
  -3  -1  -1   77.29    2.80
   3  -1   1   79.74    2.64
   3  -1   1   79.81    2.57
  -3   1   1   77.77    3.16
  -3  -1  -1   77.71    2.68
  -3   1   1   77.48    3.04
  -3  -1   1   80.78    3.06
  -3  -1   1   75.62    3.13
   3   1   1   77.15    2.67
   3  -1  -1   80.64    3.23
   3  -1  -1   73.92    3.00
  -3   1  -1   77.25    2.72
   3   1   1   78.68    2.54
  -3   1  -1   78.35    2.86
   5  -1   1    8.48    1.28
   5   1  -1    9.60    1.65
   5  -1   1    7.30    1.10
  -5  -1  -1    8.03    1.30
   5   1  -1    7.21    1.31
  -5  -1  -1    4.62    1.27
  -5   1   1    6.14    1.33
  -5   1   1    7.56    1.43
   5   1   1    5.92    0.97
   5  -1  -1    4.75    1.16
  -5  -1   1    5.04    1.24
  -5  -1   1    7.70    1.41
  -5   1  -1    7.45    1.41
  -5   1  -1    5.45    1.14
   5  -1  -1    8.98    1.58
   5   1   1    8.68    1.28
  -7   1   1   38.34    3.10
   7  -1   1   33.46    2.55
   7   1  -1   36.56    2.84
  -7  -1  -1   33.51    2.79
  -7  -1  -1   42.90    3.14
   7   1  -1   36.60    3.08
  -7   1   1   36.94    3.04
   7  -1   1   34.80    3.40
  -7   1  -1   36.36    2.86
   7  -1  -1   35.75    2.81
  -7  -1   1   41.22    3.16
   7   1   1   34.91    2.59
  -7   1  -1   34.72    2.89
  -7  -1   1   36.21    2.93
   7  -1  -1   33.70    3.04
   9   1  -1   -3.11    1.23
  -9  -1  -1    0.48    1.32
   9   1  -1   -1.29    1.13
   9  -1   1   -0.16    1.07
   9  -1   1    0.81    1.10
  -9   1   1    0.50    1.35
   9   1   1   -0.92    0.94
   9   1   1   -0.11    1.09
   9  -1  -1    0.91    1.48
  -9   1  -1   -0.34    1.12
  -9  -1   1   -1.19    1.07
   9  -1  -1   -0.36    1.25
 -11  -1  -1   11.06    3.11
 -11   1   1    9.37    2.38
  11  -1   1    4.27    1.98
  11  -1   1    6.61    1.86
  11   1  -1   11.12    2.73
  11   1   1    6.66    2.32
  11  -1  -1    8.39    2.38
  11   1   1    4.13    1.69
 -11   1  -1    5.07    2.93
 -11  -1   1    9.33    2.44
   0   2   1  339.73    8.28
   0  -2  -1  349.96    8.34
   0   2  -1  344.09    8.30
   0  -2   1  348.79    8.26
   2  -2   1   27.03    1.17
  -2  -2  -1   28.08    1.28
  -2   2   1   27.91    1.57
   2  -2   1   26.35    1.16
  -2  -2  -1   29.22    1.26
  -2   2   1   29.84    1.60
   2   2  -1   26.12    1.61
   2   2  -1   27.27    1.45
   2   2   1   26.27    1.16
  -2   2  -1   28.35    1.28
  -2  -2   1   29.70    1.64
   2  -2  -1   29.47    1.62
   2  -2  -1   27.57    1.56
  -2  -2   1   26.10    1.45
   2   2   1   27.43    1.10
  -2   2  -1   26.17    1.29
  -4  -2  -1  211.46    6.18
  -4   2   1  203.63    6.72
   4  -2   1  214.61    5.99
  -4  -2  -1  212.48    6.39
   4   2  -1  206.62    6.38
  -4   2   1  207.42    6.60
   4   2  -1  204.10    6.79
   4  -2   1  211.07    6.10
   4  -2  -1  205.65    6.75
  -4   2  -1  213.61    6.50
   4   2   1  213.76    6.18
  -4  -2   1  209.14    6.77
   4  -2  -1  203.16    6.53
  -4   2  -1  210.46    6.24
   4   2   1  208.77    5.91
  -4  -2   1  202.49    6.47
  -6  -2  -1   19.58    1.90
   6  -2   1   16.74    1.79
  -6  -2  -1   18.61    1.93
  -6   2   1   17.12    2.27
  -6   2   1   18.15    2.76
   6  -2   1   15.60    1.61
   6   2  -1   15.30    1.80
   6  -2  -1   15.61    1.90
  -6   2  -1   16.77    1.88
  -6   2  -1   17.76    1.98
   6   2   1   14.44    1.59
  -6  -2   1   17.50    2.10
   6   2   1   21.65    1.91
  -6  -2   1   14.73    3.12
   8  -2   1   52.37    3.19
  -8   2   1   52.13    3.93
  -8  -2  -1   60.14    3.87
   8   2  -1   56.51    4.16
   8  -2   1   58.94    3.49
  -8  -2  -1   53.59    3.78
   8   2  -1   53.78    3.61
  -8   2   1   54.22    3.98
  -8   2  -1   50.49    3.79
  -8  -2   1   52.15    3.96
  -8  -2   1   60.67    4.08
   8   2   1   52.28    3.43
   8  -2  -1   48.68    3.83
  -8   2  -1   60.94    3.91
   8  -2  -1   46.90    3.50
   8   2   1   63.48    3.40
 -10   2   1    5.11    2.14
 -10  -2  -1    2.41    1.66
  10   2  -1    2.25    1.56
  10  -2   1    3.28    1.63
  10  -2   1    3.49    1.52
 -10   2  -1    1.88    1.45
  10   2   1    2.39    1.58
  10   2   1    4.47    1.58
 -10  -2   1    2.95    1.72
  10  -2  -1    2.76    1.68
 -12  -2  -1    7.86    2.73
  12   2  -1    4.12    2.37
 -12   2   1    7.23    2.59
  12  -2   1    6.62    2.00
 -12  -2   1    3.32    2.10
  12  -2  -1    3.84    2.17
  12   2   1    5.71    1.89
 -12   2  -1   10.26    2.74
   1   3  -1    7.00    0.74
   1   3  -1    9.73    1.21
   1  -3   1    8.84    0.64
   1  -3   1    8.71    0.79
  -1  -3  -1    8.24    0.66
  -1   3   1    9.10    0.83
  -1  -3  -1    8.33    0.77
  -1  -3   1    8.75    0.76
   1   3   1    9.32    0.75
   1   3   1    8.19    0.59
   1  -3  -1    9.59    1.03
  -1   3  -1    9.02    0.70
  -1  -3   1   10.06    1.09
   1  -3  -1    8.93    0.83
  -3  -3  -1   -0.31    0.37
   3  -3   1    0.01    0.40
  -3   3   1    0.48    0.60
   3   3  -1   -0.49    0.51
  -3   3   1    0.16    0.52
  -3  -3  -1    0.64    0.51
   3  -3   1   -0.06    0.38
   3   3  -1    0.29    0.55
  -3  -3   1    1.18    0.62
   3   3   1    0.05    0.35
  -3  -3   1    0.17    0.57
  -3   3  -1    0.52    0.52
  -3   3  -1    0.18    0.46
   3  -3  -1    0.16    0.57
   3   3   1    0.59    0.44
   3  -3  -1    0.78    0.65
  -5   3   1    8.35    1.50
   5   3  -1   12.44    1.68
  -5  -3  -1   10.61    1.54
  -5   3   1   11.34    1.79
   5   3  -1   10.57    1.79
   5  -3   1    9.57    1.26
   5  -3   1    8.61    1.29
  -5  -3  -1   10.62    1.50
  -5  -3   1    9.29    1.63
  -5  -3   1   10.15    1.66
  -5   3  -1    9.68    1.47
   5   3   1    8.23    1.32
   5  -3  -1   10.94    1.84
   5   3   1   11.10    1.24
  -5   3  -1    7.11    1.38
   5  -3  -1    9.23    1.56
  -7  -3  -1    3.33    1.29
  -7   3   1    3.10    1.40
   7  -3   1    1.21    0.96
  -7   3   1    1.11    1.24
  -7  -3  -1    4.03    1.34
   7   3  -1    1.95    1.14
   7  -3   1    2.10    1.07
   7   3  -1    3.37    1.48
  -7   3  -1    4.38    1.42
  -7  -3   1    2.49    1.27
   7  -3  -1    3.03    1.54
  -7   3  -1    2.63    1.23
   7  -3  -1    2.37    1.35
  -7  -3   1    2.95    1.42
   7   3   1    2.07    1.06
   7   3   1    2.75    1.19
   9   3  -1    3.91    1.79
   9  -3   1    6.30    1.58
   9   3  -1    1.58    1.59
  -9   3   1    4.84    1.82
   9  -3   1    3.15    1.50
  -9  -3  -1    3.97    1.81
   9   3   1    4.95    1.52
  -9  -3   1    1.52    1.43
  -9   3  -1    5.80    1.80
   9   3   1    4.74    1.53
   9  -3  -1    4.42    1.73
   9  -3  -1    3.66    1.71
  11  -3   1    1.24    1.30
  11  -3   1   -0.11    1.83
 -11   3   1    2.12    1.71
  11   3  -1    2.18    1.89
  11   3   1    0.53    1.39
 -11  -3   1   -0.54    1.59
  11  -3  -1    0.78    1.62
  11   3   1    3.95    1.98
   0   4  -1    6.39    0.75
   0   4   1    7.01    0.70
   0  -4   1    6.25    0.70
   0  -4  -1    7.72    0.79
   2   4  -1  428.18   11.83
  -2  -4  -1  430.77   10.97
   2   4  -1  432.53   11.21
  -2   4   1  426.31   11.40
  -2   4   1  451.45   11.69
   2  -4   1  445.01   11.18
   2  -4   1  435.64   10.93
   2   4   1  438.62   10.82
  -2   4  -1  457.06   11.31
  -2   4  -1  431.93   11.13
   2  -4  -1  435.19   11.68
   2   4   1  437.82   11.11
   2  -4  -1  440.82   11.47
  -2  -4   1  432.89   11.21
  -2  -4   1  450.05   11.77
  -4  -4  -1    5.91    1.09
  -4   4   1    5.12    1.17
   4  -4   1    5.31    0.95
   4   4  -1    5.55    1.33
  -4   4   1    6.53    1.43
   4   4  -1    7.32    1.20
  -4  -4  -1    6.57    1.15
   4  -4   1    5.85    1.02
  -4  -4   1    5.80    1.21
  -4   4  -1    6.50    1.17
   4   4   1    4.94    0.85
   4   4   1    5.73    1.03
   4  -4  -1    7.25    1.33
   4  -4  -1    4.82    1.14
  -4  -4   1    6.62    1.49
  -4   4  -1    7.10    1.18
  -6   4   1  146.23    6.00
  -6   4   1  145.34    6.15
   6   4  -1  154.82    5.73
   6  -4   1  140.16    5.24
  -6  -4  -1  153.40    5.69
   6   4  -1  158.58    6.51
  -6  -4  -1  140.96    5.75
   6  -4   1  152.36    5.45
  -6  -4   1  149.16    5.91
  -6   4  -1  140.21    5.62
   6   4   1  150.39    5.22
   6   4   1  149.06    5.54
  -6  -4   1  141.46    6.04
  -6   4  -1  142.70    5.92
   6  -4  -1  144.85    5.86
   6  -4  -1  140.34    6.02
   8   4  -1    1.11    1.17
  -8  -4  -1    3.16    1.41
  -8   4   1    3.19    1.73
   8   4  -1    3.87    1.76
   8  -4   1    1.18    1.20
  -8  -4  -1    1.49    1.32
  -8   4   1    1.47    1.35
   8  -4   1    2.62    1.26
  -8  -4   1    3.35    1.62
   8  -4  -1    1.27    1.36
   8   4   1    2.57    1.22
  -8   4  -1    3.11    1.59
   8   4   1    1.49    1.17
  -8   4  -1    2.64    1.47
  -8  -4   1    2.66    1.48
   8  -4  -1    4.72    1.70
  10   4  -1   26.01    3.75
  10  -4   1   26.96    2.96
 -10  -4  -1   30.39    3.40
 -10   4   1   24.52    3.54
  10  -4   1   25.79    2.79
 -10  -4   1   31.21    3.65
 -10   4  -1   24.15    3.35
  10   4   1   26.69    3.05
  10  -4  -1   19.03    3.06
  10   4   1   24.63    2.79
 -12  -4  -1    3.30    2.08
  12  -4   1    1.61    1.46
  12   4  -1    2.65    2.32
 -12   4   1   -1.09    1.79
 -12   4  -1   -1.76    1.74
  12   4   1   -0.63    1.59
 -12  -4   1   -1.42    1.75
  12  -4  -1    0.27    2.02
   1   5  -1   60.68    3.34
   1  -5   1   59.07    2.19
   1   5  -1   60.09    2.38
  -1  -5  -1   55.51    2.23
  -1  -5  -1   55.29    2.67
  -1   5   1   55.46    2.33
   1   5   1   57.83    2.82
  -1  -5   1   52.77    2.85
  -1  -5   1   59.30    2.32
  -1   5  -1   55.88    2.26
   1  -5  -1   60.00    2.44
   1   5   1   58.90    2.16
   3  -5   1   18.21    1.34
   3  -5   1   16.58    1.40
  -3  -5  -1   16.21    1.36
  -3  -5  -1   17.10    1.45
   3   5  -1   17.06    1.44
  -3   5   1   21.53    1.74
   3   5  -1   18.24    1.86
  -3   5   1   17.22    1.58
  -3   5  -1   20.78    1.56
   3  -5  -1   14.71    1.60
   3   5   1   18.06    1.25
   3   5   1   17.34    1.42
   3  -5  -1   16.59    1.58
  -3   5  -1   18.62    1.54
  -3  -5   1   18.97    1.72
  -3  -5   1   17.64    1.49
  -5   5   1   53.41    3.20
   5   5  -1   52.71    2.96
  -5  -5  -1   49.02    2.93
   5  -5   1   51.82    2.72
   5  -5   1   56.20    2.84
   5   5  -1   50.85    3.40
  -5   5   1   55.94    3.31
  -5  -5  -1   55.83    2.96
  -5   5  -1   53.28    3.16
   5  -5  -1   52.04    3.17
   5   5   1   54.57    2.89
   5   5   1   55.09    2.64
  -5   5  -1   52.99    2.99
  -5  -5   1   53.97    3.26
  -5  -5   1   52.00    3.05
   5  -5  -1   48.33    3.16
  -7   5   1    0.26    1.14
   7   5  -1    1.52    1.16
  -7  -5  -1    0.90    1.19
   7   5  -1    2.61    1.45
   7  -5   1    2.02    1.08
  -7  -5  -1    0.64    1.03
  -7   5  -1    1.92    1.25
  -7  -5   1    1.01    1.20
   7   5   1    0.45    0.97
  -7   5  -1    0.70    1.11
   7   5   1    1.50    1.10
   7  -5  -1   -0.26    1.14
   7  -5  -1    1.53    1.26
   9   5  -1   18.76    3.14
   9   5  -1   19.36    2.77
   9  -5   1   21.33    2.52
  -9   5   1   18.95    2.93
   9  -5   1   15.23    2.25
  -9  -5  -1   21.75    3.09
  -9   5  -1   15.78    2.64
   9  -5  -1   18.15    2.97
  -9  -5   1   16.50    2.62
   9  -5  -1   19.92    2.90
   9   5   1   20.45    2.69
   9   5   1   17.39    2.33
 -11  -5  -1   -0.63    1.41
 -11   5   1   -1.67    1.41
  11   5  -1   -0.19    1.85
  11  -5   1    0.70    1.42
  11   5   1   -1.53    1.30
 -11  -5   1   -0.40    1.67
 -11   5  -1   -0.74    1.35
  11   5   1    1.31    1.81
  11  -5  -1    4.32    2.35
   0   6   1   70.96    2.66
   0   6  -1   68.85    2.74
   0  -6   1   70.03    2.62
   0  -6  -1   73.66    2.80
  -2  -6  -1   86.45    3.23
   2   6  -1   93.51    4.32
   2  -6   1   91.05    3.77
   2   6  -1   92.14    3.47
  -2  -6  -1   91.21    3.70
   2  -6   1   92.14    3.24
  -2   6   1   89.26    3.54
   2  -6  -1   92.49    3.59
   2   6   1   93.00    3.72
  -2  -6   1   91.74    4.01
   2   6   1   91.23    3.16
  -2   6  -1   90.84    3.41
  -2  -6   1   91.00    3.40
   2  -6  -1   92.24    4.11
  -4  -6  -1   29.74    2.10
   4  -6   1   27.10    1.88
  -4   6   1   30.34    2.34
   4   6  -1   29.67    2.50
  -4   6   1   28.16    2.18
   4  -6   1   29.91    2.06
   4   6  -1   27.83    2.09
   4   6   1   29.17    1.80
   4  -6  -1   34.46    2.50
  -4   6  -1   30.27    2.23
  -4   6  -1   29.04    2.17
  -4  -6   1   30.98    2.22
   4  -6  -1   29.11    2.27
  -4  -6   1   31.27    2.39
   4   6   1   30.20    2.11
  -6   6   1   34.24    2.91
   6   6  -1   35.67    2.72
   6   6  -1   28.70    3.03
   6  -6   1   33.57    2.49
  -6   6   1   35.54    2.95
   6  -6   1   32.67    2.54
  -6  -6  -1   38.75    2.82
  -6  -6  -1   31.75    2.69
   6  -6  -1   33.60    3.00
   6   6   1   36.79    2.71
  -6   6  -1   31.73    2.84
  -6  -6   1   31.51    2.89
   6  -6  -1   38.68    3.01
  -6  -6   1   32.92    2.79
  -6   6  -1   37.29    3.18
   8  -6   1    5.96    1.54
   8  -6   1    7.71    1.70
  -8  -6  -1    7.16    1.85
   8   6  -1    3.37    1.99
   8   6  -1    8.72    2.12
  -8  -6  -1    5.59    1.53
  -8   6   1    7.45    2.22
  -8   6  -1    6.31    1.93
   8  -6  -1    4.39    1.75
  -8  -6   1    5.91    1.89
  -8   6  -1    7.40    1.93
   8   6   1    4.26    1.54
   8   6   1    5.20    1.38
  10   6  -1    1.98    2.00
 -10   6   1    5.15    1.93
  10  -6   1    3.35    1.92
 -10  -6  -1    6.93    2.12
  10  -6   1    4.41    1.69
  10  -6  -1    8.42    2.29
  10   6   1    4.53    1.69
 -10   6  -1    6.78    2.10
  10   6   1    4.77    1.75
 -10  -6   1    5.22    1.91
 -12  -6  -1    0.06    1.82
  12   6  -1    2.42    2.28
 -12   6   1    2.68    2.35
  12  -6   1    2.23    1.62
 -12   6  -1    0.16    1.76
  12  -6  -1   -1.37    1.88
  12   6   1   -1.08    1.61
 -12  -6   1    3.94    2.25
  -1  -7  -1   23.73    1.58
   1   7  -1   24.99    1.72
   1   7  -1   22.87    2.74
   1  -7   1   23.57    1.56
  -1   7   1   25.73    1.67
   1   7   1   19.37    2.28
   1  -7  -1   26.80    1.75
  -1  -7   1   24.47    1.61
  -1   7  -1   26.25    1.66
   1   7   1   24.03    1.49
   3   7  -1   10.01    1.89
  -3  -7  -1    9.15    1.34
   3   7  -1    8.12    1.36
   3  -7   1    6.88    1.34
  -3  -7  -1    8.84    1.47
   3  -7   1    7.43    1.18
  -3  -7   1    8.42    1.34
   3  -7  -1    9.02    2.01
  -3   7  -1   10.62    1.50
   3  -7  -1    8.65    1.47
   3   7   1    8.67    1.45
   3   7   1    9.20    1.09
   5  -7   1   22.72    2.59
   5  -7   1   27.16    2.10
  -5   7   1   23.36    2.35
  -5  -7  -1   25.40    2.26
   5   7  -1   24.55    2.19
  -5  -7  -1   26.72    2.31
   5   7  -1   23.16    3.14
  -5   7  -1   23.67    2.26
  -5  -7   1   28.40    2.49
   5  -7  -1   21.06    2.42
   5   7   1   25.22    1.90
  -5   7  -1   22.20    2.35
   5   7   1   28.53    2.33
  -7  -7  -1   -0.03    1.30
  -7   7   1    1.61    1.44
   7   7  -1    2.50    1.31
  -7  -7  -1    0.97    1.22
   7  -7   1    1.21    1.06
   7   7  -1    0.99    1.37
  -7   7   1    1.06    1.33
   7  -7   1    0.80    1.17
   7  -7  -1   -0.40    1.18
  -7  -7   1    0.39    1.24
  -7   7  -1   -1.28    0.98
   7   7   1    0.48    0.90
  -7  -7   1    3.59    1.39
   7   7   1    1.70    1.15
   7  -7  -1    1.23    1.30
  -9  -7  -1    8.83    2.11
   9  -7   1    9.38    1.92
   9   7  -1   10.34    2.52
   9  -7   1   11.27    2.13
  -9   7   1   10.87    2.37
   9   7  -1   11.23    2.32
   9   7   1    9.26    1.81
   9  -7  -1    8.86    2.20
  -9  -7   1    6.65    2.10
   9   7   1    4.14    1.63
  -9   7  -1   13.12    2.54
 -11  -7  -1   -0.10    1.62
  11  -7   1   -2.54    1.18
 -11   7   1   -0.08    1.42
  11   7   1   -0.16    1.42
 -11   7  -1   -2.81    1.72
 -11  -7   1   -2.40    1.41
  11  -7  -1    2.18    1.82
  11   7   1   -0.54    2.34
   0  -8  -1  309.20    8.56
   0   8   1  294.14    8.32
   0   8  -1  290.78    8.46
   0  -8   1  294.27    8.25
  -2  -8  -1   46.30    2.39
   2   8  -1   46.65    2.54
   2  -8   1   49.06    2.40
   2  -8   1   45.14    3.13
  -2  -8  -1   45.32    2.83
  -2   8   1   43.71    2.49
   2   8  -1   42.32    3.51
   2   8   1   48.39    2.34
   2   8   1   47.44    3.14
  -2  -8   1   44.31    2.99
  -2  -8   1   49.72    2.51
   2  -8  -1   47.15    2.61
   2  -8  -1   46.93    3.38
  -2   8  -1   46.14    2.49
   4  -8   1  167.92    6.30
  -4  -8  -1  171.03    6.36
   4   8  -1  177.59    7.18
   4   8  -1  166.30    5.99
  -4  -8  -1  173.93    6.03
   4  -8   1  172.87    5.81
  -4   8   1  159.99    6.26
  -4  -8   1  173.02    6.12
   4  -8  -1  171.84    6.28
   4  -8  -1  167.79    6.82
   4   8   1  176.98    6.37
  -4   8  -1  171.28    6.35
  -4   8  -1  171.05    6.29
  -4  -8   1  163.66    6.61
   4   8   1  169.82    5.61
   6   8  -1   21.06    2.39
  -6  -8  -1   19.30    2.34
  -6   8   1   22.99    2.96
  -6   8   1   21.47    2.85
   6  -8   1   20.25    2.38
   6   8  -1   19.44    2.95
  -6  -8  -1   21.36    2.37
  -6  -8   1   19.72    2.58
   6   8   1   15.03    1.84
  -6   8  -1   17.76    2.52
  -6  -8   1   21.91    2.56
  -6   8  -1   19.42    2.35
   6   8   1   18.03    2.34
   6  -8  -1   20.75    2.48
   6  -8  -1   20.91    2.81
  -8  -8  -1   42.81    3.67
   8  -8   1   42.94    3.48
   8   8  -1   48.02    3.81
   8  -8   1   49.94    3.50
   8   8  -1   45.75    4.18
  -8   8   1   43.21    3.80
  -8   8  -1   49.22    3.95
   8   8   1   41.82    3.11
   8  -8  -1   44.48    4.03
  -8  -8   1   49.49    3.99
   8  -8  -1   47.52    3.85
   8   8   1   40.33    3.51
  10  -8   1    4.19    1.58
 -10  -8  -1    1.52    1.75
  10   8  -1    4.55    1.98
 -10   8   1   -0.61    2.68
  10  -8  -1    3.62    1.92
  10   8   1    3.24    1.72
  10   8   1    2.96    1.83
 -10   8  -1    4.44    2.13
   1  -9   1    1.01    0.70
  -1  -9  -1   -0.17    0.61
   1   9  -1    0.50    0.70
   1   9  -1    1.69    1.62
  -1   9   1   -0.21    0.52
   1   9   1    0.18    0.57
  -1   9  -1    0.39    0.65
   1   9   1    0.55    1.33
  -1  -9   1   -0.15    0.61
   1  -9  -1    0.22    0.72
  -3  -9  -1    4.88    1.17
   3   9  -1    7.80    1.41
   3   9  -1    4.53    1.69
  -3   9   1    8.12    1.49
   3  -9   1    7.47    1.27
  -3  -9  -1    7.36    1.56
   3  -9   1    5.46    1.52
  -3  -9   1    5.08    1.22
  -3  -9   1    7.56    1.69
   3   9   1    4.84    1.47
   3   9   1    7.05    1.25
   3  -9  -1    4.48    1.25
  -3   9  -1    5.72    1.26
   3  -9  -1    5.28    1.60
   5   9  -1    0.19    1.33
  -5   9   1    2.87    1.38
  -5  -9  -1    0.40    0.94
   5   9  -1    0.19    1.01
  -5  -9  -1    0.72    1.10
   5  -9   1    0.84    1.15
  -5   9   1    2.47    1.25
   5  -9   1    1.75    1.01
   5   9   1    0.04    1.01
  -5  -9   1    1.01    1.17
   5  -9  -1    0.31    1.03
   5   9   1    1.18    0.89
  -5   9  -1    1.84    1.03
  -5  -9   1    0.44    0.92
   5  -9  -1    1.74    1.36
  -7  -9  -1    4.37    1.65
  -7   9   1    2.75    1.51
   7   9  -1    6.43    1.79
   7   9  -1    4.52    1.93
  -7  -9  -1    4.49    1.72
  -7   9   1    4.88    1.76
   7  -9   1    5.71    1.72
   7  -9   1    5.21    1.53
   7  -9  -1    8.52    2.07
   7   9   1    6.20    1.48
  -7   9  -1    6.03    1.74
   7  -9  -1    7.74    2.59
  -7   9  -1    6.24    2.06
  -7  -9   1    2.80    1.70
  -7  -9   1    3.27    1.60
   7   9   1    7.39    1.78
   9  -9   1    4.04    1.95
   9   9  -1    2.22    2.04
   9  -9   1   -0.55    1.22
  -9   9   1    0.27    1.44
  -9  -9  -1   -0.76    1.36
   9   9   1    0.43    1.30
  -9  -9   1    1.99    1.56
   9   9   1   -0.94    1.55
  -9   9  -1   -0.43    1.35
   9  -9  -1    3.76    1.71
  11   9  -1    4.10    2.43
  11  -9   1   10.22    3.33
 -11  -9  -1    5.03    2.29
  11  -9   1    2.34    1.60
 -11   9   1    3.96    2.28
 -11   9  -1    4.72    2.24
 -11  -9   1    0.34    1.68
  11  -9  -1   -0.93    1.62
  11   9   1    2.67    1.64
   0 -10   1   68.28    3.14
   0 -10  -1   68.03    3.32
   0  10  -1   72.38    3.36
   0  10   1   70.07    3.19
   2  10  -1   52.93    4.35
   2 -10   1   50.99    2.75
  -2 -10  -1   49.00    2.74
   2  10  -1   47.74    2.81
  -2  10   1   48.72    2.84
   2 -10   1   48.57    4.48
   2  10   1   43.21    3.63
  -2  10  -1   53.52    2.89
   2  10   1   50.78    2.64
  -2 -10   1   50.03    2.78
   2 -10  -1   42.72    3.71
   2 -10  -1   53.99    2.99
  -4  10   1   37.98    2.91
   4  10  -1   40.11    2.79
  -4 -10  -1   39.11    3.03
   4  10  -1   47.17    4.51
  -4 -10  -1   36.64    2.66
   4 -10   1   38.62    3.29
   4 -10   1   39.84    2.63
  -4 -10   1   37.53    3.20
  -4  10  -1   40.99    2.92
   4 -10  -1   37.12    3.45
   4  10   1   38.62    3.19
  -4 -10   1   38.33    2.78
   4 -10  -1   38.48    2.91
   4  10   1   37.30    2.58
   6 -10   1   20.21    2.86
  -6 -10  -1   23.52    2.65
  -6 -10  -1   25.41    2.73
  -6  10   1   22.73    3.08
   6 -10   1   21.53    2.32
  -6  10   1   18.42    2.80
   6  10  -1   17.41    2.47
   6  10  -1   19.78    3.16
   6 -10  -1   22.52    2.66
   6  10   1   23.54    2.94
   6 -10  -1   23.35    3.41
  -6 -10   1   21.90    2.98
  -6  10  -1   19.37    2.67
  -6 -10   1   22.53    2.86
   6  10   1   20.32    2.16
  -6  10  -1   21.32    3.73
   8 -10   1   10.57    2.23
   8  10  -1    9.24    2.18
   8 -10   1   10.26    2.08
   8  10  -1   10.74    2.78
  -8  10   1   14.98    2.80
  -8 -10  -1   13.62    2.49
  -8 -10   1   12.73    2.62
   8 -10  -1   13.37    2.53
   8 -10  -1    9.94    2.94
   8  10   1   10.79    1.97
  -8  10  -1   12.00    2.45
   8  10   1   10.27    2.27
  10 -10   1    5.31    1.73
 -10 -10  -1    3.94    3.49
 -10  10   1    4.07    1.92
  10  10  -1    6.86    2.54
  10 -10   1    6.25    2.51
  10 -10  -1    7.30    2.45
  10  10   1    0.80    2.91
  10  10   1    3.33    1.84
 -10 -10   1    3.19    1.92
  -1  11   1   22.15    1.91
  -1 -11  -1   20.51    1.99
   1  11  -1   15.53    3.33
   1  11  -1   21.72    1.98
   1 -11   1   22.01    1.87
   1  11   1   17.89    3.30
   1 -11  -1   23.75    2.09
  -1  11  -1   24.91    2.12
   1  11   1   22.82    2.18
  -1 -11   1   21.81    1.88
   3  11  -1   24.31    4.11
  -3 -11  -1   31.77    2.44
   3 -11   1   31.58    3.25
   3 -11   1   30.87    2.39
   3  11  -1   32.93    2.54
  -3  11   1   31.71    2.54
  -3 -11  -1   35.31    2.87
  -3  11  -1   33.29    2.59
   3  11   1   32.33    2.26
  -3 -11   1   29.27    2.84
   3 -11  -1   28.78    3.45
   3  11   1   33.38    3.21
  -3 -11   1   32.06    3.72
   5  11  -1    5.88    1.52
   5 -11   1    3.95    1.80
   5  11  -1    6.54    2.25
  -5 -11  -1    2.80    1.44
  -5 -11  -1    6.32    1.67
  -5  11   1    2.34    1.40
   5 -11   1    7.55    1.61
  -5 -11   1    3.27    1.43
   5  11   1    4.76    1.33
   5 -11  -1    2.81    1.91
  -5 -11   1    7.05    1.77
   5  11   1    4.86    2.02
   5 -11  -1    3.53    1.50
  -5  11  -1    4.23    1.52
   7  11  -1   18.06    3.42
   7 -11   1   18.01    2.85
   7  11  -1   17.41    2.56
   7 -11   1   18.55    2.48
  -7 -11  -1   17.77    2.73
  -7 -11   1   14.33    2.46
   7  11   1   21.09    2.52
   7  11   1   21.99    3.15
   7 -11  -1   21.51    2.98
   7 -11  -1   23.56    3.53
   9 -11   1   -3.64    1.98
  -9 -11  -1   -1.00    1.28
   9 -11   1    1.27    1.39
  -9  11   1    2.43    1.77
   9  11  -1    2.05    2.04
  -9  11  -1    0.77    1.42
   9  11   1    0.06    1.44
   9  11   1   -0.57    1.58
  -9 -11   1   -0.13    1.30
   9 -11  -1    3.01    1.64
 -11 -11  -1    4.96    2.42
  11  11  -1    3.12    2.63
 -11  11   1    0.77    1.93
  11 -11   1    3.11    1.92
 -11 -11   1    3.84    2.27
  11 -11  -1    8.51    2.39
  11  11   1    3.30    1.99
 -11  11  -1    4.43    2.13
   0 -12   1   48.33    2.83
   0  12   1   52.35    2.97
   0 -12  -1   49.79    3.05
   0  12  -1   48.99    3.00
   2 -12   1    1.18    0.96
   2  12  -1   -0.59    0.84
  -2 -12  -1    0.54    0.94
  -2  12   1    1.46    0.88
   2  12  -1    0.19    2.02
   2  12   1    1.22    0.83
   2  12   1   -0.26    1.47
  -2  12  -1   -0.36    0.72
  -2 -12   1    1.55    1.34
   2 -12  -1    0.52    1.06
   4 -12   1   33.53    2.69
   4 -12   1   30.78    3.47
  -4 -12  -1   29.80    2.64
  -4  12   1   25.96    2.64
   4  12  -1   28.78    2.67
  -4 -12  -1   31.66    2.92
   4  12  -1   36.10    4.63
   4  12   1   30.94    2.47
   4 -12  -1   31.96    2.78
   4 -12  -1   32.17    4.27
  -4 -12   1   30.85    3.20
  -4 -12   1   29.02    2.69
  -4  12  -1   33.42    2.88
  -6 -12  -1    3.69    1.38
  -6  12   1   -1.01    1.23
   6  12  -1   -1.20    1.24
   6 -12   1   -0.90    1.02
  -6 -12  -1    0.52    1.24
   6  12  -1    0.17    1.62
   6 -12   1    0.91    1.72
   6  12   1   -0.25    1.32
   6 -12  -1    1.56    1.35
  -6 -12   1   -2.31    1.17
   6 -12  -1   -0.80    1.91
  -6 -12   1   -1.52    1.14
  -6  12  -1   -0.92    1.11
   8 -12   1    7.11    1.89
   8 -12   1    4.71    3.25
   8  12  -1    3.22    2.10
  -8 -12  -1   10.42    2.46
  -8 -12   1    8.65    2.24
   8  12   1    7.85    2.04
   8  12   1    7.04    2.09
   8 -12  -1    6.53    1.95
  10  12  -1    2.34    3.61
  10 -12   1   -0.16    1.57
 -10 -12  -1   -0.37    1.76
  10 -12  -1   -0.91    1.52
  10  12   1   -5.80    2.29
 -10 -12   1    0.45    1.68
  10  12   1   -2.38    1.31
  -1  13   1    8.16    1.52
   1  13  -1   10.11    3.61
  -1 -13  -1    9.97    1.96
   1  13  -1   12.40    2.00
  -1  13  -1   12.07    1.98
   1 -13  -1   10.46    2.93
   1  13   1    9.86    2.94
   1  13   1   10.67    1.79
  -1 -13   1   10.10    2.03
   3 -13   1   16.72    2.26
   3  13  -1   14.97    2.27
  -3  13   1   17.62    2.39
   3  13  -1   16.64    3.62
  -3 -13  -1   13.83    2.09
   3 -13   1   11.88    2.81
   3  13   1   13.22    2.93
   3  13   1   13.31    1.87
  -3 -13   1   13.42    2.06
   3 -13  -1   16.19    2.37
  -3  13  -1   18.75    2.42
   3 -13  -1   15.78    3.31
   5 -13   1    1.57    1.21
  -5  13   1    0.89    1.23
   5 -13   1    2.15    1.85
   5  13  -1    1.13    1.88
  -5 -13  -1    2.78    1.47
   5  13  -1    3.24    1.46
  -5 -13  -1    1.32    1.38
   5  13   1    1.22    1.68
   5 -13  -1    2.22    1.49
  -5  13  -1    0.79    1.19
   5 -13  -1   -4.30    1.61
  -5 -13   1    0.96    1.23
   5  13   1    1.99    1.08
  -5 -13   1    1.52    1.43
   7  13  -1    8.40    2.19
   7  13  -1    4.25    2.40
  -7 -13  -1    9.96    2.36
   7 -13   1    7.32    1.86
   7 -13   1    8.65    2.61
  -7 -13   1   10.02    2.26
   7  13   1    5.94    2.03
   7 -13  -1   10.95    2.48
   7  13   1    7.63    1.84
  -9 -13  -1   -0.48    1.55
   9 -13   1    1.42    1.44
   9  13  -1    1.61    2.31
   9 -13   1   -3.31    2.44
   9  13   1   -0.38    1.49
   9 -13  -1   -2.21    1.30
  -9 -13   1    2.98    1.79
   0 -14   1    7.21    1.65
   0  14   1    6.42    1.44
   0  14  -1    7.83    1.75
   0 -14  -1    6.54    1.61
   2  14  -1  126.75    8.95
   2  14  -1  151.84    6.33
  -2  14   1  156.82    6.31
   2 -14   1  164.63    6.18
  -2 -14  -1  158.59    6.31
   2  14   1  161.73    8.94
  -2  14  -1  154.47    6.36
   2 -14  -1  168.12    6.59
  -2 -14   1  162.20    6.19
   2  14   1  159.72    6.09
   4  14  -1    5.13    1.57
   4  14  -1    3.45    2.38
   4 -14   1    5.67    1.63
  -4 -14  -1    5.14    1.67
   4 -14   1    5.93    2.37
   4 -14  -1    6.72    2.85
  -4 -14   1    4.83    1.54
   4  14   1    3.33    1.88
   4  14   1    5.50    1.46
   4 -14  -1    6.32    1.80
   6  14  -1   61.94    5.72
   6 -14   1   64.88    5.12
  -6 -14  -1   65.97    4.50
   6  14  -1   59.24    4.18
   6 -14   1   66.92    4.11
  -6 -14   1   65.31    4.37
   6  14   1   62.04    3.91
   6  14   1   63.60    4.95
   6 -14  -1   65.41    4.45
   6 -14  -1   64.88    5.84
   8  14  -1    4.15    2.61
   8 -14   1   -0.32    1.21
  -8 -14  -1   -0.87    1.37
   8 -14   1    1.68    2.67
   8  14   1    3.36    1.87
   8 -14  -1    1.84    1.64
  -8 -14   1    0.76    1.55
  10 -14   1   15.75    2.61
 -10 -14  -1   13.36    3.06
  10  14  -1   11.00    3.38
  10  14   1    7.28    4.92
  10 -14  -1    9.26    2.47
  10  14   1    9.46    2.54
 -10 -14   1   12.88    3.07
   1 -15   1    4.08    1.44
  -1 -15  -1    3.95    1.54
  -1  15   1    6.58    1.45
   1  15  -1    3.54    2.94
   1  15  -1    3.89    1.49
   1  15   1    1.86    2.50
  -1  15  -1    3.99    1.42
   1 -15  -1    3.09    1.50
   1  15   1    6.95    1.64
  -1 -15   1    4.53    1.41
   3  15  -1   -0.42    2.23
   3  15  -1    1.56    1.32
  -3 -15  -1    0.76    1.19
   3 -15   1    0.44    1.10
   3 -15   1    0.29    1.77
  -3  15   1    3.25    1.21
   3  15   1    0.22    1.18
  -3 -15   1   -0.46    1.08
   3 -15  -1    2.33    2.37
   3  15   1   -0.03    1.81
   3 -15  -1    0.57    1.25
   5 -15   1    6.06    1.65
   5  15  -1    6.70    1.84
  -5 -15  -1    8.26    1.96
   5  15  -1    3.13    2.54
   5 -15   1    4.31    2.41
   5  15   1    4.45    1.53
   5  15   1    2.21    2.00
   5 -15  -1    7.89    3.28
   5 -15  -1    5.48    1.83
  -5 -15   1    5.42    1.73
   7  15  -1    1.79    2.13
   7 -15   1    2.76    2.45
  -7 -15  -1    0.91    1.45
   7 -15   1   -1.85    1.08
   7 -15  -1    0.43    1.43
  -7 -15   1    0.21    1.39
   7  15   1    2.15    1.90
  -9 -15  -1    4.63    2.23
   9 -15   1    1.41    1.74
   9  15  -1    7.99    3.47
  -9 -15   1    1.50    1.82
   9 -15  -1    2.46    2.00
   9  15   1    1.05    2.57
   9  15   1   -0.39    1.60
   0  16  -1   63.21    4.19
   0  16   1   81.34    6.84
   0 -16   1   71.66    4.01
   0  16  -1   75.71    6.65
   0  16   1   68.97    4.01
   0 -16  -1   71.81    4.30
  -2 -16  -1    2.17    1.36
   2  16  -1    0.18    2.55
   2 -16   1   -0.07    1.03
  -2  16   1   -0.15    1.02
   2  16  -1   -0.15    1.25
   2  16   1    1.30    2.46
   2  16   1    0.70    1.04
  -2  16  -1    2.63    1.47
  -2 -16   1    0.28    1.09
   2 -16  -1    1.80    1.37
   4  16  -1   38.14    3.47
   4 -16   1   31.63    4.80
  -4  16   1   39.38    3.47
  -4 -16  -1   39.46    3.52
   4 -16   1   46.61    3.46
   4  16  -1   36.58    5.44
  -4  16  -1   45.34    4.25
  -4 -16   1   49.38    3.61
   4 -16  -1   51.14    3.92
   4  16   1   38.92    3.19
   4  16   1   32.07    4.45
   4 -16  -1   36.23    5.46
  -6 -16  -1   -1.32    1.20
   6  16  -1    0.27    2.02
   6 -16   1    2.18    2.63
   6 -16   1   -0.16    1.27
   6 -16  -1   -0.87    1.27
   6  16   1   -2.15    1.48
   6  16   1    0.70    2.15
  -6 -16   1    0.81    1.33
   8  16  -1    6.29    3.04
  -8 -16  -1    7.71    3.55
   8 -16   1   14.38    2.57
   8  16   1   14.49    3.17
  -8 -16   1   15.30    2.87
   8  16   1   14.73    2.69
 -10 -16  -1   -1.11    1.67
  10  16  -1   -5.93    2.11
  10 -16   1    0.35    1.54
 -10 -16   1   -1.23    1.72
  10  16   1    0.90    1.98
  10 -16  -1   -2.60    1.71
   1 -17   1   10.98    2.01
   1  17  -1   12.56    2.39
  -1 -17  -1   11.36    2.24
   1  17  -1   14.63    4.35
   1  17   1   17.49    2.48
   1  17   1    8.96    3.67
  -1 -17   1   14.72    2.29
   1 -17  -1   15.92    2.61
  -1  17  -1   16.54    2.55
  -3  17   1    5.88    1.69
   3 -17   1    5.65    1.66
   3  17  -1    0.46    2.44
   3  17  -1    9.86    2.23
  -3 -17  -1    7.46    1.92
  -3  17  -1   11.01    2.40
  -3 -17   1    4.15    1.57
   3 -17  -1    7.90    2.06
   3  17   1    7.33    1.79
   3 -17  -1    2.05    2.86
   3  17   1    9.99    3.06
   5  17  -1    4.31    2.82
  -5 -17  -1    9.95    2.29
   5 -17   1   10.95    2.10
   5 -17   1   11.57    3.42
  -5 -17   1    9.24    2.24
   5 -17  -1   11.62    2.47
   5  17   1   12.30    3.15
   7 -17   1   -0.87    1.34
   7  17  -1   -0.28    2.12
  -7 -17  -1    0.41    1.40
   7  17   1    2.41    1.96
  -7 -17   1   -0.12    2.02
   7  17   1    2.28    1.70
   7 -17  -1   -0.88    1.48
   9 -17   1   -3.57    2.84
   9  17  -1    0.04    2.72
  -9 -17  -1    4.23    2.40
   9  17   1    2.93    2.27
  -9 -17   1    4.47    2.27
   9 -17  -1    4.07    2.24
   0  18   1   23.54    4.86
   0 -18   1   25.28    2.71
   0  18   1   27.20    3.21
   0 -18  -1   25.24    2.99
   0  18  -1   22.99    3.03
   0  18  -1   26.67    5.02
  -2  18   1   -0.82    1.10
   2  18  -1    2.41    1.41
  -2 -18  -1   -0.63    1.06
   2  18  -1    4.71    3.30
   2 -18   1    1.20    1.28
   2 -18  -1   -2.12    0.99
  -2 -18   1   -0.20    1.10
   2  18   1    2.40    2.83
   4 -18   1   16.04    4.25
   4  18  -1   12.78    3.97
  -4 -18  -1   13.18    2.64
   4 -18   1   14.36    2.38
   4  18   1   16.95    2.63
   4  18   1   18.10    3.73
  -4 -18   1   17.98    2.75
   4 -18  -1   16.54    2.76
  -6 -18  -1   -0.03    1.49
   6 -18   1   -1.83    1.06
   6  18  -1    3.44    2.57
   6  18   1   -0.01    1.76
  -6 -18   1    0.42    1.38
   6 -18  -1   -1.26    1.16
   6  18   1   -1.30    1.94
   8  18  -1    1.25    2.91
   8 -18   1    2.64    1.88
  -8 -18  -1    7.20    2.53
  -8 -18   1    4.37    2.10
   8 -18  -1    5.71    2.35
   8  18   1    3.45    2.42
  -1 -19  -1    1.61    1.49
   1  19  -1    1.78    3.27
  -1  19   1   -0.15    1.53
   1 -19   1   -0.23    1.15
   1  19   1    3.80    1.55
   1 -19  -1    1.33    1.47
   1  19   1    4.39    3.17
  -1 -19   1    2.63    1.44
   3 -19   1   -0.47    1.19
   3 -19   1   -3.25    3.97
   3  19  -1    4.28    3.08
  -3 -19  -1    0.36    1.28
   3  19   1    0.40    2.33
   3 -19  -1    2.54    1.61
   3  19   1   -1.12    1.34
  -3 -19   1   -1.15    1.12
  -5 -19  -1    3.98    1.93
   5 -19   1    3.65    1.61
   5  19  -1    0.09    2.96
   5  19   1   -1.00    2.07
  -5 -19   1    0.74    1.46
   5  19   1    2.19    1.79
   5 -19  -1    2.25    1.70
   7 -19   1    1.38    1.62
   7  19  -1   -0.39    2.74
  -7 -19  -1    1.82    1.73
   7 -19  -1    1.19    1.75
  -7 -19   1    1.15    1.72
   7  19   1   -0.12    1.99
  -9 -19  -1   -0.02    2.00
   9 -19   1   -0.77    1.67
   9  19  -1    2.95    3.14
   9 -19  -1    4.40    2.23
   9  19   1    1.06    2.29
  -9 -19   1    3.09    2.17
   0 -20   1   20.02    2.80
   0 -20  -1   21.76    3.15
   0  20   1   29.59    5.50
   0  20  -1   29.97    5.62
   2 -20   1   12.35    2.33
   2  20  -1   17.63    4.85
  -2 -20  -1   19.98    3.05
  -2 -20   1   20.26    2.94
   2 -20  -1   14.33    2.53
   2  20   1   19.97    4.85
   2  20   1   11.14    3.79
  -4 -20  -1   17.67    2.99
   4 -20   1   17.40    2.68
   4  20  -1   12.17    4.71
   4  20   1   14.65    3.80
  -4 -20   1   17.60    2.86
   4 -20  -1   17.03    2.85
   6 -20   1    7.73    2.11
  -6 -20  -1    7.90    2.60
   6  20   1    1.45    2.36
  -6 -20   1    8.92    2.30
   6 -20  -1    6.12    2.20
  -8 -20  -1    4.30    2.06
   8  20  -1    6.99    3.55
   8 -20   1    1.27    1.72
   8  20   1    6.47    3.27
  -8 -20   1    3.76    2.21
   8 -20  -1    6.93    2.61
  -1  21   1    4.31    3.05
   1 -21   1   -0.50    1.18
  -1 -21  -1    2.83    1.79
   1  21  -1   -3.62    2.43
   1  21   1    0.12    3.04
  -1  21  -1    1.42    2.42
   1 -21  -1    0.72    1.45
  -1 -21   1    0.13    1.31
   3 -21   1    2.42    1.56
   3  21  -1   -2.24    3.24
  -3 -21  -1    4.29    1.97
   3  21   1    4.96    2.98
  -3 -21   1    2.13    1.54
   3 -21  -1    1.90    1.69
   5 -21   1    1.35    1.54
   5  21   1    3.50    3.02
   5 -21  -1   -1.61    1.31
  -5 -21   1    1.31    1.62
   7 -21   1    2.57    1.80
   7  21  -1    1.93    3.05
  -7 -21  -1    2.84    2.04
   7 -21  -1    0.29    1.85
  -7 -21   1    2.12    1.97
   0  22   1   -5.47    2.50
   0 -22   1   -0.14    1.38
   0  22  -1   -0.87    2.59
   0 -22  -1   -0.30    1.30
  -2 -22  -1   12.80    2.67
   2  22  -1    4.03    3.70
   2 -22   1    9.47    2.30
   2  22   1   12.90    4.35
  -2 -22   1    9.67    2.29
   2 -22  -1    9.46    2.37
   4  22  -1    7.34    5.54
  -4 -22  -1   -0.75    2.16
   4 -22   1    0.72    1.52
   4 -22  -1   -2.45    1.14
   4  22   1   -1.35    2.53
  -4 -22   1    0.88    1.50
   6  22  -1   -0.76    3.25
   6 -22   1    7.08    2.27
  -6 -22  -1    4.17    2.28
   6 -22  -1    3.58    2.33
  -6 -22   1    6.69    2.20
   6  22   1    7.26    3.73
  -1  23   1    3.69    3.24
   1 -23   1    5.00    1.89
   1  23   1    4.59    3.57
  -1 -23   1    2.50    2.33
  -3 -23  -1    0.72    1.79
   3  23  -1    8.97    4.38
   3  23   1    6.36    4.04
   3 -23  -1    4.95    2.03
  -3 -23   1    4.27    1.96
   5 -23   1    2.06    1.78
  -5 -23  -1    4.91    2.08
   5  23  -1    3.43    3.90
   5  23   1    0.51    2.83
  -5 -23   1   -2.06    1.52
   5 -23  -1    4.89    2.10
   0 -24   1    0.36    1.48
   0  24   1    4.42    3.79
   0  24  -1    0.09    2.88
   0 -24  -1    0.04    1.58
  -2 -24  -1   17.06    3.22
   2 -24   1   12.10    2.70
   2  24  -1   14.31    5.35
  -2  24   1   18.77    4.50
  -2  24  -1   16.37    4.18
   2 -24  -1   13.41    2.98
   2  24   1   12.81    5.15
  -2 -24   1   11.03    2.66
   4 -24   1   -1.98    1.26
  -4 -24  -1    3.41    2.08
   4  24  -1    4.45    4.03
  -4 -24   1    1.36    1.70
   4 -24  -1    0.01    1.63
   4  24   1   -2.03    3.39
   6  24  -1    4.40    4.43
   6 -24   1    5.79    2.18
  -6 -24  -1    5.09    2.26
   6  24   1    6.51    3.48
  -6 -24   1    5.62    2.43
   6 -24  -1    5.60    2.29
   1 -25   1    0.44    1.48
  -1 -25  -1    1.28    1.81
   1  25  -1   -2.37    2.69
  -1  25   1    0.32    3.00
  -1 -25   1    0.55    1.68
   1 -25  -1    0.16    1.62
  -1  25  -1   -0.24    2.99
   1  25   1   -2.96    2.97
  -3 -25  -1    0.77    1.95
   3  25  -1    1.18    3.31
   3 -25   1    0.43    1.67
   3 -25  -1   -1.76    1.47
  -3 -25   1    0.72    1.81
   3  25   1    4.17    3.73
  -5 -25  -1   -0.94    1.70
   5  25  -1   -5.83    4.12
   5 -25   1    0.73    1.57
   5  25   1   -0.66    3.07
  -5 -25   1   -1.79    1.82
   5 -25  -1   -0.23    2.01
   0  26  -1   20.41    5.02
   0  26   1   15.32    4.85
   0 -26   1    7.65    2.46
   0 -26  -1   14.26    3.05
  -2 -26  -1    0.11    1.85
   2  26  -1   -1.13    3.50
   2 -26   1   -1.83    1.44
  -2  26   1    4.81    3.41
   2 -26  -1    2.92    1.99
  -2 -26   1    0.52    1.84
  -2  26  -1    4.74    3.13
   2  26   1    2.58    4.33
   4  26  -1   11.35    5.14
   4 -26   1    4.76    2.34
  -4 -26  -1    2.25    2.37
   4  26   1    5.50    4.22
  -4 -26   1    8.31    2.42
   4 -26  -1    6.74    2.48
   1  27  -1   -1.44    3.35
  -1 -27  -1    2.06    1.87
   1 -27   1    3.02    1.94
  -1  27   1    1.75    3.16
   1 -27  -1    1.90    2.07
   1  27   1    0.60    3.10
  -1  27  -1    3.28    3.25
  -1 -27   1    2.63    1.88
   0   0  -2   97.52    2.62
   0   0  -2  101.05    2.72
   2   0  -2   91.11    3.21
   2   0  -2   93.95    3.40
  -2   0  -2   91.72    2.33
  -2   0   2   90.05    3.19
  -2   0   2   93.20    3.32
   4   0   2   46.72    1.61
  -4   0  -2   47.37    2.21
  -4   0   2   45.76    2.57
  -4   0  -2   44.80    2.03
   4   0   2   45.07    1.55
   4   0  -2   49.09    2.83
  -6   0   2   37.20    2.85
   6   0   2   33.43    1.88
   6   0  -2   36.97    3.02
   6   0  -2   34.62    2.73
  -6   0  -2   30.27    2.33
  -6   0   2   37.07    2.90
  -6   0  -2   33.17    2.38
   6   0   2   33.23    1.82
  -8   0  -2   15.61    2.23
  -8   0   2   15.27    2.57
   8   0   2   12.46    1.59
   8   0   2   13.81    1.63
   8   0  -2   14.03    2.60
   8   0  -2   13.66    2.30
  -8   0   2   10.47    2.52
  10   0   2    6.54    2.18
 -10   0   2    7.20    2.17
 -10   0  -2    7.28    1.98
  10   0  -2    6.80    2.35
  10   0   2    7.88    1.90
  12   0  -2    2.65    2.35
 -12   0   2    3.26    2.09
  12   0   2    0.19    1.66
 -12   0  -2    1.90    1.77
   1   1  -2   39.89    1.59
  -1   1   2   39.69    1.62
  -1   1   2   37.96    1.68
   1   1  -2   39.33    1.77
   1  -1  -2   37.10    1.65
   1  -1  -2   38.46    1.68
  -1  -1   2   37.03    1.74
  -1  -1   2   36.87    1.54
  -3  -1  -2   39.78    1.65
   3   1  -2   39.94    2.14
   3   1  -2   40.75    2.34
  -3   1   2   40.86    2.25
  -3  -1  -2   39.83    1.59
  -3   1   2   40.18    2.17
   3  -1  -2   40.10    2.18
   3  -1  -2   37.96    2.27
  -3  -1   2   37.96    2.09
  -3   1  -2   39.30    1.71
  -3  -1   2   38.75    2.23
  -3   1  -2   38.91    1.58
   5  -1   2   16.36    1.17
  -5   1   2   15.59    1.82
   5   1  -2   16.14    1.73
  -5  -1  -2   16.63    1.54
  -5   1   2   17.10    1.94
   5  -1   2   17.00    1.15
  -5  -1  -2   18.06    1.54
   5   1  -2   17.28    2.00
  -5  -1   2   15.51    1.87
   5   1   2   16.21    1.08
   5  -1  -2   17.22    2.02
  -5   1  -2   16.83    1.55
   5  -1  -2   15.96    1.78
   5   1   2   16.76    1.17
  -5   1  -2   15.86    1.58
  -5  -1   2   17.24    1.85
  -7  -1  -2   16.60    2.14
  -7  -1  -2   17.03    2.27
   7   1  -2   14.12    2.12
   7  -1   2   14.92    1.54
   7   1  -2   18.31    2.70
   7  -1   2   15.76    1.59
  -7   1   2   15.10    2.39
  -7   1   2   15.23    2.76
  -7  -1   2   13.49    2.28
   7  -1  -2   14.50    2.26
  -7   1  -2   16.85    2.17
   7   1   2   18.69    1.63
  -7   1  -2   18.35    2.21
  -7  -1   2   15.79    2.35
   7   1   2   14.70    1.55
   7  -1  -2   14.23    2.42
  -9  -1  -2    3.44    1.50
   9   1  -2    5.05    1.85
  -9   1   2    4.83    1.82
   9  -1   2    2.21    1.15
   9  -1   2    1.95    1.30
   9   1   2    2.80    1.10
  -9   1  -2    4.66    1.59
   9  -1  -2    2.95    1.74
   9   1   2    1.96    1.12
  -9  -1   2    3.11    1.66
 -11   1   2    2.41    1.89
  11  -1   2    3.50    1.28
  11   1  -2    1.00    2.01
 -11  -1  -2   -0.11    1.61
 -11   1  -2    3.73    1.92
  11  -1  -2    3.84    2.30
  11   1   2    3.52    1.47
  11   1   2    0.55    1.37
 -11  -1   2    3.29    1.99
   0   2   2  200.72    5.42
   0   2  -2  229.17    5.50
   0  -2   2  224.65    5.37
   0  -2  -2  219.66    5.53
  -2   2   2  483.75   11.99
  -2  -2  -2  449.09   10.91
   2   2  -2  471.22   11.73
  -2  -2  -2  464.47   10.95
  -2   2   2  460.94   11.90
   2   2  -2  445.94   12.10
  -2   2  -2  465.55   11.00
  -2  -2   2  476.49   12.10
  -2  -2   2  455.30   11.72
   2  -2  -2  456.68   11.90
  -2   2  -2  441.29   11.03
   2  -2  -2  452.51   11.96
   4   2  -2  111.95    4.26
   4  -2   2  107.18    3.22
   4   2  -2  109.43    4.64
  -4   2   2  107.55    4.98
  -4  -2  -2  106.54    3.77
  -4  -2  -2  112.83    3.70
  -4   2   2  104.97    4.31
   4  -2   2  111.79    3.19
   4   2   2  108.62    3.07
  -4   2  -2  104.49    3.89
   4   2   2  111.23    3.16
  -4   2  -2  106.61    3.68
  -4  -2   2  112.20    5.10
   4  -2  -2  110.93    4.57
  -4  -2   2  111.91    4.33
   4  -2  -2  106.42    4.37
   6   2  -2  149.68    6.44
  -6   2   2  145.91    6.15
   6  -2   2  141.32    4.73
   6   2  -2  149.23    5.81
  -6  -2  -2  149.43    5.60
   6  -2   2  151.15    4.71
  -6   2   2  148.58    6.03
  -6  -2  -2  148.24    5.40
  -6   2  -2  141.65    5.37
  -6   2  -2  153.18    5.80
   6  -2  -2  147.66    6.31
   6   2   2  148.06    4.80
   6   2   2  149.28    4.62
  -6  -2   2  146.90    6.20
  -6  -2   2  150.41    5.98
   6  -2  -2  151.84    6.02
   8  -2   2   22.60    1.96
  -8  -2  -2   24.80    2.63
   8   2  -2   29.93    3.73
  -8   2   2   23.65    3.18
   8  -2   2   22.19    2.00
   8   2  -2   25.92    3.09
  -8  -2   2   29.42    3.09
   8   2   2   24.10    1.96
   8  -2  -2   22.67    2.61
   8   2   2   22.87    2.00
   8  -2  -2   24.94    3.32
  -8   2  -2   26.86    4.68
  -8   2  -2   23.05    2.50
 -10  -2  -2   30.91    3.46
  10  -2   2   23.32    2.34
  10  -2   2   15.20    3.05
  10   2  -2   21.74    3.48
 -10   2   2   22.92    3.47
  10  -2  -2   18.84    3.21
  10   2   2   25.42    3.43
 -10   2  -2   26.52    3.17
 -10  -2   2   21.16    3.19
  10   2   2   19.97    3.05
 -12   2   2    1.47    1.96
  12  -2   2    4.49    1.53
 -12  -2  -2    2.33    2.02
  12   2  -2   -1.17    2.23
 -12   2  -2    7.28    2.59
 -12  -2   2    2.93    2.05
  12  -2  -2    1.54    2.06
  12   2   2    2.29    1.48
  -1  -3  -2  174.67    4.57
   1   3  -2  181.51    5.00
  -1   3   2  181.12    5.05
   1   3  -2  175.11    5.60
   1  -3   2  181.57    4.31
   1  -3   2  149.82    4.40
  -1  -3  -2  179.45    4.73
   1  -3  -2  183.73    5.44
  -1   3  -2  173.07    4.64
  -1  -3   2  178.62    4.94
  -1  -3   2  186.09    5.64
   1  -3  -2  183.24    5.18
   3   3  -2  125.08    4.80
   3  -3   2  126.07    3.39
  -3  -3  -2  127.12    3.88
  -3   3   2  130.78    4.60
   3  -3   2  126.34    3.40
  -3   3   2  118.13    4.46
  -3  -3  -2  127.78    3.85
   3   3  -2  126.56    4.35
  -3   3  -2  125.81    3.86
  -3  -3   2  130.52    4.41
  -3   3  -2  121.49    3.99
   3   3   2  130.36    3.25
   3  -3  -2  127.07    4.66
  -3  -3   2  130.54    4.71
   3   3   2  105.29    3.56
   3  -3  -2  123.88    4.54
  -5   3   2   87.42    4.21
   5   3  -2   85.54    4.44
  -5  -3  -2   82.83    3.52
   5  -3   2   87.35    3.12
   5   3  -2   91.63    4.01
  -5   3   2   87.33    4.23
   5  -3   2   85.97    3.06
   5  -3  -2   92.51    4.25
  -5   3  -2   85.15    5.45
   5   3   2   92.27    3.18
   5   3   2   85.46    2.94
  -5  -3   2   96.90    4.25
   5  -3  -2   84.72    4.33
  -5  -3   2   90.61    4.31
  -5   3  -2   92.42    3.68
  -7   3   2   38.91    3.22
   7  -3   2   39.09    2.35
  -7  -3  -2   39.16    3.16
   7   3  -2   29.42    3.32
  -7  -3  -2   39.75    2.90
   7   3  -2   36.15    2.89
   7  -3   2   37.91    2.26
   7   3   2   39.09    2.19
   7  -3  -2   34.46    3.23
   7  -3  -2   38.96    3.12
  -7  -3   2   37.09    3.18
  -7   3  -2   40.62    3.07
   7   3   2   36.78    2.30
  -9  -3  -2   18.76    2.78
   9   3  -2   22.78    3.44
  -9   3   2   19.40    2.94
   9  -3   2   19.64    3.23
   9  -3  -2   16.59    2.92
  -9  -3   2   26.46    3.52
   9   3   2   20.77    2.32
   9   3   2   21.93    2.03
  -9   3  -2   23.15    3.03
 -11   3   2    6.50    2.36
  11   3  -2    5.89    2.24
  11  -3   2    4.26    1.84
  11  -3   2    8.24    1.64
 -11  -3  -2    3.51    1.95
  11   3   2    5.58    1.55
 -11   3  -2    4.27    2.50
 -11  -3   2    9.55    2.61
  11   3   2    2.44    1.61
  11  -3  -2    4.76    2.28
   0   4  -2  168.05    4.75
   0  -4   2  166.58    4.57
   0   4   2  167.86    4.62
   0  -4  -2  173.18    4.82
   2  -4   2    3.33    0.51
   2   4  -2    3.91    1.11
   2   4  -2    2.84    0.75
  -2  -4  -2    3.02    0.57
   2  -4   2    2.57    0.42
  -2   4   2    3.33    0.93
  -2  -4  -2    3.23    0.61
  -2   4   2    2.98    0.77
  -2  -4   2    4.30    1.06
  -2  -4   2    2.80    0.72
   2  -4  -2    4.22    0.95
   2   4   2    3.11    0.40
  -2   4  -2    2.15    0.60
   2   4   2    2.99    0.33
   2  -4  -2    1.44    0.79
  -2   4  -2    2.54    0.58
  -4  -4  -2   80.26    3.27
   4   4  -2   82.54    4.11
   4  -4   2   85.60    2.86
  -4   4   2   84.73    3.88
  -4   4   2   76.73    3.71
   4   4  -2   87.06    3.65
  -4  -4  -2   79.25    3.22
   4  -4   2   81.92    2.84
   4   4   2   81.14    2.68
   4  -4  -2   81.40    3.82
  -4  -4   2   87.34    4.01
   4  -4  -2   82.41    3.90
   4   4   2   86.32    2.85
  -4   4  -2   87.05    3.55
  -4  -4   2   82.47    3.67
  -4   4  -2   82.07    3.27
   6   4  -2    0.45    1.02
   6  -4   2    0.53    0.67
   6  -4   2    0.09    0.64
  -6  -4  -2    0.73    0.93
  -6   4   2   -0.39    0.99
   6   4  -2    1.32    1.22
  -6  -4  -2   -0.28    0.84
  -6   4   2    1.45    1.17
  -6   4  -2    1.99    0.99
  -6   4  -2    1.07    0.97
   6   4   2    0.49    0.67
   6   4   2    0.97    0.67
   6  -4  -2    1.57    1.24
  -6  -4   2    1.72    1.16
  -6  -4   2    1.13    1.12
   6  -4  -2    0.16    1.10
  -8  -4  -2   18.71    2.65
   8  -4   2   19.86    1.99
   8   4  -2   22.74    3.38
   8   4  -2   18.20    2.56
   8  -4   2   18.91    2.00
  -8  -4  -2   24.02    2.64
  -8   4   2   21.06    2.96
   8  -4  -2   19.70    2.93
  -8   4  -2   22.46    2.60
   8  -4  -2   19.22    2.88
  -8   4  -2   18.09    2.56
   8   4   2   18.91    1.96
   8   4   2   19.43    1.81
  -8  -4   2   22.40    3.04
 -10  -4  -2   -1.24    1.22
  10  -4   2   -1.77    1.28
  10   4  -2   -0.60    1.66
 -10   4   2   -1.35    1.53
  10  -4   2    1.10    1.10
 -10  -4   2    2.34    1.84
  10   4   2   -0.38    1.95
  10   4   2    0.72    1.66
 -10   4  -2   -0.94    1.20
  10  -4  -2   -1.18    1.47
 -12   4   2    0.01    2.02
  12  -4   2    2.86    1.44
 -12  -4  -2    4.75    2.06
  12   4  -2    4.88    2.66
  12   4   2    1.84    1.41
 -12   4  -2   -3.12    1.61
 -12  -4   2   -0.76    1.59
  12  -4  -2    1.10    2.13
  -1   5   2   34.94    1.78
   1  -5   2   32.87    1.45
   1   5  -2   36.03    1.83
  -1  -5  -2   33.19    1.65
   1   5  -2   33.16    2.54
  -1   5  -2   32.50    1.67
  -1  -5   2   36.39    1.75
   1  -5  -2   36.08    1.92
   1   5   2   33.65    1.40
   1   5   2   31.72    1.72
  -3  -5  -2   21.47    1.48
   3   5  -2   22.60    1.72
  -3  -5  -2   21.97    1.53
  -3   5   2   24.89    2.05
   3  -5   2   24.19    1.36
   3  -5   2   21.41    1.25
  -3   5   2   19.73    1.70
   3   5  -2   21.32    2.13
  -3   5  -2   23.73    1.62
   3  -5  -2   24.25    2.08
  -3   5  -2   23.75    1.63
   3   5   2   22.87    1.26
   3  -5  -2   20.68    1.83
  -3  -5   2   24.35    2.07
   3   5   2   22.49    1.16
  -3  -5   2   19.57    1.65
   5  -5   2   14.09    1.34
   5  -5   2   13.53    1.35
   5   5  -2   15.39    1.86
  -5   5   2   12.44    1.91
  -5  -5  -2   12.84    1.67
  -5  -5  -2   12.97    1.56
   5  -5  -2   17.02    2.32
  -5   5  -2   16.80    1.83
   5   5   2   12.65    1.19
  -5  -5   2   17.02    1.99
   5   5   2   14.85    1.36
  -5   5  -2   14.73    1.69
   7   5  -2    9.27    2.26
   7  -5   2    5.45    1.17
  -7   5   2    3.89    1.57
   7  -5   2    7.77    1.36
  -7   5   2    8.36    2.01
  -7  -5  -2    6.64    1.55
   7   5  -2    7.10    1.75
  -7  -5  -2    8.40    1.93
  -7   5  -2    7.17    1.86
  -7  -5   2    6.01    1.82
  -7  -5   2    5.32    1.71
  -7   5  -2    8.56    1.77
   7  -5  -2    4.58    1.64
   7   5   2    7.34    1.19
   7  -5  -2    4.72    1.70
   7   5   2    5.62    1.18
   9  -5   2    2.87    1.29
  -9  -5  -2    4.87    1.80
   9   5  -2    0.08    1.54
  -9   5   2    3.16    1.73
   9  -5   2    2.53    1.75
  -9  -5   2    1.30    1.49
   9  -5  -2    3.48    1.89
   9   5   2    3.13    1.60
  -9   5  -2    1.06    1.29
  11  -5   2    1.32    1.57
 -11   5   2    5.15    2.14
  11  -5   2   -0.53    1.15
 -11  -5   2    1.77    1.68
  11   5   2   -2.02    1.41
  11   5   2   -0.18    1.30
  11  -5  -2    0.03    1.69
   0   6   2  222.09    6.13
   0  -6   2  218.88    6.05
   0   6  -2  213.74    6.30
   0  -6  -2  216.64    6.33
   2   6  -2    7.93    1.18
  -2   6   2    5.58    1.01
  -2  -6  -2    6.74    1.10
   2  -6   2    5.81    1.01
   2   6  -2    6.16    1.48
  -2  -6  -2    5.54    0.90
   2  -6   2    4.99    0.74
   2  -6  -2    6.10    1.19
   2   6   2    5.93    0.75
  -2   6  -2    6.73    1.01
   2  -6  -2    6.60    1.36
  -2  -6   2    6.33    1.06
   2   6   2    5.41    0.85
  -2  -6   2    5.36    1.22
   4   6  -2  116.87    4.63
   4  -6   2  119.84    4.10
  -4   6   2  115.02    4.83
  -4   6   2  123.96    5.11
   4  -6   2  120.14    3.97
   4   6  -2  115.14    5.37
  -4  -6  -2  116.72    4.46
  -4  -6  -2  119.04    4.39
  -4  -6   2  116.09    4.64
   4   6   2  114.85    3.76
  -4   6  -2  121.70    4.55
   4   6   2  112.50    3.94
   4  -6  -2  118.21    5.12
  -4  -6   2  115.28    5.11
   4  -6  -2  113.97    4.94
  -6   6   2    1.26    1.17
   6  -6   2    2.21    0.92
   6   6  -2    2.19    1.43
  -6   6   2    2.94    1.36
   6   6  -2    2.56    1.17
   6  -6   2    1.81    0.90
  -6  -6  -2    2.70    1.20
  -6  -6  -2    1.71    0.95
  -6  -6   2    2.12    1.19
   6  -6  -2    2.71    1.45
   6  -6  -2    2.70    1.47
  -6  -6   2    4.16    1.43
  -6   6  -2    2.78    1.13
  -6   6  -2    2.36    1.16
   6   6   2    3.87    0.97
   6   6   2    1.81    0.79
  -8  -6  -2   31.89    2.87
   8   6  -2   28.19    3.05
  -8  -6  -2   35.13    3.17
  -8   6   2   32.71    3.41
   8   6  -2   25.63    3.64
  -8  -6   2   31.32    3.32
   8   6   2   30.79    2.28
  -8   6  -2   34.41    3.16
   8   6   2   31.37    2.45
   8  -6  -2   31.09    3.66
   8  -6  -2   30.23    3.28
  -8   6  -2   29.43    3.10
 -10  -6  -2    1.71    1.55
  10  -6   2    0.26    1.30
  10   6  -2    1.35    1.86
 -10   6   2    1.31    2.09
  10  -6   2   -0.96    1.00
  10   6   2    3.53    2.26
  10  -6  -2   -1.12    1.30
  10   6   2    1.37    1.17
 -10   6  -2   -0.77    1.42
   1   7  -2   57.60    3.96
   1   7  -2   60.52    2.80
  -1  -7  -2   63.15    2.76
  -1   7   2   66.31    2.81
   1  -7   2   64.06    2.51
   1   7   2   61.93    3.28
  -1   7  -2   62.92    2.78
   1   7   2   64.08    2.47
  -1  -7   2   64.17    2.69
   1  -7  -2   68.86    3.02
  -3   7   2   42.51    2.62
  -3  -7  -2   42.12    2.32
   3   7  -2   42.91    2.53
   3   7  -2   43.38    3.23
   3  -7   2   42.19    2.38
   3  -7   2   41.75    2.07
  -3  -7  -2   44.62    2.52
  -3  -7   2   41.23    2.89
   3   7   2   42.39    2.22
  -3  -7   2   42.51    2.50
   3   7   2   45.26    2.01
   3  -7  -2   41.34    2.98
   3  -7  -2   45.19    2.78
  -3   7  -2   48.69    2.56
  -5   7   2   31.85    2.83
   5  -7   2   32.58    2.09
  -5   7   2   33.00    2.68
   5  -7   2   31.80    2.17
  -5  -7  -2   33.17    2.45
   5   7  -2   32.65    2.58
   5   7  -2   30.58    3.16
  -5  -7  -2   31.43    2.46
  -5  -7   2   32.28    2.86
  -5   7  -2   30.72    2.55
   5   7   2   32.94    2.15
  -5  -7   2   29.76    2.53
   5  -7  -2   32.16    2.93
   5  -7  -2   33.52    2.81
   5   7   2   34.35    1.97
  -5   7  -2   33.87    2.50
  -7   7   2   12.78    2.29
   7  -7   2   11.69    1.68
  -7  -7  -2   18.41    2.54
   7   7  -2   14.90    2.81
  -7  -7  -2   10.92    1.88
  -7   7   2   18.46    2.80
   7  -7  -2    9.33    2.21
   7   7   2   18.78    1.73
  -7  -7   2   11.52    2.28
  -7   7  -2   12.34    2.62
  -7  -7   2   12.57    2.28
   7   7   2   14.03    1.80
  -7   7  -2   11.62    2.05
   7  -7  -2   13.56    2.44
  -9  -7  -2    7.20    2.05
   9  -7   2    8.59    1.67
  -9   7   2    8.61    2.35
   9   7  -2    8.74    2.66
   9  -7   2    9.27    1.63
   9  -7  -2   12.30    2.54
  -9  -7   2    9.24    2.38
  -9   7  -2    9.89    2.12
   9   7   2    3.46    1.82
   9   7   2   11.00    2.63
  11  -7   2    2.88    1.41
 -11   7   2    1.26    2.02
  11  -7   2    0.92    1.84
 -11  -7  -2    5.29    2.20
  11   7  -2    2.29    2.19
 -11  -7   2    0.89    1.80
  11  -7  -2    3.80    2.16
  11   7   2    0.40    1.24
 -11   7  -2    0.47    1.88
  11   7   2    1.85    1.72
   0   8  -2  260.93    7.68
   0   8   2  245.53    7.32
   0  -8  -2  263.32    7.74
   0  -8   2  260.39    7.34
   2   8  -2  141.00    5.05
   2  -8   2  129.36    5.31
  -2  -8  -2  140.80    4.84
  -2  -8  -2  137.02    5.34
  -2   8   2  140.85    5.07
   2   8  -2  141.43    6.53
   2  -8   2  140.89    4.52
   2  -8  -2  135.92    6.11
  -2  -8   2  142.14    6.01
  -2  -8   2  144.59    4.92
   2   8   2  146.90    4.50
  -2   8  -2  131.07    4.86
   2   8   2  134.64    5.12
   2  -8  -2  140.90    5.19
  -4  -8  -2  153.28    5.76
   4  -8   2  154.49    5.09
  -4  -8  -2  148.84    5.47
   4  -8   2  157.83    5.51
   4   8  -2  147.33    5.70
   4   8  -2  148.20    6.88
  -4   8   2  145.81    5.85
   4   8   2  150.55    4.89
  -4  -8   2  150.97    5.75
  -4   8  -2  144.72    5.68
   4  -8  -2  144.55    6.04
   4   8   2  161.36    5.40
  -4  -8   2  156.21    6.41
   4  -8  -2  160.36    6.67
   6  -8   2   49.60    2.95
  -6   8   2   44.32    3.44
   6   8  -2   42.79    3.26
  -6   8   2   45.27    3.62
  -6  -8  -2   47.66    3.27
   6   8  -2   50.67    4.13
   6  -8   2   45.68    2.72
  -6   8  -2   39.77    3.19
  -6   8  -2   49.19    3.59
   6   8   2   45.37    2.84
   6   8   2   49.02    2.60
  -6  -8   2   44.17    3.33
   6  -8  -2   46.30    3.53
   6  -8  -2   45.08    3.87
  -6  -8   2   44.94    3.63
  -8   8   2   39.50    3.82
   8  -8   2   42.66    2.95
   8  -8   2   36.56    2.81
  -8  -8  -2   35.93    3.38
   8   8  -2   39.60    4.31
  -8   8  -2   42.61    3.58
   8  -8  -2   37.98    3.60
  -8  -8   2   38.35    3.70
 -10   8   2    8.82    2.64
  10  -8   2    4.03    1.65
  10   8  -2    2.24    2.49
 -10  -8  -2   10.44    2.42
  10  -8   2    7.58    1.70
 -10  -8   2    8.12    2.42
 -10   8  -2    4.98    2.14
  10   8   2    6.32    2.10
  10   8   2    6.60    1.60
  -1  -9  -2  105.91    4.19
   1   9  -2   95.20    5.78
  -1   9   2  107.32    4.14
   1   9  -2  107.96    4.26
   1  -9   2  106.29    3.84
   1   9   2  104.59    5.19
  -1  -9   2  105.72    4.01
   1  -9  -2  100.14    4.24
   1   9   2  106.97    3.85
   3   9  -2   89.05    5.33
   3   9  -2   92.36    4.11
  -3   9   2   91.36    4.17
  -3  -9  -2   87.29    4.24
   3  -9   2   97.87    3.67
  -3  -9  -2   95.11    3.97
   3  -9   2   90.47    4.30
  -3  -9   2   92.70    4.77
  -3  -9   2   89.19    3.98
   3   9   2   91.94    3.51
   3  -9  -2   86.08    4.20
   3   9   2   92.46    4.12
   3  -9  -2   91.39    5.00
  -3   9  -2   89.53    4.02
  -5  -9  -2   42.67    3.04
   5  -9   2   48.90    3.08
  -5  -9  -2   47.15    3.16
   5   9  -2   43.66    3.10
   5  -9   2   47.82    2.73
   5   9  -2   45.05    3.94
  -5   9   2   47.55    3.37
  -5   9  -2   46.83    3.27
  -5  -9   2   46.24    3.53
   5   9   2   49.73    2.92
   5  -9  -2   46.59    3.38
  -5  -9   2   41.94    3.11
   5  -9  -2   42.35    3.73
   5   9   2   46.48    2.53
   7   9  -2   31.90    3.23
   7  -9   2   31.88    2.68
  -7  -9  -2   37.71    3.25
  -7  -9  -2   31.73    3.14
   7   9  -2   33.70    4.30
  -7   9   2   29.61    3.23
  -7   9   2   26.76    5.56
   7  -9   2   31.80    2.76
   7  -9  -2   32.15    4.14
   7  -9  -2   34.58    3.34
   7   9   2   35.09    2.74
  -7   9  -2   35.14    3.14
  -7   9  -2   35.89    3.44
  -7  -9   2   33.67    3.26
  -9  -9  -2    9.98    2.38
   9  -9   2    9.70    1.88
   9   9  -2    8.58    2.67
   9  -9   2    7.54    1.65
  -9   9   2   12.79    2.74
   9   9   2    8.38    1.62
  -9   9  -2    9.33    2.32
  -9  -9   2    9.19    2.45
   9  -9  -2    5.02    1.92
   9   9   2    7.40    1.75
  11  -9   2    3.69    1.43
 -11  -9  -2    8.29    2.58
  11   9  -2    2.30    2.46
 -11   9   2    5.44    2.54
  11  -9   2    5.62    2.22
 -11   9  -2    5.68    2.42
  11  -9  -2    5.59    2.32
  11   9   2    7.23    2.23
  11   9   2    3.21    1.50
 -11  -9   2    6.80    2.39
   0 -10   2   22.68    1.76
   0 -10  -2   21.35    1.98
   0  10   2   23.77    1.76
   0  10  -2   19.35    1.91
   2  10  -2   20.43    2.01
   2 -10   2   17.58    2.52
  -2 -10  -2   20.66    1.94
   2  10  -2   20.12    3.38
  -2  10   2   18.75    1.80
   2 -10   2   19.04    1.66
  -2  10  -2   18.63    1.89
   2  10   2   17.84    2.40
  -2 -10   2   18.04    1.77
   2  10   2   17.82    1.55
   2 -10  -2   16.25    2.82
   2 -10  -2   16.64    1.89
   4  10  -2   16.79    3.20
   4  10  -2   19.33    2.42
  -4  10   2   15.62    2.28
   4 -10   2   14.41    1.63
  -4 -10  -2   16.82    2.01
  -4 -10  -2   14.78    2.18
   4 -10   2   12.52    2.12
   4  10   2   12.96    1.87
  -4 -10   2   16.13    2.60
   4  10   2   14.13    1.57
  -4 -10   2   17.07    2.33
   4 -10  -2   11.92    2.47
   4 -10  -2   15.62    2.29
  -4  10  -2   14.08    2.02
   6 -10   2    9.89    1.89
  -6 -10  -2   12.26    2.13
   6  10  -2    5.18    2.20
  -6  10   2    8.25    1.87
  -6 -10  -2   10.38    2.01
   6 -10  -2    6.08    2.58
   6  10   2    9.45    1.73
  -6  10  -2    9.83    1.95
  -6 -10   2    8.75    2.18
   6  10   2    7.63    2.11
  -6 -10   2    9.26    1.97
   6 -10  -2    9.11    2.05
  -8 -10  -2    1.92    1.59
   8 -10   2    1.97    1.47
   8 -10   2    3.32    1.33
  -8  10   2    2.19    1.58
   8  10  -2    4.35    2.32
   8  10   2    1.60    1.30
  -8  10  -2    5.77    1.83
   8 -10  -2    2.45    1.62
   8  10   2    3.21    1.15
  -8 -10   2    3.34    1.82
  10 -10   2    5.30    1.93
  10 -10   2    1.57    1.27
 -10  10   2    2.21    1.81
  10  10  -2    0.77    2.37
 -10 -10  -2    0.91    1.73
  10  10   2    1.87    1.48
 -10 -10   2    0.30    1.94
  10  10   2    0.81    1.27
  10 -10  -2   -0.42    1.50
 -10  10  -2    0.95    2.57
   1  11  -2    3.24    1.98
   1 -11   2    3.57    1.00
  -1  11   2    4.18    1.10
  -1 -11  -2    2.99    1.17
   1  11  -2    2.86    1.07
  -1  11  -2    5.13    1.30
   1  11   2    5.43    1.93
   1  11   2    4.61    1.02
   1 -11  -2    2.69    1.12
  -1 -11   2    2.26    1.01
   3  11  -2    2.45    1.12
   3 -11   2    3.82    2.25
   3 -11   2    2.17    0.99
  -3 -11  -2    1.84    1.13
   3  11  -2    0.32    1.51
  -3  11   2    2.24    1.09
  -3 -11  -2    3.23    1.22
  -3  11  -2    2.24    1.01
   3 -11  -2    2.27    1.22
   3  11   2    2.02    1.22
   3 -11  -2    3.16    1.74
   3  11   2    2.67    0.91
  -3 -11   2    1.26    1.07
  -3 -11   2    1.90    1.30
   5  11  -2    1.98    1.36
  -5  11   2    4.61    1.45
  -5 -11  -2    2.98    1.34
   5 -11   2    3.30    1.41
   5  11  -2    2.29    1.95
   5 -11   2    5.20    1.57
  -5 -11  -2    3.11    1.37
  -5  11  -2    1.22    1.14
   5 -11  -2    1.08    1.56
  -5 -11   2    1.88    1.35
   5 -11  -2    3.23    1.51
  -5 -11   2    2.60    1.44
   5  11   2    3.94    1.29
  -7 -11  -2    0.25    1.26
  -7 -11  -2    2.59    1.55
   7  11  -2    3.02    2.03
   7 -11   2   -1.74    1.20
   7 -11   2    0.56    1.10
   7  11  -2   -0.89    1.56
   7 -11  -2    3.91    1.76
  -7 -11   2   -0.23    1.18
   7  11   2    0.71    0.94
   7  11   2    0.81    1.13
   9  11  -2   -1.47    1.87
  -9 -11  -2   -1.09    1.31
   9 -11   2    0.74    1.67
   9 -11   2    0.67    1.19
  -9  11  -2    0.89    1.54
   9  11   2    3.12    1.34
   9 -11  -2    0.06    1.49
   9  11   2   -0.84    1.13
 -11  11   2    3.26    2.11
 -11 -11  -2    1.04    2.10
  11 -11   2    0.85    1.40
  11  11  -2    0.32    2.34
  11 -11  -2   -0.41    1.96
 -11 -11   2    0.62    1.76
  11  11   2    1.30    1.44
 -11  11  -2   -0.35    1.90
   0 -12  -2   37.82    2.77
   0  12  -2   35.69    2.73
   0 -12   2   33.25    2.34
   0  12   2   36.63    2.39
   2 -12   2  182.42    8.42
  -2 -12  -2  225.20    7.49
  -2  12   2  204.24    7.33
   2 -12   2  214.05    6.90
   2  12  -2  208.28    7.41
   2  12  -2  200.21   10.11
   2  12   2  211.25    8.62
  -2 -12   2  215.24    7.29
   2 -12  -2  211.57    9.39
  -2  12  -2  213.46    7.51
   4  12  -2   20.87    3.76
  -4 -12  -2   23.66    2.97
   4 -12   2   16.70    2.55
   4  12  -2   19.07    2.50
   4 -12   2   21.99    3.00
  -4 -12  -2   20.17    2.89
  -4  12   2   20.60    2.24
   4 -12  -2   23.23    3.78
  -4 -12   2   21.67    3.04
   4  12   2   19.83    2.10
   4 -12  -2   21.98    2.51
  -4 -12   2   18.54    2.40
  -4  12  -2   20.85    2.73
   4  12   2   17.93    2.54
  -6 -12  -2   83.64    5.05
  -6  12   2   81.81    5.15
   6  12  -2   80.00    6.02
  -6 -12  -2  102.86    5.26
   6 -12   2   87.87    4.31
   6  12  -2   80.78    4.86
   6 -12   2   85.27    4.95
   6 -12  -2   93.88    6.24
  -6  12  -2   73.61    5.04
  -6 -12   2   71.79    7.86
   6 -12  -2   92.24    5.31
   6  12   2   91.84    4.15
   8 -12   2    2.87    1.68
   8 -12   2    4.22    1.53
  -8 -12  -2    3.46    1.63
   8  12  -2    1.89    1.98
   8  12   2    4.47    1.52
   8 -12  -2    1.84    1.75
   8  12   2    3.45    1.36
  -8 -12   2    3.91    1.74
 -10 -12  -2   15.53    3.04
  10 -12   2   14.59    2.74
  10 -12   2   13.65    2.22
  10  12  -2   16.54    3.86
 -10 -12   2   13.42    2.96
  10  12   2   10.34    2.20
  10  12   2   13.13    2.15
  10 -12  -2   17.71    3.29
  -1 -13  -2   38.78    2.97
   1  13  -2   37.60    2.96
  -1  13   2   38.13    2.68
   1 -13   2   39.24    3.03
   1  13  -2   34.67    5.09
   1  13   2   38.80    4.31
   1 -13  -2   37.78    2.98
   1  13   2   36.94    2.54
  -1  13  -2   38.10    2.91
  -1 -13   2   40.89    2.72
   3  13  -2   26.63    2.77
   3  13  -2   20.56    3.95
  -3  13   2   27.80    2.64
   3 -13   2   28.23    2.67
   3 -13   2   23.81    3.41
  -3 -13  -2   30.52    2.75
   3  13   2   27.71    2.26
   3 -13  -2   30.44    2.79
  -3  13  -2   25.63    2.58
   3  13   2   26.28    3.10
   3 -13  -2   27.60    4.25
  -3 -13   2   32.26    2.65
  -5 -13  -2   21.34    3.97
   5 -13   2   18.16    2.20
   5  13  -2   19.86    2.68
  -5  13   2   20.97    2.91
  -5 -13  -2   18.70    2.63
   5  13  -2   20.12    4.04
   5 -13   2   22.24    3.04
   5  13   2   18.76    2.09
   5  13   2   16.09    2.45
   5 -13  -2   22.37    3.89
  -5 -13   2   18.46    2.88
  -5 -13   2   22.06    2.63
   5 -13  -2   17.45    2.72
  -5  13  -2   22.51    2.98
   7 -13   2    6.54    2.14
   7 -13   2    9.55    1.83
   7  13  -2   10.63    3.13
  -7 -13  -2    5.84    1.94
  -7 -13   2    9.06    2.22
   7 -13  -2   12.26    2.51
   7  13   2    8.43    1.99
   7  13   2    7.31    1.65
   9 -13   2    3.60    1.59
   9  13  -2    3.30    4.40
  -9 -13  -2    9.53    2.57
   9 -13   2   -1.00    2.17
  -9 -13   2    8.63    2.50
   9  13   2    2.82    1.63
   9 -13  -2    2.49    1.80
   9  13   2    4.54    1.80
   0 -14  -2    9.45    1.99
   0  14   2    4.68    2.68
   0  14   2    5.34    1.35
   0  14  -2   10.47    3.11
   0  14  -2    8.70    1.78
   0 -14   2    5.67    1.41
   2  14  -2   11.19    3.44
   2  14  -2   21.89    2.42
  -2  14   2   15.53    2.19
   2 -14   2   16.65    2.13
  -2 -14  -2   16.72    2.37
  -2 -14   2   15.19    2.15
   2  14   2   17.48    1.99
   2 -14  -2   15.62    2.50
  -2  14  -2   17.89    2.53
   2  14   2   14.84    3.65
   4 -14   2    5.16    2.16
   4 -14   2    0.53    1.04
   4  14  -2    5.41    1.68
  -4 -14  -2    3.75    1.52
  -4  14   2    4.01    1.92
   4  14  -2    6.99    2.81
   4 -14  -2    4.41    2.69
   4  14   2    3.81    1.25
  -4  14  -2    5.11    1.82
  -4 -14   2    3.68    1.50
   4 -14  -2    2.41    1.46
   4  14   2    4.31    1.72
  -6 -14  -2    7.11    2.05
   6  14  -2    8.75    2.84
   6 -14   2    9.53    1.91
   6 -14   2    2.37    2.00
   6  14   2    7.04    2.00
   6 -14  -2    5.78    1.98
  -6 -14   2    8.54    2.10
   6  14   2    3.66    1.41
   8 -14   2   -1.88    1.05
   8 -14   2    1.64    2.05
   8  14  -2   -3.15    1.89
  -8 -14  -2    0.39    1.55
   8  14   2    0.54    1.37
  -8 -14   2   -0.26    2.14
   8 -14  -2    3.53    1.85
   8  14   2    0.73    1.41
 -10 -14  -2   -0.36    1.81
  10  14  -2    3.31    3.13
  10 -14   2    2.60    1.52
  10  14   2    2.81    1.62
 -10 -14   2   -0.17    1.86
  10 -14  -2   -0.86    1.83
  10  14   2    4.41    3.85
  -1 -15  -2   33.55    3.19
   1  15  -2   31.21    3.05
   1 -15   2   34.04    2.75
   1  15  -2   48.88    5.71
  -1  15   2   36.32    2.88
  -1 -15   2   37.23    2.87
   1 -15  -2   42.95    3.45
   1  15   2   35.72    5.18
  -1  15  -2   37.15    3.13
   1  15   2   33.99    2.69
   3  15  -2   23.62    3.00
   3  15  -2   24.76    4.72
   3 -15   2   31.76    2.66
   3 -15   2   26.98    3.96
  -3  15   2   25.47    2.61
  -3 -15  -2   28.48    2.87
   3 -15  -2   27.33    4.40
   3  15   2   26.11    3.56
   3  15   2   22.86    2.35
  -3  15  -2   31.09    3.18
  -3 -15   2   25.02    2.66
   3 -15  -2   28.70    3.01
   5  15  -2   24.63    4.80
  -5 -15  -2   23.45    3.11
   5 -15   2   21.82    3.49
   5 -15   2   22.71    2.51
  -5 -15   2   19.25    2.70
   5  15   2   20.57    3.04
   5  15   2   21.59    2.41
   5 -15  -2   20.96    3.15
   7 -15   2   10.39    1.99
   7  15  -2    7.48    3.04
   7 -15   2   12.03    2.72
  -7 -15  -2   11.80    2.52
   7  15   2   12.12    2.12
  -7 -15   2   11.90    2.54
   7 -15  -2    9.22    2.64
   7  15   2    4.65    1.83
   9 -15   2    4.13    2.99
   9 -15   2    3.11    1.66
   9  15  -2    4.25    2.89
  -9 -15  -2    8.94    2.56
  -9 -15   2    2.79    1.91
   9  15   2    3.63    2.09
   9 -15  -2    6.59    2.60
   9  15   2    4.17    1.74
   0 -16   2   27.91    2.62
   0 -16  -2   30.02    3.14
   0  16   2   31.76    2.68
   0  16   2   30.39    5.07
   0  16  -2   38.75    5.65
  -2  16   2    2.89    1.16
  -2 -16  -2    0.26    1.28
   2  16  -2    5.67    3.02
   2  16  -2    1.08    1.47
   2 -16   2    1.12    1.20
   2  16   2   -0.69    1.74
  -2  16  -2    1.79    1.50
  -2 -16   2    0.59    1.14
   2 -16  -2    0.11    1.23
   2  16   2   -0.49    1.02
   4  16  -2   15.49    2.93
   4  16  -2   23.09    4.84
   4 -16   2   15.48    3.31
  -4  16   2   16.87    2.69
  -4 -16  -2   22.61    2.98
   4 -16   2   24.44    2.56
   4 -16  -2   15.75    2.63
  -4 -16   2   20.38    2.74
   4  16   2   20.19    2.50
   4  16   2   19.90    3.44
   6  16  -2    0.40    2.20
   6 -16   2    0.97    1.24
  -6 -16  -2    1.56    1.49
   6 -16   2    2.30    2.17
   6  16   2    1.50    1.29
  -6 -16   2    0.66    1.31
   6 -16  -2   -0.77    1.19
   6  16   2   -2.14    1.27
   8 -16   2    2.08    1.65
   8 -16   2    2.44    2.76
  -8 -16  -2    6.13    2.21
   8  16  -2   11.35    3.71
   8  16   2    6.30    2.04
  -8 -16   2    7.65    2.33
   8 -16  -2    4.03    2.14
   8  16   2    3.85    1.96
  -1 -17  -2    1.63    1.40
   1  17  -2    1.13    1.36
   1 -17   2    0.62    1.10
  -1  17   2   -2.76    0.93
   1  17  -2   -3.29    2.16
   1  17   2   -1.55    0.92
   1 -17  -2   -2.22    1.15
  -1 -17   2    1.05    1.17
  -1  17  -2    0.77    1.30
   1  17   2   -0.72    2.05
   3 -17   2   -1.93    1.93
  -3  17   2   -0.76    1.17
   3  17  -2   -1.14    2.48
   3 -17   2    1.83    1.24
  -3 -17  -2    0.65    1.36
   3 -17  -2   -0.59    1.22
   3  17   2   -1.40    1.83
   3  17   2    1.05    1.11
  -3 -17   2   -0.34    1.11
   5 -17   2   -7.42    4.35
   5  17  -2   -1.44    2.32
  -5 -17  -2    0.75    1.44
   5 -17   2   -1.15    1.06
   5  17   2   -0.70    1.56
  -5 -17   2    0.07    1.19
   5  17   2   -2.33    1.02
   5 -17  -2   -0.65    1.32
   7  17  -2    1.34    3.30
   7 -17   2   -2.42    2.40
   7 -17   2    1.68    1.43
  -7 -17  -2    0.04    1.49
   7  17   2   -0.42    1.59
   7  17   2   -1.02    1.62
  -7 -17   2    0.99    1.76
   9 -17   2    1.88    1.75
  -9 -17  -2   -2.72    1.95
   9  17  -2   -5.46    2.58
   9  17   2    0.97    1.69
   9 -17  -2   -0.86    1.64
  -9 -17   2   -1.98    1.60
   0  18  -2  113.56    8.37
   0  18   2  101.49    7.93
   0  18   2   83.01    5.68
   0 -18  -2   94.93    5.41
   0 -18   2   86.72    4.79
   2  18  -2    4.33    3.27
  -2  18   2   10.24    2.00
  -2 -18  -2    8.76    2.10
   2 -18   2    9.47    1.94
   2  18   2    4.11    2.85
   2  18   2    7.89    1.85
  -2 -18   2    9.61    2.02
   2 -18  -2   10.08    2.31
   4 -18   2   44.47    5.80
  -4 -18  -2   63.16    4.66
   4 -18   2   57.76    3.86
   4  18  -2   46.40    7.13
  -4 -18   2   63.05    4.30
   4  18   2   58.60    5.23
   4  18   2   60.97    3.92
   4 -18  -2   56.56    4.54
   6  18  -2   -0.12    2.69
  -6 -18  -2    2.54    1.68
   6 -18   2    3.16    1.60
   6 -18   2    3.97    2.55
   6  18   2    0.54    1.66
   6 -18  -2    6.00    2.03
  -6 -18   2    3.98    1.87
   6  18   2    4.14    1.98
   8  18  -2   10.62    4.08
   8 -18   2   11.85    2.34
  -8 -18  -2    9.56    2.72
   8  18   2    6.40    2.18
  -8 -18   2   16.26    3.12
   8 -18  -2   14.51    3.04
  -1  19   2   15.22    2.51
   1 -19   2   13.96    2.36
  -1 -19  -2   17.28    2.85
   1  19  -2   17.20    4.75
   1 -19  -2   13.60    2.63
   1  19   2   18.71    2.53
   1  19   2   14.44    3.98
  -1 -19   2   16.34    2.48
   3  19  -2    6.61    3.55
   3 -19   2   14.75    3.61
  -3 -19  -2   15.50    2.78
   3 -19   2   16.28    2.44
  -3 -19   2   10.05    2.15
   3  19   2   15.65    3.63
   3 -19  -2   14.62    2.72
   5 -19   2    9.19    1.99
   5 -19   2    4.50    3.18
  -5 -19  -2    5.59    2.19
   5  19  -2    4.98    3.63
   5 -19  -2    7.46    2.31
  -5 -19   2    8.79    2.18
   5  19   2    8.04    3.07
   5  19   2    3.92    2.21
  -7 -19  -2    5.76    2.28
   7 -19   2    5.28    1.84
   7  19  -2    6.93    3.47
   7  19   2    6.40    2.24
   7 -19  -2    3.03    2.23
  -7 -19   2    7.60    2.24
   7  19   2    9.30    2.49
   0  20   2    1.92    1.45
   0  20  -2   -3.10    2.19
   0  20   2   -2.46    2.05
   0 -20   2   -0.12    1.14
   0 -20  -2    1.77    1.55
   2 -20   2    1.12    1.37
  -2 -20  -2    1.34    1.58
   2  20  -2   -0.86    2.73
   2  20   2    0.96    1.39
   2 -20  -2    0.75    1.45
  -2 -20   2    0.26    1.33
   2  20   2   -2.70    2.13
  -4 -20  -2   -0.09    1.45
   4 -20   2    0.43    1.29
   4  20  -2   -5.94    2.44
   4  20   2   -2.16    2.03
   4 -20  -2    0.02    1.46
   4  20   2   -1.25    1.54
  -4 -20   2    0.57    1.32
   6  20  -2    1.37    3.03
   6 -20   2   -0.63    1.25
   6 -20  -2   -0.06    1.51
   6  20   2    1.28    1.97
   6  20   2   -0.84    1.73
  -6 -20   2   -2.26    1.32
   8  20  -2    3.50    3.30
  -8 -20  -2   -0.54    1.52
  -8 -20   2   -1.69    1.55
   8  20   2   -1.61    1.80
   8 -20  -2   -2.54    1.82
  -1  21   2   14.09    3.80
  -1 -21  -2    8.11    2.21
   1 -21   2   13.08    2.51
   1  21  -2   11.56    4.31
  -1  21  -2   11.43    3.51
  -1 -21   2   12.60    2.46
   1 -21  -2   11.00    2.51
   1  21   2   14.07    4.10
  -3 -21  -2    9.76    2.57
   3  21  -2   12.81    4.35
   3 -21   2    8.96    2.21
   3  21   2    7.71    3.23
  -3 -21   2    4.15    1.82
   3 -21  -2    6.84    2.40
   5 -21   2    5.28    1.82
   5  21  -2    7.90    3.93
   5 -21  -2    6.22    2.30
  -5 -21   2    2.54    1.80
   5  21   2    3.98    2.46
   7 -21   2    0.95    1.71
  -7 -21  -2    4.02    2.25
   7  21  -2    1.43    3.53
   7  21   2    4.89    2.44
  -7 -21   2    2.78    1.93
   7 -21  -2    4.06    2.30
   0 -22  -2    6.75    2.26
   0  22   2    6.34    3.39
   0  22  -2    7.95    3.50
   0 -22   2    2.47    1.46
   2  22  -2   29.53    6.15
  -2 -22  -2   35.41    3.99
   2 -22   2   33.66    3.58
  -2 -22   2   33.29    3.62
   2  22   2   44.15    6.47
   2 -22  -2   33.01    3.83
  -4 -22  -2    4.78    2.98
   4 -22   2    0.57    1.52
   4  22  -2    2.36    4.28
   4 -22  -2    3.73    2.16
   4  22   2    6.11    2.88
  -4 -22   2    0.45    1.50
   6 -22   2   15.75    2.66
  -6 -22  -2   16.14    3.15
   6  22  -2    7.88    4.53
  -6 -22   2   16.14    3.01
   6  22   2   12.34    3.10
   6 -22  -2   16.66    3.23
  -1  23   2    0.19    2.87
   1  23  -2    5.56    3.99
   1 -23   2   -0.67    1.33
   1 -23  -2   -0.03    2.33
   1  23   2    0.86    2.91
  -1  23  -2    1.50    2.63
   3 -23   2    2.72    2.00
   3  23  -2    4.24    3.91
  -3 -23  -2   -0.65    1.67
  -3 -23   2    1.73    1.67
   3 -23  -2   -0.36    1.45
   3  23   2    1.41    2.66
   5 -23   2    0.56    1.74
  -5 -23  -2    1.89    2.13
   5  23  -2    4.64    3.84
   5  23   2    1.41    2.46
  -5 -23   2    5.23    2.01
   5 -23  -2    0.80    1.92
   0  24  -2    1.20    3.26
   0 -24   2    0.23    1.50
   0 -24  -2    1.02    1.60
   0  24   2   -1.66    4.89
  -2  24   2    7.39    3.53
  -2 -24  -2    3.48    2.22
   2  24  -2    2.21    3.76
   2 -24   2    6.05    2.14
  -2 -24   2    3.87    2.08
   2  24   2    5.48    5.84
   2 -24  -2    4.68    2.24
  -2  24  -2    5.53    3.05
   4 -24   2   -1.24    1.36
   4  24  -2   -0.68    3.78
  -4 -24  -2   -0.05    1.91
   4  24   2    3.53    3.77
  -4 -24   2   -0.97    1.48
   4 -24  -2    4.15    2.02
  -1 -25  -2    4.35    2.19
   1 -25   2    4.93    2.01
   1  25  -2    2.34    3.67
  -1  25   2    7.34    3.52
   1  25   2    1.65    3.43
  -1 -25   2    3.20    2.04
  -1  25  -2    5.98    3.07
   1 -25  -2    5.77    2.21
   3  25  -2    0.38    3.98
   3 -25   2    3.77    1.86
  -3 -25  -2    6.03    2.59
   3 -25  -2    5.26    2.37
   3  25   2    4.03    3.36
  -3 -25   2    3.53    2.09
  -5 -25  -2    2.74    2.19
   5  25  -2   -1.06    4.63
   5 -25   2    5.07    1.95
   5 -25  -2    3.65    2.32
  -5 -25   2    2.35    2.02
   5  25   2    3.39    3.34
   0  26  -2    5.11    3.95
   0 -26  -2    2.67    2.13
   0 -26   2    0.28    1.68
   0  26   2    1.66    3.93
   2 -26   2   -2.75    1.49
  -2  26   2   -1.19    2.69
   2  26  -2   -0.04    3.54
  -2 -26  -2   -0.30    1.76
  -2 -26   2   -0.79    1.59
  -2  26  -2    2.43    3.12
   2 -26  -2   -3.05    1.54
   2  26   2   -0.94    2.98
  -1 -27  -2    1.02    2.14
  -1  27   2    3.56    3.60
   1 -27   2    3.64    1.94
   1  27  -2    2.35    3.76
   1  27   2   -2.55    3.61
  -1 -27   2    4.74    2.10
   1 -27  -2    3.81    2.16
  -1  27  -2    1.23    2.89
   0   0  -3   -0.10    0.24
   0   0  -3    0.28    0.27
   2   0  -3   -0.64    0.42
  -2   0   3    0.03    0.44
  -2   0   3   -0.31    0.37
   2   0  -3   -0.49    0.43
  -4   0  -3    0.03    0.39
  -4   0   3    1.37    0.84
  -4   0   3    1.22    0.80
  -4   0  -3    0.15    0.40
   4   0  -3    0.45    0.75
   4   0  -3   -0.87    0.65
  -6   0   3    1.27    1.09
  -6   0  -3   -0.65    0.64
  -6   0  -3    0.28    0.74
  -6   0   3   -0.90    0.96
   6   0  -3    2.61    1.39
   6   0  -3    0.46    1.04
  -8   0   3   -0.05    1.29
   8   0  -3   -0.53    1.27
  -8   0  -3   -0.71    0.92
  -8   0  -3   -1.25    1.08
   8   0  -3    1.84    1.43
  10   0  -3   -0.90    1.50
 -10   0  -3    1.09    1.37
 -12   0  -3   -2.23    1.48
 -12   0   3    0.11    1.77
  12   0  -3    2.91    2.51
   1   1  -3  185.73    5.51
   1   1  -3  187.01    5.24
  -1   1   3  181.67    5.21
   1  -1  -3  186.82    5.40
  -1  -1   3  195.37    5.57
   1  -1  -3  187.43    5.36
  -1  -1   3  185.00    5.16
  -3  -1  -3  101.08    2.85
  -3   1   3  103.49    3.96
   3   1  -3  100.64    3.84
   3   1  -3  104.45    4.25
  -3   1   3   97.78    3.94
  -3  -1  -3  100.57    2.81
  -3   1  -3   99.90    2.80
   3  -1  -3   98.06    4.10
  -3  -1   3   96.31    3.80
  -3  -1   3  101.58    4.03
  -3   1  -3   95.82    2.92
   3  -1  -3   94.34    3.86
  -5   1   3  116.54    5.11
  -5  -1  -3  113.42    4.00
  -5  -1  -3  111.58    4.15
   5   1  -3  121.42    4.94
  -5   1  -3  117.57    4.08
  -5  -1   3  124.43    5.26
  -5   1  -3  110.49    4.26
   5  -1  -3  115.34    4.92
   7   1  -3   19.79    2.94
   7   1  -3   25.87    3.38
  -7  -1  -3   20.77    2.21
  -7   1   3   15.21    2.47
  -7   1   3   20.65    2.46
  -7  -1  -3   19.14    2.08
  -7   1  -3   21.62    2.29
  -7  -1   3   22.71    2.69
   7  -1  -3   22.76    3.07
  -7   1  -3   22.45    2.16
  -7  -1   3   19.53    2.75
   7  -1  -3   21.34    3.20
   9   1  -3   36.53    4.06
  -9  -1  -3   41.16    3.39
  -9   1   3   37.72    3.73
   9  -1  -3   36.67    4.02
  -9  -1   3   38.86    3.81
  -9   1  -3   32.67    3.19
 -11  -1  -3   -0.83    1.46
  11   1  -3    3.62    2.20
 -11   1   3    5.47    2.22
  11  -1  -3    2.26    2.06
 -11  -1   3    5.81    2.07
 -11   1  -3    0.42    1.49
   0   2  -3   39.97    1.95
   0  -2  -3   41.19    1.55
   0   2  -3   40.57    1.52
   2   2  -3   13.85    1.45
   2   2  -3   14.12    1.22
  -2   2   3   14.00    1.25
  -2   2   3   14.99    1.37
  -2  -2   3   15.84    1.47
  -2  -2   3   14.67    1.27
   2  -2  -3   13.35    1.32
  -2   2  -3   14.08    0.64
   2  -2  -3   11.76    1.27
   4   2  -3   20.45    1.90
  -4  -2  -3   23.13    1.40
  -4  -2  -3   21.80    1.36
   4   2  -3   19.65    2.13
  -4   2   3   25.95    2.06
  -4   2   3   23.91    2.09
  -4  -2   3   21.50    1.91
   4  -2  -3   21.26    2.15
   4  -2  -3   21.28    1.95
  -4   2  -3   20.74    1.50
  -4  -2   3   22.14    1.90
  -4   2  -3   22.51    1.36
   6   2  -3    4.86    1.70
  -6  -2  -3    3.95    1.12
  -6   2   3    4.99    1.52
  -6   2   3    4.30    1.50
   6   2  -3    6.46    1.50
  -6  -2  -3    5.90    1.19
  -6  -2   3    4.80    1.45
  -6   2  -3    4.76    1.26
   6  -2  -3    8.26    1.84
  -6  -2   3    4.73    1.44
  -6   2  -3    7.14    1.34
   6  -2  -3    5.86    1.71
  -8  -2  -3    5.27    1.58
  -8   2   3    6.50    1.93
  -8  -2  -3    2.36    1.55
   8   2  -3    4.38    1.77
  -8  -2   3    2.92    1.54
  -8   2  -3    4.67    1.51
   8  -2  -3    4.65    1.80
  -8   2  -3    6.28    2.29
 -10   2   3    1.43    2.61
 -10  -2  -3   -0.11    1.31
  10   2  -3    0.82    1.90
  10  -2  -3    1.10    1.92
 -10   2  -3   -0.06    1.21
 -10  -2   3    0.01    2.27
 -12   2   3    3.63    2.04
  12   2  -3    4.02    2.47
 -12  -2  -3   -1.42    1.69
 -12   2  -3    1.10    1.75
  12  -2  -3   -1.43    1.98
 -12  -2   3    2.74    1.98
  -1  -3  -3    0.05    0.28
   1   3  -3    0.23    0.44
   1   3  -3    0.12    0.55
  -1  -3  -3   -0.01    0.20
  -1   3   3    0.08    0.37
   1  -3  -3   -0.01    0.43
  -1   3  -3   -0.32    0.23
  -1  -3   3   -0.21    0.38
  -1  -3   3   -0.02    0.57
   1  -3  -3    0.54    0.56
  -3  -3  -3    9.50    0.85
   3   3  -3   12.36    1.74
  -3  -3  -3    9.78    0.79
  -3   3   3    9.68    1.47
  -3   3   3   10.23    1.51
  -3  -3   3   10.57    1.43
  -3   3  -3    8.25    0.90
   3  -3  -3   10.24    1.57
  -3   3  -3    9.97    0.86
  -3  -3   3   10.52    1.58
  -5   3   3    4.89    1.32
   5   3  -3    2.37    1.13
   5   3  -3    3.62    1.57
  -5   3   3    5.24    1.71
  -5  -3  -3    3.73    0.90
  -5  -3  -3    3.70    0.95
   5  -3  -3    3.28    1.27
  -5  -3   3    4.14    1.28
   5  -3  -3    4.35    1.60
  -5   3  -3    2.39    0.93
  -5  -3   3    4.65    1.53
  -5   3  -3    3.32    0.92
   7  -3   3   10.70    0.71
  -7  -3  -3   10.70    1.83
   7   3  -3    9.63    2.00
  -7  -3  -3   12.17    1.83
  -7   3   3   10.01    2.10
  -7   3   3   13.26    2.38
   7   3  -3    9.54    2.36
   7  -3  -3    9.93    2.15
  -7  -3   3   11.23    2.15
  -7   3  -3   12.45    1.87
  -7  -3   3    8.78    2.03
  -7   3  -3    9.46    1.80
   7  -3  -3    8.25    2.11
   9   3  -3    2.80    1.95
  -9  -3  -3    3.02    1.54
   9  -3   3    3.74    0.53
  -9   3   3    2.91    1.65
   9  -3  -3    7.78    2.24
  -9   3  -3    5.84    1.80
  -9  -3   3    4.08    1.77
 -11  -3  -3   -2.83    1.36
 -11   3   3    0.63    1.82
  11   3  -3    3.01    2.51
  11  -3  -3    3.30    2.33
 -11   3  -3    1.98    1.81
 -11  -3   3    5.13    2.17
   0   4   3   59.58    1.93
   0  -4  -3   63.33    2.35
   0  -4   3   58.32    2.02
   0   4  -3   62.20    2.27
  -2  -4  -3   53.96    2.00
   2   4  -3   56.02    3.04
   2   4  -3   51.15    2.46
  -2   4   3   56.55    2.61
  -2  -4  -3   54.39    2.00
  -2  -4   3   52.66    2.96
  -2  -4   3   54.87    2.49
  -2   4  -3   56.32    2.13
   2  -4  -3   56.19    2.73
   2  -4  -3   60.44    2.94
  -4   4   3   25.65    2.22
   4   4  -3   26.31    2.11
  -4  -4  -3   26.27    1.71
   4   4  -3   30.11    2.61
  -4  -4  -3   27.82    1.69
  -4   4   3   31.84    2.46
  -4   4  -3   28.76    1.91
   4  -4  -3   28.79    2.38
  -4   4  -3   29.37    1.75
   4  -4  -3   28.92    2.45
  -4  -4   3   30.09    2.30
  -4  -4   3   32.67    2.44
  -6  -4  -3   22.38    1.99
  -6   4   3   20.32    2.73
   6  -4   3   21.50    0.96
   6   4  -3   20.99    3.00
   6   4  -3   22.85    2.37
  -6  -4  -3   23.16    2.04
  -6   4   3   19.95    2.39
   6  -4  -3   24.22    2.66
  -6  -4   3   20.49    2.40
  -6   4  -3   19.88    1.94
  -6  -4   3   23.31    2.50
   6  -4  -3   23.91    2.76
  -6   4  -3   21.66    2.19
  -8  -4  -3    8.73    1.86
   8  -4   3    6.07    0.82
  -8  -4  -3    6.73    2.43
   8  -4   3    5.42    0.94
  -8   4   3    5.64    1.89
   8   4  -3    1.14    1.77
   8  -4  -3    2.23    1.70
  -8  -4   3    7.71    2.02
  -8   4  -3    5.60    1.80
  -8   4  -3    8.21    1.80
 -10  -4  -3    3.50    1.58
 -10   4   3    5.26    2.13
 -10   4  -3    5.49    1.86
 -10  -4   3    2.99    1.78
   1   5  -3  162.53    5.01
  -1  -5  -3  162.06    4.74
   1   5  -3  165.43    6.09
   1  -5   3  159.25    4.54
  -1   5   3  165.59    4.97
   1  -5   3  162.93    4.23
  -1  -5   3  160.64    4.85
  -1   5  -3  163.65    4.81
   1  -5  -3  160.73    5.20
   1  -5  -3  148.67    5.56
  -3  -5  -3  146.83    4.57
  -3  -5  -3  145.72    4.61
  -3   5   3  158.72    5.75
   3   5  -3  145.58    5.18
  -3   5   3  148.44    5.35
   3   5  -3  155.18    6.07
   3  -5  -3  148.14    5.54
   3  -5  -3  141.09    5.58
  -3   5  -3  153.00    4.83
  -3  -5   3  145.75    5.15
  -3  -5   3  150.89    5.88
  -3   5  -3  140.60    4.75
   5   5  -3   61.01    3.48
   5  -5   3   61.27    1.92
  -5   5   3   57.10    3.59
  -5  -5  -3   57.05    2.97
   5   5  -3   66.66    4.15
  -5   5   3   55.53    3.53
   5  -5   3   59.19    2.26
  -5  -5  -3   66.10    3.44
  -5  -5   3   62.54    3.73
   5  -5  -3   58.08    3.66
  -5  -5   3   65.59    3.63
   5  -5  -3   63.01    3.83
  -5   5  -3   53.21    3.14
  -5   5  -3   62.61    3.04
   7   5  -3   61.46    3.88
  -7  -5  -3   61.80    3.58
  -7   5   3   60.34    4.17
  -7   5   3   55.68    4.03
  -7  -5  -3   55.77    3.48
   7  -5   3   58.52    2.20
   7   5  -3   62.55    4.79
   7  -5   3   60.41    2.29
   7  -5  -3   56.93    4.26
  -7   5  -3   58.72    3.90
  -7  -5   3   56.99    3.99
  -7  -5   3   57.81    4.05
   7  -5  -3   54.63    4.26
  -9   5   3    6.61    2.20
  -9  -5  -3   11.37    2.23
   9   5  -3    7.15    2.41
   9  -5   3   10.01    1.24
   9  -5   3   13.78    1.26
  -9  -5   3   12.54    2.60
  -9   5  -3   13.67    2.35
   9  -5  -3    8.84    2.34
  11   5  -3    9.52    3.04
 -11  -5  -3   16.75    3.04
 -11   5   3   10.40    2.70
 -11  -5   3   11.82    2.82
  11  -5  -3   13.80    3.16
   0   6  -3   61.17    2.63
   0  -6  -3   62.48    2.67
   0   6   3   64.17    2.38
   0  -6   3   59.32    2.32
  -2  -6  -3   43.16    2.27
  -2   6   3   41.00    2.35
   2  -6   3   45.45    1.79
   2  -6   3   42.35    1.57
  -2  -6  -3   44.04    2.13
   2   6  -3   45.03    3.09
   2  -6  -3   40.56    2.49
  -2  -6   3   44.85    2.34
  -2  -6   3   46.64    3.00
  -2   6  -3   41.36    2.16
   2  -6  -3   48.54    3.15
   4  -6   3   33.23    1.37
   4   6  -3   29.98    2.36
  -4  -6  -3   31.48    2.04
   4  -6   3   32.68    1.40
  -4   6   3   32.43    2.70
  -4  -6  -3   31.62    2.09
  -4   6   3   29.12    2.40
   4   6  -3   30.31    2.96
  -4   6  -3   33.24    2.26
   4  -6  -3   31.74    2.75
   4  -6  -3   31.54    2.70
  -4  -6   3   36.19    2.89
  -4   6  -3   27.77    2.07
  -4  -6   3   32.87    2.42
   6  -6   3   16.27    1.20
   6   6  -3   15.75    2.77
  -6   6   3   16.99    2.59
  -6   6   3   21.80    2.86
  -6  -6  -3   17.39    1.88
   6   6  -3   11.98    2.00
   6  -6   3   16.49    1.22
  -6  -6  -3   13.88    1.92
  -6   6  -3   18.51    2.52
  -6  -6   3   18.56    2.76
  -6  -6   3   20.79    2.50
   6  -6  -3   15.51    2.52
   6   6   3   15.43    0.70
  -6   6  -3   16.64    1.93
   6  -6  -3   18.41    2.75
  -8   6   3    6.10    2.02
   8  -6   3    7.50    0.95
  -8  -6  -3    7.51    1.82
   8  -6   3    7.07    1.02
  -8  -6  -3   10.03    1.99
   8   6  -3    4.69    2.12
   8  -6  -3    4.95    1.96
  -8   6  -3    4.83    1.58
   8   6   3    9.12    0.70
  -8  -6   3    5.64    1.76
  -8   6  -3    7.11    2.06
 -10   6   3    5.51    1.98
 -10  -6  -3    0.84    1.63
  10   6  -3    6.35    2.87
  10  -6   3    2.60    0.70
 -10   6  -3    3.40    1.65
 -10  -6   3    1.63    1.76
  10  -6  -3    2.30    1.95
  -1  -7  -3   82.52    3.25
   1  -7   3   76.92    2.71
   1   7  -3   75.14    3.25
  -1   7   3   79.80    3.18
   1   7  -3   80.71    4.57
  -1  -7   3   80.21    3.10
   1   7   3   75.67    2.65
   1  -7  -3   78.11    3.41
   1   7   3   76.34    3.12
  -1   7  -3   79.40    3.24
  -3  -7  -3  104.44    3.91
   3   7  -3   97.58    4.22
   3  -7   3  101.27    3.19
  -3  -7  -3  105.49    4.09
   3  -7   3  102.92    3.39
   3   7  -3  110.31    5.37
  -3   7   3   96.57    4.24
   3   7   3  110.25    3.10
   3  -7  -3   97.51    4.52
  -3   7  -3  100.99    4.07
  -3  -7   3  106.07    4.24
   3  -7  -3  102.96    4.94
   3   7   3  103.71    2.94
  -3  -7   3   98.82    4.85
   5  -7   3   18.41    1.31
   5  -7   3   21.02    1.38
  -5   7   3   21.45    2.36
   5   7  -3   18.11    2.91
   5   7  -3   18.23    2.19
  -5  -7  -3   20.34    1.93
  -5   7   3   21.64    2.81
  -5  -7  -3   21.81    2.10
  -5   7  -3   23.09    2.12
   5   7   3   19.31    1.06
   5   7   3   20.68    1.31
  -5  -7   3   23.26    2.39
   5  -7  -3   24.04    2.58
  -5  -7   3   21.19    2.80
  -5   7  -3   20.16    2.14
   5  -7  -3   19.98    2.71
  -7   7   3   56.59    4.20
  -7   7   3   46.82    3.93
   7   7  -3   49.46    3.76
  -7  -7  -3   56.52    3.55
   7  -7   3   48.82    2.35
   7  -7   3   51.85    2.34
  -7  -7  -3   53.93    3.60
   7   7  -3   44.65    4.32
   7  -7  -3   53.68    4.46
  -7   7  -3   50.87    3.87
   7  -7  -3   51.91    4.16
  -7   7  -3   52.42    3.50
  -7  -7   3   49.79    3.77
  -7  -7   3   46.62    4.06
   7   7   3   54.15    2.03
   7   7   3   51.34    2.30
   9  -7   3    2.84    0.89
  -9  -7  -3    2.96    1.58
  -9   7   3    2.25    1.68
   9   7  -3    2.17    2.13
  -9   7  -3    0.99    1.39
   9  -7  -3    0.40    1.63
  -9  -7   3    5.66    1.95
 -11   7   3   11.33    3.24
  11   7  -3    8.13    3.15
 -11   7  -3   11.84    2.67
 -11  -7   3    7.90    2.73
  11  -7  -3   12.34    3.06
   0  -8   3   19.77    1.45
   0   8  -3   15.69    1.57
   0  -8  -3   18.06    1.66
   0   8   3   19.44    1.42
   2   8  -3    9.42    2.11
  -2  -8  -3   14.72    1.52
   2   8  -3   10.99    1.54
   2  -8   3   12.54    1.45
  -2   8   3   13.44    1.71
   2  -8   3   13.16    1.11
   2   8   3   11.17    0.95
   2  -8  -3   14.35    1.90
  -2   8  -3    9.56    1.41
   2   8   3   12.53    1.20
   2  -8  -3   15.20    2.31
  -2  -8   3   12.51    1.54
   4   8  -3   11.97    2.51
   4   8  -3   12.38    1.89
  -4  -8  -3   11.74    1.67
   4  -8   3   12.79    1.18
  -4   8   3   11.92    1.86
  -4  -8  -3   10.59    1.67
   4  -8   3    9.66    1.21
   4  -8  -3   13.76    2.41
   4   8   3   12.17    0.93
  -4  -8   3    8.54    1.98
  -4  -8   3   11.24    1.78
  -4   8  -3   12.02    1.81
   4   8   3   11.13    1.01
   4  -8  -3    9.60    1.88
  -6   8   3    5.67    1.86
   6   8  -3    1.22    1.75
   6  -8   3    4.97    0.99
  -6  -8  -3    3.49    1.35
  -6  -8  -3    4.05    1.43
   6   8  -3    4.44    1.63
   6  -8   3    3.46    0.87
   6  -8  -3    2.53    1.71
   6  -8  -3    1.44    1.38
  -6  -8   3    3.55    2.32
   6   8   3    3.83    0.66
  -6   8  -3    3.93    1.35
   6   8   3    3.55    0.74
  -6  -8   3    4.38    1.53
  -8  -8  -3    4.35    1.75
  -8  -8  -3    3.33    1.72
   8  -8   3    2.87    0.90
   8   8  -3    4.69    2.22
   8  -8   3    2.22    0.87
  -8   8   3    1.84    1.57
  -8  -8   3    2.52    1.60
   8   8   3    3.30    0.77
  -8   8  -3    4.02    1.62
   8   8   3    2.76    0.68
   8  -8  -3    5.08    1.82
  10  -8   3    1.39    0.85
  10  -8   3   -0.28    0.74
 -10  -8  -3   -0.55    1.34
  10   8  -3    2.32    2.34
 -10   8   3   -0.70    1.62
  10  -8  -3   -1.02    1.60
 -10   8  -3   -0.45    1.41
 -10  -8   3    1.38    1.67
  -1   9   3   12.80    1.38
   1  -9   3   11.16    1.23
  -1  -9  -3   12.58    1.73
   1   9  -3    9.37    2.33
   1   9  -3   13.51    1.72
  -1  -9   3   12.05    1.40
  -1   9  -3   12.84    1.69
   1   9   3   12.63    1.89
   1  -9  -3   12.89    1.80
   1   9   3   11.36    1.17
  -3  -9  -3    2.95    1.09
   3  -9   3    3.26    1.02
  -3  -9  -3    3.51    1.14
   3  -9   3    3.51    0.80
   3   9  -3    1.25    1.02
  -3   9   3    3.28    1.07
   3   9  -3    4.41    1.79
  -3  -9   3    2.00    1.27
   3   9   3    2.42    0.62
  -3   9  -3    2.97    1.09
   3  -9  -3    2.32    1.16
   3  -9  -3    1.25    1.36
   3   9   3    3.43    0.85
  -3  -9   3    2.60    1.04
   5  -9   3   11.91    1.49
  -5   9   3   10.66    2.06
  -5  -9  -3    8.66    1.71
   5   9  -3   12.63    2.16
  -5  -9  -3   10.37    1.68
   5  -9   3   12.94    1.39
   5   9  -3   13.15    2.72
  -5   9  -3   15.79    2.34
  -5  -9   3   17.39    2.72
  -5  -9   3   13.26    2.12
   5   9   3   12.32    1.26
   5   9   3   12.40    1.10
   5  -9  -3   12.69    2.67
   5  -9  -3   14.76    2.47
  -7   9   3   -0.15    1.21
   7  -9   3    0.40    0.74
   7  -9   3    0.56    0.76
   7   9  -3   -0.01    1.71
  -7  -9  -3   -0.40    1.38
  -7  -9  -3    1.53    1.29
  -7  -9   3    0.63    1.27
  -7   9  -3   -0.59    1.05
   7   9   3    0.98    0.62
   7   9   3   -0.26    0.52
   7  -9  -3   -1.78    1.13
  -7   9  -3   -3.26    1.24
   9  -9   3    3.48    1.14
  -9  -9  -3    3.41    1.71
   9   9  -3    2.19    2.24
   9  -9   3    4.88    1.16
  -9   9   3    5.43    2.31
  -9   9  -3    8.29    2.25
  -9  -9   3    6.65    3.47
   9  -9  -3    6.96    2.20
   9   9   3    4.94    0.83
  11   9  -3    2.80    2.46
 -11  -9  -3   -1.31    1.54
 -11   9   3   -0.05    2.00
  11  -9  -3   -0.61    1.92
 -11  -9   3   -2.05    1.67
 -11   9  -3   -0.20    1.52
   0 -10   3    1.57    0.78
   0 -10  -3    2.58    1.08
   0  10   3    0.95    0.68
   0  10  -3    2.95    1.09
  -2 -10  -3    1.60    1.00
   2 -10   3    0.96    0.70
   2  10  -3    0.58    1.50
   2 -10   3    1.34    1.08
  -2  10   3    1.39    0.88
   2  10  -3    0.73    0.99
   2  10   3    0.81    0.91
   2  10   3    2.51    0.73
   2 -10  -3    0.74    1.34
  -2  10  -3    0.85    0.89
  -2 -10   3    3.50    1.13
   2 -10  -3    0.51    0.96
   4  10  -3   -0.42    1.00
   4 -10   3   -0.16    0.77
  -4 -10  -3    1.08    0.94
   4 -10   3    0.03    0.68
  -4  10   3    0.81    0.97
   4  10  -3    1.29    1.64
  -4 -10  -3    0.73    1.10
   4 -10  -3    1.99    1.28
  -4 -10   3    2.32    1.39
  -4 -10   3    1.99    1.16
   4  10   3    0.73    0.56
   4  10   3    0.32    0.66
  -4  10  -3    0.75    0.98
   4 -10  -3    1.38    1.58
  -6 -10  -3    0.57    1.16
   6 -10   3    0.04    0.71
   6 -10   3    0.34    0.88
  -6  10   3    0.60    1.30
   6  10  -3    1.91    1.39
  -6 -10  -3   -1.42    0.99
   6  10  -3    0.89    1.66
  -6 -10   3    2.44    1.51
   6  10   3    0.30    0.66
   6 -10  -3   -3.15    1.64
   6 -10  -3   -0.46    1.18
  -6 -10   3    0.67    1.32
  -6  10  -3    0.27    1.36
   6  10   3    0.99    0.62
  -8 -10  -3   -1.29    1.18
   8 -10   3   -0.13    0.91
   8 -10   3    0.61    0.97
  -8  10   3    1.19    1.42
   8  10  -3    0.82    1.85
   8  10   3   -0.32    0.64
   8 -10  -3    1.95    1.74
  -8 -10   3   -0.17    1.32
  -8  10  -3    1.24    1.25
   8  10   3    1.21    0.71
  10 -10   3   -2.36    1.02
 -10 -10  -3    2.62    1.67
 -10  10   3    0.09    1.72
  10  10  -3    0.33    2.28
  10 -10   3    1.84    1.10
 -10 -10   3   -1.30    1.57
 -10  10  -3   -1.82    1.53
  10 -10  -3   -1.88    1.45
   1  11  -3   99.42    4.47
  -1  11   3   99.43    4.25
   1  11  -3  103.58    6.38
   1 -11   3   96.26    3.85
  -1 -11  -3   99.16    4.52
  -1 -11   3   95.78    4.05
   1  11   3   93.64    3.82
   1  11   3   99.54    5.16
   1 -11  -3   95.30    4.54
  -1  11  -3   95.44    4.48
   3  11  -3   63.13    5.13
  -3 -11  -3   62.37    3.56
   3 -11   3   61.26    3.69
   3  11  -3   60.65    3.67
   3 -11   3   66.36    3.01
  -3  11   3   64.56    3.57
   3 -11  -3   63.10    3.80
   3  11   3   63.42    3.36
   3 -11  -3   54.47    4.42
   3  11   3   64.48    2.85
  -3  11  -3   60.39    3.59
  -3 -11   3   63.12    3.48
  -5  11   3   61.70    4.07
   5  11  -3   65.92    4.11
   5 -11   3   60.86    3.41
  -5 -11  -3   59.45    3.96
   5  11  -3   66.09    5.47
   5 -11   3   68.64    3.17
  -5 -11   3   66.69    4.09
   5 -11  -3   59.50    4.21
   5  11   3   60.05    3.09
   5  11   3   62.85    2.85
  -5  11  -3   67.01    4.23
   5 -11  -3   68.77    5.18
   7  11  -3   15.46    3.39
   7 -11   3   18.63    2.09
  -7 -11  -3   14.61    2.41
  -7 -11  -3   18.65    2.82
   7 -11   3   17.96    2.31
  -7 -11   3   17.53    2.78
   7  11   3   16.14    1.71
   7 -11  -3   16.74    2.72
   7  11   3   15.86    1.54
   9  11  -3   22.63    4.93
  -9 -11  -3   16.89    2.87
   9 -11   3   20.93    2.96
   9 -11   3   18.48    3.14
   9 -11  -3   17.68    3.19
   9  11   3   20.69    1.58
  -9 -11   3   22.25    3.50
 -11 -11  -3    3.46    1.88
  11  11  -3    3.15    2.94
  11 -11   3    2.83    1.00
 -11 -11   3   -0.39    2.07
  11 -11  -3    1.11    2.34
   0 -12   3   12.57    1.68
   0  12  -3   12.31    2.03
   0  12  -3   10.49    2.84
   0 -12  -3   10.65    1.85
   0  12   3   14.09    2.75
  -2  12   3   10.89    1.76
   2  12  -3   11.01    1.90
   2  12  -3    4.29    2.36
  -2 -12  -3   14.62    2.22
   2 -12   3   11.93    1.59
  -2 -12   3    9.56    1.65
   2  12   3   10.19    1.40
   2 -12  -3    9.25    1.88
   2 -12  -3    9.09    2.41
  -2  12  -3   12.16    2.08
   2  12   3   10.65    1.97
  -4 -12  -3    5.77    1.62
  -4  12   3    5.61    1.57
   4 -12   3    8.90    2.22
   4  12  -3    7.96    2.78
   4  12  -3    4.51    2.44
   4 -12   3    7.93    1.44
   4  12   3    6.37    1.12
   4  12   3    5.87    1.43
   4 -12  -3    6.17    1.88
  -4  12  -3    8.47    1.92
  -4 -12   3   10.10    1.92
  -4 -12   3    5.06    1.85
  -6 -12  -3    1.75    1.39
   6  12  -3   -1.04    1.85
  -6 -12  -3    2.14    1.56
  -6 -12   3    2.75    1.57
  -6  12  -3    4.85    1.77
   6  12   3    3.05    0.97
   6 -12  -3    7.77    2.16
   6  12   3    4.47    1.13
   8 -12   3    4.40    1.88
  -8 -12  -3    0.72    1.48
   8  12  -3    3.19    2.36
   8 -12   3    1.56    0.99
   8  12   3    2.64    0.95
   8  12   3    2.57    0.90
  -8 -12   3    1.50    1.52
   8 -12  -3    2.96    1.90
  10 -12   3   -0.42    1.61
  10 -12   3    3.34    1.86
 -10 -12  -3   -1.03    2.25
  10  12  -3    0.09    2.65
 -10 -12   3   -0.64    1.74
  10 -12  -3   -0.55    1.64
   1  13  -3   34.92    4.88
   1  13  -3   34.24    2.94
   1 -13   3   39.23    2.57
  -1  13   3   36.56    2.66
  -1 -13  -3   33.08    3.25
  -1  13  -3   34.41    2.90
  -1 -13   3   36.60    2.58
   1 -13  -3   35.07    2.98
   1  13   3   34.42    3.02
   1  13   3   38.01    3.83
   3  13  -3   13.75    3.47
   3 -13   3    9.59    2.06
   3  13  -3   16.30    2.38
  -3  13   3   16.72    2.37
  -3 -13  -3   15.68    3.07
   3 -13   3   12.68    1.74
   3  13   3   13.20    2.06
   3 -13  -3   10.71    2.60
   3  13   3   17.50    1.74
  -3 -13   3   11.74    1.95
   3 -13  -3   14.99    2.43
  -3  13  -3   19.60    2.65
  -5 -13  -3   33.88    3.15
   5 -13   3   34.74    3.00
  -5 -13  -3   28.93    5.05
  -5  13   3   29.38    2.95
   5  13  -3   33.08    3.26
   5  13  -3   32.86    4.80
   5  13   3   28.37    2.55
   5 -13  -3   31.87    3.38
  -5 -13   3   23.26    3.27
  -5  13  -3   32.74    3.23
   5 -13  -3   27.85    4.77
   5  13   3   31.85    2.26
  -5 -13   3   32.24    3.00
   7  13  -3    2.52    2.46
  -7 -13  -3    1.01    1.59
   7 -13   3    3.58    1.17
   7 -13   3    4.64    1.53
   7 -13  -3    2.99    1.71
  -7 -13   3    1.82    1.56
   7  13   3    0.82    0.97
   7  13   3    1.80    0.98
  -9 -13  -3    7.56    2.55
   9  13  -3    9.59    3.53
   9 -13   3   10.46    2.12
   9 -13   3   11.95    1.81
   9  13   3   10.44    1.36
   9 -13  -3   11.88    3.13
   9  13   3   10.81    1.59
  -9 -13   3    6.74    2.32
   0 -14  -3   13.41    2.32
   0  14   3   10.19    1.69
   0 -14   3   10.67    1.71
   0  14   3    7.85    2.84
   0  14  -3    9.86    2.01
   0  14  -3   12.58    3.21
   2  14  -3   25.93    4.95
  -2 -14  -3   23.78    2.62
   2 -14   3   24.69    3.65
  -2  14   3   28.12    2.55
   2 -14   3   27.51    2.33
   2  14  -3   24.83    2.74
  -2 -14   3   28.44    2.51
   2 -14  -3   25.74    3.94
  -2  14  -3   29.18    2.81
   2  14   3   24.69    2.16
   2 -14  -3   24.98    2.74
   2  14   3   29.88    3.30
  -4 -14  -3    9.18    2.07
  -4  14   3    8.17    2.14
   4 -14   3    4.99    1.83
   4 -14   3    6.83    1.42
   4  14  -3    3.83    1.59
   4  14  -3    5.98    2.79
   4 -14  -3    2.58    2.55
   4  14   3    7.66    1.79
   4 -14  -3    5.99    1.87
  -4 -14   3    7.56    1.86
  -4  14  -3    6.18    1.75
   6  14  -3    7.47    3.16
  -6 -14  -3   11.19    2.31
   6 -14   3   10.59    1.75
   6 -14   3    7.20    1.83
   6  14   3    7.16    2.24
  -6 -14   3    9.88    2.24
   6 -14  -3   10.62    2.51
  -8 -14  -3    0.96    1.66
   8  14  -3    0.78    2.99
   8 -14   3    3.15    1.67
   8 -14   3    2.46    1.24
  -8 -14   3    1.67    1.64
   8  14   3    1.86    1.13
   8 -14  -3    1.40    1.95
   8  14   3    2.23    1.91
 -10 -14  -3    0.11    1.75
  10 -14   3    1.95    1.38
  10  14  -3    1.62    2.95
 -10 -14   3    3.87    2.32
  10 -14  -3    3.89    2.04
   1  15  -3   10.67    3.43
  -1  15   3    4.71    1.36
   1 -15   3    5.21    1.44
  -1 -15  -3    8.68    2.01
   1  15   3    5.30    1.41
  -1  15  -3    8.01    2.13
   1 -15  -3    4.66    1.70
  -1 -15   3    7.82    1.64
   1  15   3   10.06    2.79
  -3  15   3   10.48    2.08
   3 -15   3    7.03    1.49
   3  15  -3    7.11    1.87
  -3 -15  -3    6.88    1.97
   3  15  -3   11.18    3.58
   3 -15   3    6.90    2.12
  -3 -15   3   10.42    1.89
   3 -15  -3    9.94    2.23
   3  15   3    7.88    2.35
   3  15   3    9.42    1.62
  -3  15  -3    5.22    1.95
   3 -15  -3    8.97    2.39
   5  15  -3    2.84    2.53
   5 -15   3    0.86    1.10
   5 -15   3    0.06    1.60
  -5 -15  -3    3.33    1.64
   5 -15  -3    3.53    1.75
   5  15   3    2.71    1.67
   5  15   3    2.16    1.15
  -5 -15   3    4.70    1.60
   7 -15   3    4.32    1.88
   7  15  -3   10.58    3.47
   7 -15   3    5.92    1.58
  -7 -15  -3    7.23    2.28
  -7 -15   3    5.65    1.81
   7  15   3    4.76    1.63
   7  15   3    5.33    1.58
   7 -15  -3    8.45    2.38
   9 -15   3    0.36    1.26
   9 -15   3   -1.45    1.95
  -9 -15  -3   -0.24    1.90
   9  15  -3   -1.40    3.02
   9  15   3    3.88    1.44
   9 -15  -3   -0.10    1.61
  -9 -15   3    0.57    1.82
   9  15   3    0.25    1.78
   0  16  -3   15.44    2.48
   0  16   3   15.31    3.47
   0  16   3   18.13    2.38
   0  16  -3   26.23    4.62
   0 -16  -3   12.52    2.40
   0 -16   3   20.41    2.37
   2 -16   3   11.04    1.80
   2  16  -3    9.13    3.51
   2 -16   3    7.81    2.54
  -2 -16  -3   12.04    2.42
   2  16  -3    9.67    2.14
  -2  16   3   10.05    1.90
   2 -16  -3    9.57    2.19
   2  16   3   10.43    2.66
   2 -16  -3    9.09    2.80
  -2 -16   3    9.81    1.88
  -2  16  -3   11.14    2.46
   2  16   3   11.41    1.91
  -4  16   3    9.73    2.21
   4 -16   3   15.70    2.73
   4  16  -3    7.34    3.48
  -4 -16  -3   10.97    2.27
   4 -16   3   10.63    1.85
  -4 -16   3   12.23    2.22
   4  16   3    8.21    1.98
   4  16   3    9.25    1.58
   4 -16  -3   12.23    2.53
   6  16  -3    2.65    2.82
   6 -16   3    5.40    2.03
   6 -16   3    6.80    1.64
  -6 -16  -3    3.19    1.92
   6  16   3    1.63    1.27
   6  16   3    4.20    1.51
  -6 -16   3    1.95    1.57
   6 -16  -3    4.57    2.00
   8  16  -3    0.34    2.74
  -8 -16  -3    5.57    2.22
   8 -16   3    3.78    1.49
   8 -16   3    1.46    2.13
   8  16   3    5.21    1.52
   8 -16  -3    0.76    1.78
  -8 -16   3    3.17    1.81
   8  16   3    4.38    1.93
  -1 -17  -3   43.55    3.69
   1  17  -3   50.09    6.66
   1 -17   3   36.93    2.97
  -1  17   3   39.92    3.24
   1  17  -3   36.44    5.86
   1  17   3   34.49    2.93
  -1 -17   3   37.61    3.10
   1 -17  -3   35.38    3.51
  -1  17  -3   33.01    3.44
   1  17   3   33.74    4.70
   3  17  -3   38.96    6.27
   3 -17   3   33.38    4.36
  -3 -17  -3   44.91    3.95
  -3  17   3   44.04    3.61
   3 -17   3   46.93    3.22
   3  17   3   37.99    3.98
  -3 -17   3   41.22    3.34
   3 -17  -3   43.11    3.92
   3  17   3   37.15    2.99
   5  17  -3   12.05    3.92
   5 -17   3   11.13    2.67
  -5 -17  -3   14.20    2.70
   5 -17   3   14.71    2.13
  -5 -17   3   13.37    2.45
   5 -17  -3   10.98    2.41
   5  17   3   12.72    2.00
   5  17   3   17.72    2.69
   7 -17   3   18.93    3.05
  -7 -17  -3   23.96    3.56
   7  17  -3   15.99    4.39
   7 -17   3   23.26    2.65
   7 -17  -3   17.02    3.27
   7  17   3   19.65    2.45
   7  17   3   22.07    2.67
  -7 -17   3   17.01    2.95
   9  17  -3   -0.15    3.28
  -9 -17  -3   10.37    3.13
   9 -17   3    1.35    1.46
   9  17   3    1.97    1.98
  -9 -17   3    1.30    1.89
   9 -17  -3    6.25    2.51
   0 -18   3    3.24    1.51
   0  18   3    6.29    1.73
   0  18  -3    8.55    3.24
   0 -18  -3    4.59    1.89
   0  18   3    2.36    2.27
   2  18  -3    0.11    2.42
  -2 -18  -3    1.83    1.64
   2 -18   3    2.46    1.37
  -2  18   3    2.03    1.39
   2 -18   3   -0.13    2.35
  -2 -18   3    2.18    1.41
   2  18   3   -0.22    2.01
   2 -18  -3    1.55    1.46
   2  18   3    0.02    1.02
   4 -18   3    0.81    2.27
   4 -18   3    2.53    1.40
   4  18  -3   -3.47    2.52
  -4 -18  -3    2.98    1.77
   4  18   3    0.67    1.62
   4  18   3    1.43    1.37
  -4 -18   3    3.27    1.58
   4 -18  -3    3.55    1.81
  -6 -18  -3    2.80    1.85
   6 -18   3    6.15    2.68
   6  18  -3   -1.17    3.92
   6 -18   3    2.19    1.34
   6  18   3    0.36    1.47
  -6 -18   3   -0.18    2.08
   6 -18  -3    2.31    1.99
   6  18   3   -0.67    1.36
   8 -18   3    0.97    1.43
   8  18  -3    0.71    3.25
   8 -18   3    2.76    4.84
  -8 -18  -3    1.67    1.88
   8 -18  -3    2.49    2.05
  -8 -18   3   -2.43    1.23
   8  18   3   -0.17    1.32
   8  18   3    3.56    2.05
   1  19  -3    6.18    3.26
   1 -19   3    6.87    1.79
  -1  19   3    4.40    1.72
  -1 -19  -3    7.78    2.25
  -1  19   3   14.04    3.63
  -1 -19   3    6.57    1.90
   1  19   3    7.62    3.04
   1  19   3    7.73    1.69
   1 -19  -3    6.92    2.07
  -1  19  -3    9.37    3.16
   3  19  -3    4.72    3.34
   3 -19   3    8.93    1.96
   3 -19   3   10.05    2.98
  -3 -19  -3   11.60    2.67
  -3 -19   3   10.27    2.18
   3  19   3    7.22    1.85
   3 -19  -3    5.82    2.06
   3  19   3    9.09    2.58
   5  19  -3    0.25    3.53
   5 -19   3    1.49    1.30
  -5 -19  -3    1.50    1.69
   5 -19   3    2.90    2.91
   5  19   3    4.86    1.72
   5 -19  -3    1.80    2.74
  -5 -19   3    3.33    1.66
   5  19   3    1.64    1.67
   7  19  -3    6.14    3.82
   7 -19   3    2.37    1.49
  -7 -19  -3    6.76    2.58
   7 -19   3   -2.96    2.91
  -7 -19   3    1.78    1.89
   7  19   3    5.36    2.15
   7 -19  -3    4.55    2.18
   7  19   3    4.79    1.81
   0  20   3   -0.66    2.20
   0  20  -3    2.05    2.47
   0 -20  -3    0.80    1.48
   0  20   3    1.91    1.48
   0 -20   3   -0.08    1.12
   2  20  -3    1.71    2.99
   2 -20   3   -1.77    0.99
   2 -20   3   -2.98    2.42
  -2 -20  -3    1.31    1.50
   2 -20  -3   -1.43    1.24
  -2 -20   3   -0.12    1.26
   2  20   3   -2.63    1.81
   4  20  -3   -1.59    2.82
   4 -20   3   -0.95    1.21
  -4 -20  -3   -3.09    1.15
   4 -20   3    6.17    3.08
  -4 -20   3   -0.35    1.20
   4 -20  -3    0.80    1.62
   4  20   3    0.37    1.80
   4  20   3   -0.95    1.61
   6  20  -3   -0.43    3.17
   6 -20   3    1.63    2.98
   6 -20   3    0.59    1.31
   6  20   3    2.58    1.88
  -6 -20   3   -1.15    1.39
   6 -20  -3    1.01    1.95
   6  20   3    1.01    1.64
  -8 -20  -3   -0.46    2.09
   8  20  -3    4.46    4.62
   8 -20   3    0.52    1.61
  -8 -20   3    0.00    1.68
   8  20   3   -1.97    1.53
   8 -20  -3   -1.41    1.82
   1  21  -3    6.94    3.38
  -1  21   3    9.85    3.43
  -1 -21  -3    5.17    2.04
   1 -21   3    4.18    1.67
  -1 -21   3    5.41    1.84
   1 -21  -3    3.30    1.83
   1  21   3   11.91    3.74
  -1  21  -3    5.44    2.85
   1  21   3    4.90    1.92
  -3 -21  -3    3.05    1.95
   3 -21   3    4.00    1.73
  -3 -21   3    6.00    1.99
   3  21   3    1.94    1.74
   3  21   3    1.16    2.30
   3 -21  -3    4.53    2.72
   5 -21   3    3.99    1.67
   5  21  -3    5.25    4.02
   5  21   3    4.69    2.11
  -5 -21   3    0.76    1.57
   5 -21  -3    2.43    2.04
   7 -21   3    0.83    1.57
   7  21  -3   -2.95    3.47
  -7 -21  -3    5.29    2.39
  -7 -21   3    0.12    1.55
   7 -21  -3   -3.30    1.68
   7  21   3    3.21    1.76
   0 -22   3    1.71    1.46
   0 -22  -3    1.74    1.66
   0  22   3    5.94    3.36
   0  22  -3   -0.75    2.54
   2  22  -3    4.13    4.86
   2 -22   3    1.13    1.43
  -2 -22  -3    3.58    2.09
   2  22   3    1.06    2.25
  -2 -22   3    0.54    1.49
   4 -22   3   -0.80    1.44
  -4 -22  -3    1.59    1.90
   4  22  -3    2.06    3.87
   4 -22  -3   -1.48    1.59
   4  22   3    0.77    2.17
  -4 -22   3   -0.23    1.43
   4  22   3    1.71    2.23
   6  22  -3    5.84    4.09
  -6 -22  -3   -0.73    1.82
   6 -22   3    1.86    1.69
   6 -22  -3    2.65    2.06
  -6 -22   3    2.22    1.67
   6  22   3   -2.49    1.69
   1 -23   3   13.96    2.52
  -1  23   3   19.94    5.05
   1  23  -3   13.56    4.14
  -1 -23  -3   13.16    2.96
   1 -23  -3    9.56    2.70
   1  23   3   12.86    4.10
  -1  23  -3    9.24    3.60
   3  23  -3    5.18    4.04
  -3 -23  -3    5.49    2.42
   3 -23   3   10.54    2.32
   3  23   3    9.41    3.19
   3 -23  -3   11.23    3.12
  -3 -23   3    3.94    1.85
  -5 -23  -3   19.08    3.60
   5  23  -3    7.00    4.60
   5 -23   3    9.59    4.08
   5 -23  -3   12.74    3.05
   5  23   3    6.28    2.51
  -5 -23   3   11.37    2.62
   0 -24   3    2.10    1.70
   0  24  -3    7.18    3.54
   0 -24  -3   -0.54    1.84
  -2  24   3    8.83    3.77
   2  24  -3   -2.97    2.83
   2 -24   3    3.12    1.83
  -2 -24  -3   -0.55    1.91
  -2 -24   3    1.32    1.59
  -2  24  -3    3.27    3.44
   2 -24  -3    0.38    1.81
   2  24   3    0.92    2.77
   4 -24   3    2.61    1.75
  -4 -24  -3   -2.66    1.81
   4  24  -3    4.48    4.00
  -4 -24   3    3.17    1.88
   4 -24  -3    1.16    2.06
   4  24   3   -0.22    2.35
  -1  25   3    4.80    3.25
   1 -25   3   -0.05    1.49
   1  25  -3    5.63    3.35
  -1 -25  -3    4.28    2.20
  -1  25  -3    0.78    2.88
  -1 -25   3    0.95    1.56
   1 -25  -3   -2.90    1.73
   1  25   3   -4.94    2.53
  -3 -25  -3    0.83    2.01
   3 -25   3    1.86    1.74
   3  25  -3    1.14    3.95
   3 -25  -3    0.71    1.80
  -3 -25   3    2.23    1.65
   3  25   3    0.07    2.71
   0 -26   3    0.25    1.75
   0  26  -3   -3.57    3.21
   0 -26  -3    2.44    1.96
   0  26   3   -2.48    2.92
  -2  26   3   11.23    3.97
   2  26  -3   -0.87    3.06
  -2 -26  -3   -1.15    2.05
   2 -26   3   -0.12    1.60
  -2 -26   3    1.30    1.76
   2 -26  -3    1.61    1.99
  -2  26  -3    3.63    3.12
   2  26   3    0.07    2.93
   0   0  -4  120.54    3.62
   0   0  -4  119.16    3.50
  -2   0   4  379.67   10.14
   2   0  -4  368.58   10.46
   2   0  -4  368.74   10.16
  -2   0   4  379.88   10.29
  -4   0  -4   60.43    2.27
  -4   0  -4   55.59    2.05
  -4   0   4   59.00    3.29
   4   0  -4   62.27    3.61
  -4   0   4   60.78    3.31
   4   0  -4   64.69    3.37
  -6   0   4  148.77    6.33
  -6   0   4  136.63    6.23
  -6   0  -4  145.30    5.01
   6   0  -4  139.18    6.58
  -6   0  -4  154.43    5.35
   6   0  -4  136.97    6.61
  -8   0   4   10.29    2.30
  -8   0  -4   16.09    3.05
   8   0  -4   11.26    2.55
  -8   0  -4   11.58    1.96
 -10   0  -4   27.30    3.00
  10   0  -4   27.12    3.95
 -10   0   4   26.82    3.93
  -1   1   4   45.20    1.95
   1   1  -4   44.18    2.02
   1   1  -4   46.33    2.25
  -1  -1   4   49.10    1.94
  -1   1  -4   43.37    1.22
  -1  -1   4   43.18    2.09
   1  -1  -4   46.29    2.17
   1  -1  -4   46.93    2.13
  -3   1   4   39.70    2.46
   3   1  -4   44.64    2.51
  -3   1   4   45.82    2.58
   3   1  -4   47.36    2.83
  -3   1  -4   44.01    1.31
  -3  -1   4   42.19    2.46
   3  -1  -4   45.44    2.79
   3  -1  -4   42.49    2.56
  -3  -1   4   42.98    2.62
  -5   1   4   16.52    2.26
  -5  -1  -4   16.62    1.38
   5   1  -4   13.15    2.26
   5   1  -4   16.72    2.19
  -5  -1  -4   14.44    1.27
  -5   1   4   20.07    2.52
  -5   1  -4   13.27    1.40
   5  -1  -4   15.11    2.33
  -5   1  -4   13.26    1.27
  -5  -1   4   16.29    2.24
   5  -1  -4   17.88    2.35
  -5  -1   4   16.17    2.27
  -7   1   4   22.18    3.04
  -7  -1  -4   21.65    2.07
   7   1  -4   23.81    3.36
  -7   1   4   18.10    2.79
  -7  -1  -4   16.60    1.92
   7   1  -4   17.37    2.52
  -7   1  -4   16.86    2.03
  -7  -1   4   19.84    2.84
  -7   1  -4   20.08    2.13
   7  -1  -4   16.33    2.57
   7  -1  -4   17.37    2.93
  -7  -1   4   18.58    2.65
   9   1  -4    1.37    1.76
  -9   1   4    2.57    1.77
  -9  -1  -4    2.46    1.43
   9  -1  -4    1.84    1.66
  -9  -1   4    2.12    1.65
  -9   1  -4    4.02    1.52
 -11   1   4    4.16    2.26
  11   1  -4    1.62    2.11
 -11  -1  -4    3.30    1.66
 -11  -1   4    1.85    2.01
  11  -1  -4    0.49    2.19
 -11   1  -4    5.72    1.92
   0  -2  -4    0.05    0.37
   0   2  -4    0.48    0.51
   0  -2  -4    0.36    0.33
   0   2  -4    0.42    0.35
  -2   2   4   23.81    1.80
  -2   2   4   19.91    1.52
   2   2  -4   23.55    1.92
   2   2  -4   20.92    1.60
  -2   2  -4   21.94    0.67
   2  -2  -4   23.88    1.76
  -2  -2   4   23.57    1.60
  -2   2  -4   23.21    0.81
  -2  -2   4   22.29    1.84
   2  -2  -4   21.94    1.77
   4   2  -4    1.18    0.97
   4   2  -4    1.92    1.06
  -4  -2  -4   -0.01    0.43
  -4   2   4   -0.35    0.85
  -4   2   4    0.25    0.73
  -4  -2  -4   -0.25    0.33
  -4  -2   4   -0.62    0.81
  -4   2  -4   -0.12    0.45
   4  -2  -4    0.39    1.00
   4  -2  -4   -0.05    0.87
  -4   2  -4    0.95    0.45
  -4  -2   4    0.86    0.82
  -6   2   4    9.07    1.83
   6   2  -4   16.33    2.65
  -6  -2  -4   10.35    1.39
   6   2  -4   14.93    2.52
  -6  -2  -4    9.08    1.30
  -6   2   4    8.10    1.86
   6  -2  -4    8.94    2.16
  -6   2  -4    9.89    1.58
  -6   2  -4    6.35    1.16
  -6  -2   4   10.95    1.86
  -6  -2   4    9.32    1.89
   6  -2  -4    8.30    2.13
  -8  -2  -4    0.19    1.06
   8   2  -4   -0.70    1.39
  -8   2   4   -0.82    1.07
  -8  -2  -4   -0.17    1.08
   8  -2  -4   -1.53    1.20
  -8   2  -4   -1.15    0.93
  -8  -2   4    0.20    1.26
 -10  -2  -4    4.00    1.59
 -10   2   4    0.66    1.63
  10   2  -4    1.80    1.94
 -10  -2   4    1.92    1.89
  10  -2  -4    1.12    1.64
 -10   2  -4   -0.40    1.39
  -1   3   4  142.13    4.20
   1   3  -4  139.62    4.42
   1   3  -4  140.53    5.02
  -1  -3  -4  139.16    3.78
   1  -3  -4  140.37    4.63
  -1   3  -4  145.54    3.88
  -1  -3   4  136.51    4.17
   1  -3  -4  142.43    4.79
   3   3  -4  104.12    4.59
  -3  -3  -4   99.76    2.87
  -3  -3  -4  102.55    2.95
  -3   3   4  102.11    4.15
   3   3  -4   99.49    4.01
  -3   3   4  101.19    4.29
   3  -3  -4   96.29    4.21
  -3   3  -4   94.27    3.14
  -3  -3   4  102.45    4.46
  -3   3  -4   99.50    3.04
   3  -3  -4  105.27    4.46
  -3  -3   4  101.24    4.05
  -5   3   4   79.58    4.19
   5   3  -4   71.79    4.40
  -5  -3  -4   77.65    3.12
   5   3  -4   77.06    3.94
  -5   3   4   75.69    4.11
  -5  -3  -4   73.74    3.08
  -5   3  -4   79.27    3.12
   5  -3  -4   79.58    4.30
  -5  -3   4   83.02    4.21
  -5  -3   4   79.25    4.30
  -5   3  -4   75.52    3.45
   5  -3  -4   71.58    4.30
  -7   3   4   32.64    3.25
  -7   3   4   33.83    3.38
   7   3  -4   34.62    3.64
  -7  -3  -4   33.08    2.50
   7   3  -4   30.29    3.07
  -7  -3  -4   31.55    2.43
  -7  -3   4   34.10    3.27
  -7   3  -4   31.97    2.43
   7  -3  -4   28.51    3.23
  -7   3  -4   25.14    2.55
   7  -3  -4   30.42    3.40
  -7  -3   4   31.02    3.01
   9   3  -4   15.29    3.10
  -9   3   4   21.62    3.26
  -9  -3  -4   19.93    2.63
  -9  -3   4   17.57    2.99
   9  -3  -4   22.19    3.57
  -9   3  -4   22.66    2.70
 -11   3   4    1.93    2.13
 -11  -3  -4    6.95    1.97
  11   3  -4    3.49    2.56
 -11  -3   4    4.79    2.42
  11  -3  -4    2.69    2.25
 -11   3  -4    6.70    2.17
   0  -4   4  159.14    4.08
   0   4  -4  161.35    4.73
   0   4  -4  154.94    5.49
   0  -4  -4  161.78    4.83
   2   4  -4   44.10    2.82
  -2   4   4   48.54    2.39
  -2  -4  -4   42.31    1.70
  -2  -4  -4   43.84    1.67
  -2  -4   4   44.79    2.29
   2  -4  -4   44.13    2.56
  -2   4  -4   46.53    1.88
  -2  -4   4   42.00    2.78
   2  -4  -4   46.71    3.06
  -4   4   4   93.63    4.47
  -4  -4  -4   92.64    3.39
  -4  -4  -4   96.09    3.32
   4   4  -4   94.80    4.25
   4   4  -4   86.05    4.68
  -4   4   4   97.19    4.42
   4  -4  -4   97.56    4.60
  -4  -4   4   97.84    4.29
   4  -4  -4   94.41    4.61
  -4  -4   4   95.27    4.61
  -4   4  -4   97.64    3.42
  -4   4  -4   93.28    3.64
  -6   4   4   16.05    2.51
   6   4  -4   10.80    2.21
   6   4  -4   18.04    2.87
  -6   4   4   14.42    2.36
  -6  -4  -4   16.77    1.70
  -6  -4  -4   13.88    1.75
   6  -4  -4   16.13    2.68
  -6  -4   4   14.77    2.37
  -6  -4   4   17.56    2.51
   6  -4  -4   18.26    3.17
  -6   4  -4   15.50    2.06
  -6   4  -4   15.16    1.69
  -8  -4  -4   27.51    2.59
  -8   4   4   26.47    3.12
  -8  -4  -4   23.29    4.28
   8   4  -4   23.83    3.83
  -8   4  -4   23.76    2.53
  -8  -4   4   20.82    3.08
  -8   4  -4   31.08    4.75
   8  -4  -4   28.11    3.73
  10   4  -4    4.04    2.34
 -10   4   4    2.68    2.04
 -10  -4  -4    2.23    1.39
  10  -4  -4    4.32    2.28
 -10   4  -4    0.37    1.31
 -10  -4   4    3.40    1.90
   1   5  -4   17.60    1.98
   1   5  -4   13.08    1.30
  -1   5   4   13.43    1.15
  -1  -5  -4   16.35    1.18
   1  -5  -4   13.31    1.57
  -1   5  -4   15.24    1.20
   1  -5  -4   16.84    1.50
  -1  -5   4   15.54    1.24
  -3   5   4   12.48    1.72
   3   5  -4   11.68    1.99
   3   5  -4   16.06    1.91
  -3  -5  -4   11.29    1.06
  -3  -5  -4   11.79    1.17
   3  -5  -4   10.74    1.76
   3  -5  -4   10.94    1.80
  -3  -5   4   13.11    1.73
  -3   5  -4   11.77    1.26
  -5   5   4    8.59    1.72
  -5  -5  -4   10.90    1.77
   5   5  -4    7.60    1.66
  -5  -5  -4    9.10    1.39
  -5   5   4    9.96    1.89
   5   5  -4    7.24    1.93
  -5   5  -4    9.26    1.59
  -5  -5   4    7.53    1.68
   5  -5  -4   10.63    1.98
  -5   5  -4    8.47    1.37
  -5  -5   4    6.88    1.88
   5  -5  -4    5.83    1.68
  -7   5   4    4.67    1.72
  -7  -5  -4    1.72    1.16
  -7  -5  -4    3.83    1.24
  -7   5   4    5.36    1.86
   7   5  -4    4.00    1.99
  -7  -5   4    4.14    1.57
  -7   5  -4    4.46    1.33
  -7  -5   4    1.65    1.73
   7  -5  -4    5.84    1.94
  -7   5  -4    7.64    1.68
   9   5  -4    1.60    1.98
  -9  -5  -4    0.31    1.32
  -9   5   4    3.34    1.75
   9  -5  -4    3.26    1.91
  -9   5  -4    4.06    1.50
  -9  -5   4    4.32    1.76
 -11  -5  -4    2.65    1.71
  11   5  -4    1.47    2.54
 -11   5   4   -1.38    1.67
 -11   5  -4    1.89    1.76
  11  -5  -4    8.63    2.88
 -11  -5   4    0.55    1.67
   0   6  -4  186.62    6.84
   0  -6   4  192.61    5.30
   0   6   4  191.78    5.55
   0   6   4  191.91    5.10
   0   6  -4  185.17    5.77
   0  -6  -4  191.13    5.92
  -2  -6  -4   15.62    1.32
  -2   6   4   19.07    1.64
   2   6  -4   17.31    1.66
  -2  -6  -4   15.99    1.44
   2   6  -4   19.07    2.18
  -2  -6   4   14.63    1.50
   2  -6  -4   15.96    2.10
  -2   6  -4   18.32    1.50
  -2  -6   4   17.47    2.10
   2  -6  -4   15.63    1.75
   4   6  -4  122.78    5.96
  -4  -6  -4  117.02    4.27
  -4   6   4  118.39    5.04
  -4  -6  -4  114.67    4.19
   4   6  -4  113.78    4.86
  -4  -6   4  111.90    5.41
  -4  -6   4  112.18    5.53
   4  -6  -4  108.51    5.27
  -4   6  -4  117.09    4.40
  -4   6  -4  115.98    4.56
   4  -6  -4  113.20    5.55
  -6  -6  -4    4.92    1.25
   6   6  -4    6.97    1.85
  -6   6   4    5.64    1.76
   6   6  -4    8.17    2.34
  -6  -6  -4    4.74    1.31
  -6   6   4    7.18    1.63
  -6   6  -4    6.77    1.56
  -6  -6   4    3.81    1.86
  -6   6  -4    6.99    1.40
   6  -6  -4    6.10    1.96
   6  -6  -4    6.30    1.87
  -6  -6   4    5.55    1.69
   8   6  -4   37.50    4.86
  -8   6   4   33.62    3.55
  -8  -6  -4   27.77    2.85
  -8  -6  -4   34.67    3.04
   8  -6  -4   33.05    3.82
  -8   6  -4   33.03    3.52
  -8  -6   4   29.61    3.20
  -8   6  -4   34.54    2.97
 -10   6   4    1.67    1.94
  10   6  -4    0.42    2.28
 -10  -6  -4   -0.23    1.42
 -10  -6   4    2.08    1.64
 -10   6  -4    0.25    1.36
  10  -6  -4   -2.34    1.59
  -1   7   4   41.35    2.14
   1  -7   4   36.99    1.89
   1  -7   4   38.92    1.59
   1   7  -4   34.36    3.02
   1   7  -4   40.99    2.38
  -1  -7  -4   37.77    2.16
  -1   7  -4   37.70    2.23
   1  -7  -4   40.61    2.47
  -1  -7   4   40.46    2.12
  -3  -7  -4   24.56    1.90
  -3  -7  -4   28.51    1.97
   3   7  -4   27.35    2.91
   3   7  -4   22.08    2.02
  -3   7   4   27.18    2.19
   3  -7  -4   28.05    2.70
  -3   7  -4   24.63    1.98
  -3  -7   4   27.27    2.14
  -3  -7   4   28.13    2.68
   3  -7  -4   24.76    2.41
   5   7  -4   29.70    3.29
  -5   7   4   23.10    2.73
  -5  -7  -4   23.78    2.07
   5   7  -4   25.84    2.52
  -5  -7  -4   29.40    2.29
  -5   7   4   23.28    2.51
   5  -7  -4   28.05    3.03
  -5   7  -4   27.93    2.51
   5  -7  -4   24.82    2.74
  -5  -7   4   29.53    2.77
  -5   7  -4   25.42    2.22
  -5  -7   4   24.09    2.55
  -7  -7  -4    8.23    2.86
  -7  -7  -4    7.04    1.60
  -7   7   4   11.60    2.38
   7   7  -4    8.39    2.51
  -7   7   4    4.94    2.20
  -7  -7   4    8.13    2.12
  -7   7  -4    8.32    1.75
   7  -7  -4    7.80    2.15
  -7   7  -4    7.71    1.70
   9   7  -4    7.10    4.03
  -9   7   4    9.19    3.70
  -9  -7  -4    8.97    2.11
  -9   7  -4    8.40    1.94
 -11   7   4    0.84    2.00
  11   7  -4    0.90    2.56
  11  -7  -4   -2.92    1.94
 -11   7  -4   -1.24    1.88
 -11  -7   4    1.42    2.04
   0  -8  -4   12.70    1.54
   0   8  -4   12.01    2.08
   0   8   4   14.64    1.85
   0  -8   4   11.76    1.20
   0   8  -4   12.80    1.66
   0   8   4   13.68    1.18
  -2   8   4   -0.75    0.66
   2   8  -4   -0.86    1.13
   2  -8   4   -0.02    0.44
  -2  -8  -4    1.26    0.76
   2   8  -4   -0.92    0.73
   2  -8   4    0.21    0.39
   2  -8  -4    0.14    0.85
   2  -8  -4    0.11    0.94
  -2  -8   4    0.10    0.72
   4   8  -4    8.03    1.67
  -4  -8  -4    7.55    1.40
  -4  -8  -4    7.38    1.37
   4   8  -4    7.02    2.10
  -4   8   4   11.66    1.90
   4  -8  -4    8.36    1.83
   4  -8  -4    7.63    1.93
  -4  -8   4    8.38    1.95
  -4  -8   4    9.50    1.70
  -4   8  -4    6.11    1.38
   6   8  -4    2.56    1.78
  -6   8   4   -1.95    1.07
  -6  -8  -4    0.86    1.08
  -6  -8  -4   -1.18    0.85
   6   8  -4   -0.16    1.25
  -6   8   4   -1.00    1.10
  -6  -8   4    0.82    1.31
  -6  -8   4    0.45    1.33
   6  -8  -4   -1.50    1.10
   6  -8  -4   -1.17    1.46
  -6   8  -4   -1.11    1.05
  -6   8  -4    0.52    0.97
  -8  -8  -4    0.46    1.32
  -8   8   4    1.93    1.60
   8   8  -4    1.05    2.00
  -8  -8  -4    1.66    1.59
  -8   8  -4    3.14    1.39
   8  -8  -4    1.62    1.59
  -8  -8   4    1.52    1.41
 -10   8   4    0.45    1.82
  10   8  -4    1.86    2.41
 -10  -8  -4    0.85    1.54
  10  -8  -4    2.46    1.96
 -10  -8   4   -1.24    1.51
 -10   8  -4    0.95    1.47
   1   9  -4   74.37    3.67
  -1  -9  -4   80.81    3.70
   1   9  -4   74.65    4.79
   1  -9   4   78.27    2.91
  -1   9   4   75.70    3.33
  -1   9  -4   73.73    3.63
  -1  -9   4   81.07    3.34
   1   9   4   75.31    3.14
   1   9   4   77.51    2.77
   1  -9  -4   82.04    3.90
   3  -9   4   68.83    2.53
  -3  -9  -4   67.59    3.61
   3   9  -4   72.77    5.04
  -3  -9  -4   73.37    3.60
   3   9  -4   69.09    3.77
   3  -9   4   74.65    2.42
  -3   9   4   70.45    3.70
  -3  -9   4   74.01    4.55
  -3   9  -4   72.87    3.74
  -3  -9   4   66.87    4.12
   3  -9  -4   71.26    4.52
   3  -9  -4   71.93    4.17
  -5  -9  -4   32.61    2.74
  -5  -9  -4   31.51    2.61
  -5   9   4   40.45    3.30
   5   9  -4   31.97    2.83
   5   9  -4   35.23    3.95
  -5   9  -4   34.40    2.97
  -5  -9   4   33.80    3.45
   5  -9  -4   38.80    3.68
   5  -9  -4   40.94    3.45
  -5  -9   4   34.13    2.86
  -7  -9  -4   35.57    3.18
   7   9  -4   27.57    4.26
   7  -9  -4   33.33    3.59
  -7   9  -4   25.06    3.31
  -7   9  -4   27.07    2.81
  -7  -9   4   29.70    3.22
  -9   9   4    8.08    2.27
  -9  -9  -4    7.19    1.94
   9   9  -4    7.05    2.75
  -9  -9   4    7.70    2.40
  -9   9  -4    7.93    2.00
   9  -9  -4    4.17    2.09
 -11  -9  -4    2.76    2.06
 -11   9   4    2.76    2.18
  11   9  -4    2.00    2.94
  11  -9  -4    3.55    2.39
 -11  -9   4    2.46    2.28
 -11   9  -4    3.81    2.00
   0 -10   4   63.64    2.85
   0 -10  -4   64.79    3.50
   0  10   4   66.39    3.91
   0  10  -4   62.10    3.41
   0  10  -4   59.38    4.31
   0  10   4   61.84    2.85
   2  10  -4  162.63    6.21
   2 -10   4  163.94    5.67
  -2 -10  -4  157.40    6.04
  -2  10   4  155.23    5.86
   2 -10   4  162.69    4.94
   2  10   4  170.42    4.97
  -2  10  -4  167.89    6.29
   2 -10  -4  167.57    6.52
  -2 -10   4  169.63    5.84
   2  10   4  170.37    4.74
   2 -10  -4  148.54    6.94
  -4 -10  -4   37.66    2.85
   4  10  -4   36.28    3.14
   4  10  -4   37.05    3.92
   4 -10   4   35.93    1.69
  -4 -10  -4   38.41    2.90
  -4  10   4   41.84    3.00
   4 -10   4   36.51    1.82
  -4 -10   4   34.87    2.81
  -4  10  -4   29.80    2.80
   4 -10  -4   39.55    3.23
  -4 -10   4   36.91    3.50
   4 -10  -4   33.18    3.49
  -6  10   4   56.37    4.30
   6 -10   4   65.67    2.00
  -6 -10  -4   62.61    3.99
  -6 -10  -4   59.69    4.45
   6  10  -4   67.55    5.50
  -6 -10   4   66.94    4.84
  -6 -10   4   68.45    4.34
  -6  10  -4   67.72    4.88
   6 -10  -4   74.06    4.90
   8  10  -4    5.35    2.53
  -8 -10  -4   10.42    2.24
   8 -10  -4   11.59    2.58
  -8 -10   4    4.04    1.78
  10  10  -4   10.21    3.58
 -10 -10  -4   10.44    2.63
 -10 -10   4   15.50    3.10
  10 -10  -4   14.46    3.19
 -10  10  -4   12.97    2.71
   1  11  -4    6.22    2.58
   1  11  -4    5.88    1.51
   1 -11   4    7.28    1.15
  -1  11   4    6.57    1.32
  -1 -11  -4    5.94    1.59
   1  11   4    8.64    1.64
  -1  11  -4    9.55    1.72
  -1 -11   4    7.62    1.35
   1  11   4    7.07    1.10
   1 -11  -4    8.32    1.67
  -3  11   4    2.05    1.09
   3 -11   4    3.11    0.83
   3  11  -4    0.55    1.70
  -3 -11  -4    2.71    1.21
   3  11  -4    2.97    1.45
   3 -11   4    2.90    1.05
   3 -11  -4    1.04    1.17
   3  11   4    2.99    0.70
   3  11   4    2.17    0.53
  -3  11  -4    3.72    1.28
   3 -11  -4    0.77    1.47
  -3 -11   4    3.14    1.24
  -5 -11  -4    5.16    1.48
  -5 -11  -4    4.75    1.68
   5  11  -4    4.43    1.60
   5  11  -4    3.97    2.19
   5 -11   4    5.16    0.89
   5 -11   4    5.70    0.92
  -5 -11   4    2.49    1.88
   5 -11  -4    6.43    1.97
  -5  11  -4    4.53    1.59
   5 -11  -4    6.87    2.35
  -5 -11   4    1.88    1.34
  -7 -11  -4   -1.03    1.44
   7  11  -4    0.46    1.89
   7 -11   4    0.41    0.48
  -7 -11  -4   -1.71    1.23
   7 -11  -4    1.31    1.62
  -7 -11   4   -0.44    1.31
  -9 -11  -4    1.38    1.71
   9  11  -4   -2.14    2.28
   9 -11  -4    3.21    2.16
  -9 -11   4    2.91    1.90
   0  12  -4    7.05    1.69
   0  12   4    7.08    1.23
   0 -12  -4    7.95    1.72
   0 -12   4    6.06    1.25
   0  12   4    4.67    1.86
   2  12  -4   20.58    2.31
   2 -12   4   20.75    2.51
  -2 -12  -4   22.05    2.68
  -2  12   4   17.71    2.07
   2  12  -4   18.13    3.56
   2 -12   4   19.81    1.70
   2 -12  -4   21.98    2.55
   2  12   4   22.71    1.65
   2  12   4   21.27    2.02
  -2  12  -4   21.34    2.41
  -2 -12   4   23.93    2.22
   2 -12  -4   14.73    2.67
  -4 -12  -4    1.36    1.26
   4  12  -4    3.06    1.53
   4 -12   4    3.37    0.88
   4  12  -4    3.47    2.34
   4 -12   4    4.13    1.11
  -4  12   4    1.91    1.25
  -4 -12   4    3.02    1.42
   4 -12  -4    4.31    2.29
   4  12   4    4.91    0.77
  -4  12  -4    3.79    1.48
   4 -12  -4    1.69    1.52
   4  12   4    3.15    0.60
  -6 -12  -4    7.39    1.85
   6 -12   4    7.48    1.06
  -6 -12  -4    7.95    2.04
   6  12  -4   13.22    3.33
   6 -12   4    8.36    1.12
   6 -12  -4    7.47    2.17
  -6  12  -4    8.23    2.42
  -6 -12   4    6.21    1.90
  -8 -12  -4    0.78    1.44
   8 -12  -4    0.80    2.53
  10  12  -4    2.29    3.01
 -10 -12   4    1.56    1.73
  10 -12  -4   -1.21    1.80
   1 -13   4   34.98    2.32
   1  13  -4   33.01    2.93
   1  13  -4   40.20    4.40
  -1  13   4   31.85    2.49
  -1 -13   4   28.25    2.37
   1 -13  -4   33.71    3.10
   1  13   4   33.70    3.08
   1  13   4   35.78    2.35
  -1  13  -4   33.10    3.06
   3  13  -4   24.29    2.62
   3  13  -4   20.82    3.76
  -3  13   4   21.38    2.39
   3 -13   4   26.28    2.00
   3 -13   4   25.37    2.50
  -3  13  -4   25.85    2.76
  -3 -13   4   25.29    2.47
   3  13   4   27.31    2.11
   3 -13  -4   24.62    2.94
   3  13   4   22.18    1.66
   3 -13  -4   21.44    3.30
  -5 -13  -4   15.98    2.57
   5  13  -4   23.85    4.24
  -5 -13  -4   12.28    2.87
   5 -13   4   19.07    1.75
  -5  13   4   19.03    2.68
   5 -13   4   24.13    2.05
  -5 -13   4   18.83    2.66
  -5  13  -4   18.64    2.69
   5 -13  -4   22.18    3.22
  -5 -13   4   17.97    3.32
   5  13   4   19.56    1.52
   5  13   4   19.64    1.27
   7 -13   4    6.92    1.11
   7 -13   4    5.46    1.03
   7  13  -4    8.59    3.10
  -7 -13  -4    8.72    2.09
  -7 -13   4    9.94    2.27
   7 -13  -4    6.60    2.20
   9  13  -4    6.70    3.06
  -9 -13  -4    1.55    1.79
   9 -13  -4    0.81    1.85
  -9 -13   4    3.06    2.04
   0  14  -4   26.89    4.02
   0  14  -4   26.24    2.94
   0  14   4   31.92    2.49
   0 -14  -4   30.04    2.96
   0 -14   4   24.52    2.26
   0  14   4   24.97    4.38
   2 -14   4   25.61    2.71
  -2  14   4   28.82    2.59
   2  14  -4   28.41    2.94
   2  14  -4   34.01    5.06
   2 -14   4   24.90    3.11
  -2 -14  -4   27.66    3.00
   2 -14  -4   29.38    3.87
  -2  14  -4   28.06    2.99
   2  14   4   27.03    2.64
   2  14   4   30.56    2.16
   2 -14  -4   30.33    3.05
  -2 -14   4   30.60    2.58
   4  14  -4   17.59    3.90
   4 -14   4   17.72    1.82
  -4  14   4   13.93    2.62
  -4 -14  -4   18.67    2.83
   4 -14   4   18.65    3.24
   4 -14  -4    9.33    2.25
   4  14   4   15.54    1.68
  -4 -14   4   16.96    2.44
  -4  14  -4   11.80    2.20
   4  14   4   15.64    1.50
   6  14  -4   12.06    3.53
   6 -14   4   10.37    1.49
  -6 -14  -4   17.17    2.88
   6 -14   4   13.48    1.72
   6  14   4   11.20    0.89
  -6 -14   4   11.53    2.25
   6 -14  -4    9.49    2.42
  -8 -14  -4    4.78    1.99
   8 -14   4    3.75    1.02
   8  14  -4    2.58    2.73
   8 -14   4    3.53    0.99
  -8 -14   4    1.55    1.68
   8 -14  -4    3.07    1.95
  -1  15   4   36.64    2.89
   1  15  -4   46.10    5.19
   1 -15   4   37.50    2.69
   1  15  -4   32.65    3.11
  -1 -15  -4   35.87    3.42
  -1 -15   4   37.02    2.82
   1 -15  -4   41.84    3.64
  -1  15  -4   37.60    3.31
   1  15   4   35.31    2.61
  -3  15   4   27.64    2.87
  -3 -15  -4   28.03    3.13
   3 -15   4   30.95    2.40
   3  15  -4   30.49    4.84
   3 -15   4   29.79    3.07
   3 -15  -4   31.04    3.27
  -3  15  -4   35.76    3.42
   3  15   4   27.87    2.18
   3  15   4   28.78    2.58
  -3 -15   4   33.64    2.99
   5 -15   4   16.93    2.69
  -5 -15  -4   21.37    3.05
   5  15  -4   27.78    4.87
  -5 -15   4   19.91    2.86
   5 -15  -4   20.40    3.14
   5  15   4   20.90    1.82
   5  15   4   20.37    1.70
  -7 -15  -4    9.45    2.39
   7  15  -4    4.51    3.37
   7 -15   4   15.56    2.53
   7 -15   4    7.47    1.59
   7 -15  -4    7.70    2.69
  -9 -15  -4    4.89    3.56
   9  15  -4    3.14    3.13
  -9 -15   4    4.24    2.15
   9 -15  -4    5.42    2.21
   0  16  -4   49.43    5.23
   0  16  -4   47.34    3.81
   0 -16  -4   49.30    3.98
   0 -16   4   46.31    3.16
   0  16   4   53.37    4.97
   0  16   4   46.33    3.24
   2  16  -4    0.87    2.19
  -2 -16  -4    3.46    1.71
   2 -16   4    2.40    1.20
   2 -16   4    6.24    1.97
  -2  16   4    5.92    1.52
   2 -16  -4    2.65    1.67
   2  16   4    2.94    2.37
  -2  16  -4    7.61    1.97
  -2 -16   4    4.38    1.44
   2  16   4    2.90    1.15
  -4 -16  -4   30.14    3.46
   4 -16   4   26.93    3.09
   4 -16   4   31.43    2.51
  -4  16   4   32.47    3.36
   4  16  -4   28.06    5.05
  -4 -16   4   31.33    3.05
   4  16   4   29.75    2.54
   4  16   4   31.01    2.34
   4 -16  -4   34.18    3.52
   6 -16   4    1.27    1.02
   6 -16   4    2.59    1.73
  -6 -16  -4   -1.00    1.49
   6  16  -4   -1.96    2.61
   6  16   4    0.91    0.80
   6 -16  -4    2.04    1.74
   6  16   4    0.97    0.79
  -6 -16   4    0.42    1.28
  -8 -16  -4   10.50    2.83
   8 -16   4    6.13    1.58
   8 -16   4    8.16    1.61
   8  16  -4    5.96    3.49
  -8 -16   4    4.89    2.09
   8 -16  -4    8.03    2.52
  -1  17   4   -1.60    1.12
   1  17  -4   -0.78    2.17
  -1 -17  -4    1.93    1.57
  -1  17   4    1.11    2.09
   1 -17   4   -1.10    0.91
  -1 -17   4    0.76    1.11
   1  17   4   -0.90    0.98
   1  17   4   -0.30    1.65
   1 -17  -4   -0.66    1.36
  -1  17  -4    0.81    1.88
   3 -17   4    0.68    1.61
  -3 -17  -4   -0.93    1.13
  -3  17   4    3.76    1.58
   3  17  -4    4.79    2.44
   3 -17   4    2.42    1.20
   3  17   4    0.61    1.27
   3  17   4   -0.25    1.02
  -3 -17   4   -1.01    1.05
   3 -17  -4    3.48    1.77
   5 -17   4   -1.18    1.50
   5 -17   4   -1.33    0.86
   5  17  -4   -2.14    2.20
  -5 -17  -4    0.59    1.68
   5  17   4   -0.12    1.17
   5  17   4    0.64    1.01
  -5 -17   4   -0.41    1.44
   5 -17  -4    0.45    1.64
   7 -17   4    0.71    1.04
   7 -17   4    0.13    2.17
   7  17  -4   -0.90    2.58
  -7 -17  -4   -2.00    1.57
   7  17   4    0.83    0.80
   7 -17  -4   -0.87    1.64
  -7 -17   4    1.29    1.63
   0  18   4    4.97    1.68
   0  18  -4    5.58    2.66
   0 -18  -4    3.41    1.77
   0 -18   4    7.38    1.69
   0  18   4   10.72    3.20
  -2 -18  -4    1.60    1.60
   2  18  -4   -0.91    2.40
   2 -18   4    0.84    1.22
   2 -18   4    1.00    1.97
  -2  18   4    0.91    1.49
   2 -18  -4    1.25    1.58
   2  18   4    1.00    1.54
  -2 -18   4    0.21    1.25
   2  18   4    3.83    1.40
   4  18  -4    8.37    3.49
   4 -18   4    1.67    1.27
   4 -18   4    6.70    2.23
  -4 -18  -4    4.01    1.90
  -4 -18   4    4.00    1.68
   4  18   4    1.26    1.31
   4  18   4    2.77    1.58
   4 -18  -4    6.09    2.03
   6 -18   4   -4.19    1.60
  -6 -18  -4    1.24    1.78
   6  18  -4   -0.77    2.89
   6 -18   4    1.02    1.23
   6 -18  -4    1.46    1.77
  -6 -18   4    2.80    1.65
   6  18   4    0.11    1.73
   6  18   4   -1.15    1.12
   8  18  -4    0.64    3.11
  -8 -18  -4    1.68    1.97
   8 -18   4    2.60    1.28
   8 -18  -4    1.41    1.96
  -8 -18   4   -0.30    1.62
   1  19  -4   12.07    3.85
  -1  19   4   17.71    2.57
  -1 -19  -4   10.12    2.34
  -1  19   4   17.50    3.92
   1 -19   4   12.92    2.06
   1  19   4   10.50    1.94
   1  19   4   20.52    3.55
  -1  19  -4   11.65    3.52
   1 -19  -4   11.55    2.50
  -1 -19   4   15.96    2.43
   3  19  -4   14.70    4.07
   3 -19   4   10.82    1.97
  -3 -19  -4   12.24    2.54
   3 -19   4   11.83    3.07
   3  19   4   10.14    1.92
  -3 -19   4   12.00    2.23
   3 -19  -4   14.91    2.90
   3  19   4   12.78    2.47
   5 -19   4    5.51    1.69
   5 -19   4    2.71    2.16
   5  19  -4    4.80    3.38
  -5 -19  -4    9.17    2.59
  -5 -19   4    5.30    2.28
   5  19   4    2.99    1.53
   5 -19  -4    5.06    2.09
   5  19   4    3.71    1.95
   7  19  -4    5.76    3.76
   7 -19   4    5.85    2.38
  -7 -19  -4    3.07    2.26
   7 -19   4    4.77    1.48
   7  19   4    3.07    1.48
  -7 -19   4    3.08    1.86
   7 -19  -4    9.04    2.70
   7  19   4    1.29    1.17
   0  20  -4   18.46    4.15
   0  20   4   16.98    2.86
   0  20   4   21.18    4.17
   0 -20  -4   18.80    3.20
   0 -20   4   16.40    2.45
   2 -20   4   12.57    3.34
   2  20  -4   23.98    5.13
   2 -20   4   16.67    2.43
  -2 -20  -4   21.96    3.53
   2  20   4   20.11    2.60
   2  20   4   21.43    3.39
  -2 -20   4   18.08    2.61
   2 -20  -4   13.85    2.95
   4 -20   4    5.44    3.38
  -4 -20  -4    9.81    2.74
   4 -20   4    9.97    2.06
   4  20  -4    9.05    3.95
   4  20   4    9.12    2.26
   4  20   4   12.23    2.07
  -4 -20   4    8.90    3.31
   4 -20  -4   11.09    2.72
  -6 -20  -4   10.92    4.47
   6 -20   4    6.76    2.89
   6 -20   4    6.40    1.66
   6  20  -4    7.06    4.71
  -6 -20   4    8.41    2.36
   6  20   4    7.79    1.86
   6  20   4    5.47    2.10
   6 -20  -4    7.73    2.60
  -1  21   4   14.42    4.13
   1  21  -4    8.14    3.65
  -1 -21  -4    8.07    2.59
   1 -21   4   10.21    2.08
   1 -21  -4    5.79    2.32
  -1  21  -4   11.81    3.70
  -1 -21   4    9.03    2.07
   1  21   4   11.04    3.21
   1  21   4    7.22    2.29
   3 -21   4    4.11    1.63
   3 -21   4    8.74    3.29
   3  21  -4    5.12    3.47
  -3 -21  -4    5.96    2.25
  -3 -21   4    9.02    2.38
   3 -21  -4    9.75    2.63
   3  21   4    8.16    2.49
   3  21   4    5.04    1.82
   5 -21   4    3.36    1.61
  -5 -21  -4    5.90    2.67
   5 -21   4   -1.79    4.00
   5  21  -4    7.35    4.44
   5  21   4    6.42    2.08
   5 -21  -4    3.46    2.22
   5  21   4    6.43    1.94
  -5 -21   4    3.99    1.97
  -7 -21  -4    9.27    2.71
   7 -21   4    1.76    1.64
   7  21  -4   -8.50    3.43
   7  21   4    0.75    2.37
  -7 -21   4    1.41    1.79
   7 -21  -4    3.10    2.43
   0  22  -4    0.48    3.42
   0 -22   4   -0.66    1.22
   0 -22  -4    4.63    2.39
   0  22   4   -0.57    2.43
  -2 -22  -4    1.82    2.07
   2 -22   4    1.10    1.44
   2  22  -4    3.25    2.80
  -2  22   4    5.98    3.20
   2 -22  -4    2.61    1.95
  -2  22  -4   -0.99    2.60
   2  22   4    4.44    2.26
   2  22   4   -2.54    1.76
  -4 -22  -4    0.54    1.86
   4  22  -4   -3.49    3.02
   4 -22   4    0.36    1.44
   4 -22   4    2.51    5.09
  -4 -22   4   -1.88    1.40
   4 -22  -4    2.41    2.00
   4  22   4   -1.15    1.98
   4  22   4    0.35    1.84
  -6 -22  -4    3.07    2.27
   6 -22   4    1.50    1.44
   6  22  -4   -4.91    3.40
   6  22   4   -0.38    1.50
   6 -22  -4    0.77    2.00
  -6 -22   4    1.42    1.71
   1 -23   4    0.64    1.46
  -1  23   4   -0.99    2.38
   1  23  -4    2.75    2.88
  -1 -23  -4    2.35    1.97
  -1  23  -4   -4.37    1.93
   1  23   4   -2.87    2.19
  -1 -23   4   -0.86    1.72
   1 -23  -4   -1.38    1.57
  -3 -23  -4   -2.99    1.94
   3  23  -4    1.49    2.74
   3 -23   4   -0.93    1.34
   3 -23  -4    1.42    1.81
  -3 -23   4    0.45    1.45
   3  23   4   -2.93    2.24
   3  23   4   -3.93    1.81
   5  23  -4   -0.76    3.82
  -5 -23  -4    0.23    1.97
   5 -23   4    0.29    1.43
   5 -23  -4    1.83    2.02
  -5 -23   4   -0.25    1.70
   5  23   4   -0.20    1.66
   0  24  -4    0.80    2.97
   0 -24  -4   -1.64    1.65
   0 -24   4   -1.54    1.47
   0  24   4    2.55    2.95
   2  24  -4    0.54    3.18
  -2 -24  -4    5.17    2.52
  -2  24   4    7.97    3.69
  -2 -24   4    5.73    1.93
   2 -24  -4    3.45    2.17
  -2  24  -4    4.86    3.29
   2  24   4    3.38    2.55
   4  24  -4   -4.37    3.36
  -4 -24  -4   -1.66    2.00
   4  24   4    1.38    1.89
   4 -24  -4    0.17    2.02
  -4 -24   4    1.30    1.76
   1 -25   4    2.58    1.71
   1  25  -4    7.62    4.10
  -1  25   4    9.63    4.24
  -1 -25  -4    5.29    2.32
  -1 -25   4    4.00    1.88
   1 -25  -4    3.22    2.14
  -1  25  -4    6.69    3.64
   1  25   4   -0.19    4.94
   3 -25   4    3.78    1.77
   3  25  -4    9.50    4.35
  -3 -25  -4    1.23    2.38
  -3  25   4    7.61    3.72
  -3 -25   4    0.19    1.55
   3  25   4    0.70    2.52
  -3  25  -4   -3.89    2.61
   3 -25  -4    2.50    2.14
   0  26   4    2.20    3.44
   0 -26   4    3.97    2.05
   0  26  -4    0.18    3.55
   0 -26  -4    3.24    2.28
   0   0  -5    0.06    0.38
   0   0  -5   -0.02    0.36
   2   0  -5    0.38    0.67
   2   0  -5    0.51    0.67
  -2   0   5    0.93    0.67
  -2   0   5    0.29    0.62
  -4   0   5    0.67    0.88
   4   0  -5   -0.79    0.77
  -4   0  -5    0.27    0.36
  -4   0  -5   -0.05    0.30
  -4   0   5   -0.35    0.88
  -6   0  -5    0.37    0.68
   6   0  -5    1.99    1.50
   6   0  -5   -0.86    1.12
  -6   0  -5    1.82    1.15
  -6   0   5   -0.93    1.05
  -6   0   5    2.01    1.25
  -8   0  -5    0.01    0.89
   8   0  -5    3.78    1.88
  -8   0   5    1.90    1.54
  -8   0  -5    1.26    1.21
 -10   0  -5    0.28    1.30
 -10   0   5    0.18    1.52
  10   0  -5    3.68    2.14
   1   1  -5   26.45    1.68
  -1  -1  -5   30.38    1.33
   1   1  -5   26.92    1.84
   1  -1  -5   28.09    1.77
   1  -1  -5   26.63    1.78
  -1   1  -5   28.73    1.13
   3   1  -5   42.41    2.61
  -3   1   5   46.00    2.71
  -3   1   5   42.13    2.64
   3   1  -5   39.92    2.83
  -3  -1   5   46.06    2.63
   3  -1  -5   44.93    2.93
  -3  -1   5   43.37    2.78
   3  -1  -5   39.91    2.63
  -5  -1  -5    5.50    0.90
   5   1  -5    8.86    2.08
  -5   1   5    6.34    1.48
  -5  -1  -5    5.57    0.87
  -5   1   5    6.46    1.76
   5   1  -5    5.81    1.55
  -5   1  -5    6.27    0.90
   5  -1  -5    6.41    1.59
   5  -1  -5    5.35    1.73
  -5   1  -5    5.83    1.03
  -5  -1   5    9.42    1.87
  -5  -1   5    5.15    1.51
  -7  -1  -5   24.76    2.20
   7   1  -5   28.82    3.44
  -7   1   5   25.61    3.21
  -7  -1  -5   24.99    2.11
  -7   1   5   29.40    3.22
  -7   1  -5   21.78    2.26
  -7  -1   5   30.65    3.19
  -7  -1   5   29.75    3.23
  -7   1  -5   29.21    2.22
   7  -1  -5   30.99    3.41
  -9  -1  -5    1.34    1.24
  -9   1   5    0.36    1.45
  -9  -1  -5   -4.42    1.58
  -9   1  -5    1.08    1.25
  -9  -1   5    0.69    1.47
 -11  -1  -5    8.97    2.08
  11   1  -5    5.99    2.70
 -11   1   5    2.98    2.19
 -11   1  -5    4.25    1.90
  11  -1  -5    7.55    2.86
 -11  -1   5    6.36    2.36
   0   2  -5   40.75    1.80
   0   2  -5   38.78    2.10
   0  -2  -5   43.15    2.02
   0  -2  -5   37.38    1.84
   2   2  -5  140.46    5.23
  -2   2   5  129.39    4.55
   2   2  -5  129.23    4.67
   2  -2  -5  132.94    4.89
   2  -2  -5  132.67    5.01
  -2   2  -5  129.67    3.31
  -2  -2   5  132.12    5.00
  -2  -2   5  134.61    4.51
  -4  -2  -5   19.26    1.13
  -4  -2  -5   22.01    1.11
  -4   2   5   21.49    2.14
   4   2  -5   19.63    2.93
  -4   2   5   22.82    2.29
   4   2  -5   20.54    2.10
  -4  -2   5   23.15    2.20
   4  -2  -5   18.20    2.19
  -4   2  -5   20.16    1.14
   4  -2  -5   21.42    3.99
  -4  -2   5   22.90    2.35
  -4   2  -5   22.81    1.39
   6   2  -5   46.64    3.50
  -6  -2  -5   56.06    3.01
  -6   2   5   42.25    3.54
  -6   2   5   47.50    3.68
   6   2  -5   47.75    4.03
  -6  -2  -5   51.18    2.52
  -6   2  -5   50.25    2.56
  -6  -2   5   49.89    3.70
   6  -2  -5   51.45    3.71
  -6   2  -5   49.10    2.87
  -6  -2   5   46.96    3.78
   6  -2  -5   50.39    4.08
   8   2  -5    5.14    2.32
  -8   2   5    4.15    1.84
  -8  -2  -5    7.29    1.72
  -8  -2  -5    8.27    1.76
  -8  -2   5    6.56    2.07
   8  -2  -5    6.61    2.09
  -8   2  -5    5.43    1.64
 -10  -2  -5    7.04    1.85
  10   2  -5   11.09    3.05
 -10   2   5    8.04    2.46
  10  -2  -5    7.48    2.61
 -10  -2   5   13.57    2.87
 -10   2  -5   15.89    2.52
   1   3  -5    0.75    0.75
   1   3  -5    0.70    0.62
  -1  -3  -5    0.52    0.34
   1  -3  -5    0.56    0.62
  -1   3  -5    0.66    0.40
  -1  -3   5    0.01    0.40
   1  -3  -5    1.15    0.70
  -3  -3  -5    0.11    0.23
   3   3  -5    1.10    1.11
  -3   3   5   -0.20    0.74
   3   3  -5   -0.50    0.71
  -3   3  -5   -0.48    0.41
  -3  -3   5    0.38    0.75
   3  -3  -5   -0.07    0.80
   3  -3  -5    0.50    0.90
  -3  -3   5   -0.47    0.78
  -3   3  -5   -0.48    0.32
  -5  -3  -5    1.47    0.62
   5   3  -5    0.79    1.28
  -5   3   5    0.60    1.19
   5   3  -5    0.83    1.12
  -5   3   5    2.62    1.20
  -5  -3  -5    1.76    0.71
  -5  -3   5    0.49    1.06
  -5   3  -5    0.43    0.78
   5  -3  -5    0.05    1.20
   5  -3  -5    2.62    1.50
  -5   3  -5    2.34    0.73
  -5  -3   5    3.87    1.46
   7   3  -5    1.20    1.54
  -7  -3  -5   -0.05    0.88
  -7   3   5    1.10    1.45
  -7   3   5   -0.46    1.38
  -7  -3  -5    0.03    0.79
  -7  -3   5   -2.04    1.48
  -7  -3   5    1.33    1.43
   7  -3  -5    0.18    1.33
  -7   3  -5    2.16    1.06
  -7   3  -5    0.49    0.87
  -9   3   5    2.96    2.84
  -9  -3  -5    0.76    1.23
  -9   3  -5    0.06    1.12
 -11   3   5   -0.04    1.94
 -11  -3  -5    0.08    1.56
  11   3  -5    1.14    2.23
 -11   3  -5    2.53    1.83
 -11  -3   5    0.23    1.84
  11  -3  -5    3.15    2.08
   0   4  -5  139.01    5.13
   0   4  -5  141.19    4.41
   0  -4  -5  137.54    4.51
  -2  -4  -5    3.18    0.54
   2   4  -5    3.62    0.98
   2   4  -5    5.11    1.35
  -2   4   5    3.56    0.89
   2  -4  -5    4.64    1.23
  -2   4  -5    3.71    0.71
   2  -4  -5    3.88    1.17
  -2  -4   5    3.80    0.94
   4   4  -5   91.35    4.25
  -4   4   5   91.92    5.20
  -4  -4  -5   86.13    3.15
  -4   4   5   85.43    4.23
  -4  -4  -5   92.17    3.07
   4   4  -5   92.99    4.94
   4  -4  -5   79.25    4.40
  -4   4  -5   90.18    3.24
  -4  -4   5   91.08    4.66
   4  -4  -5   84.24    4.58
  -4   4  -5   87.31    3.48
  -6  -4  -5   -0.71    0.74
  -6   4   5    2.38    1.33
  -6   4   5   -0.17    1.06
   6   4  -5    2.29    1.57
   6   4  -5    2.36    1.41
  -6  -4  -5    1.84    0.87
  -6  -4   5    2.02    1.55
  -6  -4   5    2.87    1.48
   6  -4  -5    3.81    1.84
  -6   4  -5    1.65    0.87
  -6   4  -5    3.10    1.04
   6  -4  -5   -2.08    1.26
  -8   4   5   20.38    3.14
  -8  -4  -5   22.30    2.93
   8   4  -5   32.01    4.46
   8  -4  -5   22.01    3.44
  -8   4  -5   22.40    2.48
  -8  -4   5   22.83    3.21
 -10   4   5    2.25    1.98
  10   4  -5   -0.37    1.85
 -10  -4  -5   -0.65    1.35
 -10  -4   5    0.78    1.78
  10  -4  -5   -3.10    1.64
 -10   4  -5   -0.21    1.32
   1   5  -5   48.98    2.69
   1   5  -5   42.98    2.96
  -1  -5  -5   46.96    2.14
  -1   5   5   48.42    1.99
   1  -5  -5   49.68    3.67
  -1   5  -5   47.13    2.17
   1  -5  -5   46.43    2.62
  -1  -5   5   47.23    2.08
  -3   5   5   15.33    1.74
  -3  -5  -5   14.52    1.16
   3   5  -5   14.29    1.88
  -3  -5  -5   12.54    1.21
   3   5  -5   12.51    2.17
  -3   5  -5   12.73    1.38
  -3  -5   5   14.29    1.82
   3  -5  -5   12.80    1.95
   3  -5  -5   13.21    2.04
  -5   5   5   42.69    3.20
   5   5  -5   43.78    3.77
  -5   5   5   45.67    3.50
  -5  -5  -5   45.69    2.39
   5   5  -5   37.07    4.52
  -5  -5  -5   45.74    2.52
  -5   5  -5   40.35    2.93
  -5  -5   5   42.93    3.46
   5  -5  -5   45.73    3.61
  -5   5  -5   46.56    2.52
  -5  -5   5   45.99    3.32
  -7   5   5   -0.21    1.28
   7   5  -5   -0.12    1.59
  -7  -5  -5    2.12    1.04
  -7   5   5   -0.27    1.28
  -7  -5  -5   -0.94    0.92
  -7  -5   5   -0.38    1.15
  -7   5  -5    2.04    1.04
   7  -5  -5    0.74    1.42
  -7   5  -5    0.98    1.11
  -9   5   5   14.64    4.44
  -9  -5  -5   17.50    2.42
   9   5  -5   10.59    3.16
  -9  -5   5   16.61    4.04
  -9   5  -5   19.84    2.82
   9  -5  -5   16.82    3.47
 -11  -5  -5   -2.38    1.33
  11   5  -5    2.63    2.48
 -11   5   5   -3.72    1.70
 -11   5  -5   -0.77    1.55
 -11  -5   5   -1.37    1.63
  11  -5  -5   -0.31    2.04
   0   6  -5   38.63    2.20
   0   6  -5   35.16    2.70
   0  -6  -5   43.00    2.34
   0  -6   5   38.93    1.40
   2   6  -5    7.83    1.36
   2   6  -5   11.33    2.04
  -2   6   5    6.13    1.16
  -2  -6  -5    7.69    1.08
  -2   6  -5    7.71    1.19
  -2  -6   5    7.59    1.27
   2  -6  -5    8.02    1.68
   2  -6  -5    5.94    1.38
   4   6  -5   27.28    3.39
  -4  -6  -5   23.97    1.72
  -4   6   5   25.82    2.43
  -4  -6  -5   26.30    1.89
   4   6  -5   20.39    2.22
  -4  -6   5   22.02    2.63
   4  -6  -5   24.07    2.69
   4  -6  -5   20.33    2.74
  -4   6  -5   18.54    1.94
  -4  -6   5   20.93    2.21
  -6  -6  -5    2.43    1.07
  -6  -6  -5    2.04    1.08
   6   6  -5    2.84    1.75
  -6   6   5    3.63    1.64
  -6  -6   5    5.25    1.83
  -6   6  -5    2.96    1.25
  -6  -6   5    2.70    1.56
  -6   6  -5    4.17    1.14
   6  -6  -5    2.88    1.60
  -8   6   5    4.02    1.98
  -8  -6  -5   11.55    2.05
   8   6  -5   10.18    2.72
  -8  -6  -5    7.32    1.62
  -8   6  -5   14.44    2.46
  -8   6  -5    7.12    1.74
  -8  -6   5    8.40    2.26
   8  -6  -5    8.85    2.34
 -10   6   5   -0.73    1.80
  10   6  -5   -0.13    2.02
 -10  -6  -5    0.47    1.42
  10  -6  -5    0.17    1.98
 -10  -6   5    2.07    1.93
 -10   6  -5   -0.75    1.39
   1   7  -5   21.09    1.91
  -1   7   5   22.83    1.52
   1   7  -5   21.37    2.50
  -1  -7  -5   23.29    1.78
  -1  -7   5   23.84    1.67
  -1   7  -5   24.74    2.07
   1  -7  -5   19.48    2.18
   1  -7  -5   23.73    2.08
  -3   7   5   12.89    1.99
  -3  -7  -5   11.92    1.52
   3   7  -5   15.32    1.86
  -3  -7  -5   11.85    1.57
   3   7  -5   13.85    2.86
   3  -7  -5   14.54    2.39
  -3  -7   5   14.67    2.33
  -3  -7   5   12.15    1.73
   3  -7  -5   14.89    3.26
  -3   7  -5   14.29    2.42
   5   7  -5   16.60    2.43
  -5   7   5   16.69    2.32
  -5  -7  -5   20.02    1.85
   5   7  -5   18.46    3.23
  -5  -7  -5   15.32    1.85
   5  -7  -5   17.96    2.69
   5  -7  -5   17.32    2.70
  -5  -7   5   14.45    2.31
  -5   7  -5   17.71    2.08
  -5  -7   5   17.50    2.36
   7   7  -5    4.01    2.19
  -7  -7  -5    0.95    1.28
  -7   7   5    0.41    1.56
  -7  -7  -5    2.23    1.27
  -7   7  -5    1.20    1.83
  -7  -7   5    0.76    1.41
   7  -7  -5    4.42    1.85
  -7   7  -5    3.36    1.54
  -9  -7  -5    5.58    1.81
  -9   7   5    5.44    2.08
   9   7  -5    5.18    2.57
  -9   7  -5    6.91    1.94
  -9  -7   5    5.54    2.03
   9  -7  -5    4.02    2.25
   0   8  -5   17.22    2.48
   0   8   5   16.90    1.20
   0  -8  -5   14.49    1.68
   0   8  -5   16.95    1.76
   0   8   5   18.87    1.20
   0  -8   5   16.81    1.28
   2   8  -5   81.49    3.96
   2   8  -5   89.15    5.04
  -2   8   5   84.51    3.70
  -2  -8  -5   87.71    3.75
  -2   8  -5   86.78    3.87
  -2  -8   5   83.24    3.68
   2  -8  -5   81.32    4.19
   2  -8  -5   74.98    4.37
  -4   8   5   12.10    1.87
   4   8  -5    9.35    2.31
  -4  -8  -5   11.13    1.68
  -4  -8  -5   11.07    1.66
   4   8  -5   10.38    2.58
  -4  -8   5   15.35    2.48
   4  -8  -5   10.97    2.38
  -4  -8   5   13.23    1.99
   4  -8  -5   15.94    2.42
  -4   8  -5   13.65    1.96
  -6  -8  -5   33.32    2.72
  -6  -8  -5   38.08    2.89
   6   8  -5   33.92    4.06
  -6   8   5   38.43    3.38
   6  -8  -5   36.71    3.61
  -6  -8   5   37.52    3.75
  -6   8  -5   38.58    3.21
  -6  -8   5   36.09    3.22
   8   8  -5    3.25    2.34
  -8  -8  -5    3.00    1.63
  -8   8   5    6.44    2.22
  -8  -8  -5    2.67    1.38
   8  -8  -5    3.55    1.97
  -8  -8   5    5.67    2.04
  -8   8  -5    6.45    1.65
 -10   8   5    5.82    2.54
 -10  -8  -5    6.35    2.02
  10   8  -5    7.66    3.22
  10  -8  -5    9.84    2.75
 -10  -8   5    8.46    2.41
 -10   8  -5   11.93    2.36
   1   9  -5    0.95    1.27
  -1  -9  -5    1.67    0.93
   1  -9   5    0.96    0.61
   1  -9   5    1.81    0.55
  -1   9   5    2.26    0.83
   1   9  -5    1.10    0.98
  -1   9  -5    1.97    0.96
   1  -9  -5    0.09    0.93
   1  -9  -5    1.85    1.12
  -1  -9   5    1.42    0.79
  -3  -9  -5    4.33    1.27
   3   9  -5    6.37    1.47
   3   9  -5    4.02    1.88
  -3   9   5    5.53    1.33
   3  -9  -5    5.58    1.61
  -3  -9   5    5.86    1.44
   3  -9  -5    3.73    1.59
  -3   9  -5    6.94    1.55
  -5  -9  -5    1.52    1.10
   5   9  -5    1.56    1.65
  -5   9   5    0.18    1.21
   5   9  -5   -0.10    1.19
  -5  -9  -5   -1.33    0.88
   5  -9  -5    3.44    1.65
  -5  -9   5   -0.95    1.40
  -5  -9   5    0.08    1.23
  -5   9  -5    0.60    1.12
   5  -9  -5    0.38    1.59
   7   9  -5    3.23    2.14
  -7  -9  -5    3.53    1.42
  -7   9  -5    4.80    1.86
   7  -9  -5    0.29    1.49
  -7  -9   5    5.49    1.79
  -9  -9  -5    0.51    1.37
   9   9  -5   -2.47    1.85
  -9  -9   5   -0.49    1.65
   9  -9  -5    1.13    1.91
  -9   9  -5    2.59    1.40
   0  10  -5   20.00    2.87
   0 -10   5   20.28    1.63
   0 -10  -5   18.70    2.13
   0  10   5   24.52    1.99
   0  10  -5   19.32    2.08
   0  10   5   21.52    1.51
  -2 -10  -5   20.74    2.21
   2  10  -5   16.67    2.93
   2  10  -5   20.71    2.52
   2 -10   5   21.33    1.04
   2 -10  -5   17.83    2.58
  -2 -10   5   22.95    2.11
   2 -10  -5   23.55    2.96
  -2  10  -5   21.44    2.26
   4  10  -5   14.22    2.13
  -4 -10  -5   16.64    2.26
  -4  10   5   18.49    2.37
  -4 -10  -5   11.86    1.82
   4  10  -5   13.61    2.97
  -4  10  -5   15.41    2.35
  -4 -10   5    9.81    1.78
   4 -10  -5   14.99    2.49
  -4 -10   5   14.81    2.73
   4 -10  -5   14.39    2.67
   6  10  -5    8.93    2.83
  -6 -10  -5   10.51    2.02
  -6  10   5    8.11    2.18
  -6 -10   5    9.57    2.20
   6 -10  -5   10.18    2.50
  -6 -10   5    8.69    3.28
  -8 -10  -5    1.40    1.50
   8  10  -5    6.01    2.94
  -8 -10   5    1.16    2.52
   8 -10  -5    5.33    2.51
 -10 -10  -5    1.25    1.47
  10  10  -5   -3.85    2.28
  10 -10  -5    5.13    2.45
 -10 -10   5    5.06    2.36
   1 -11   5   20.12    1.51
  -1  11   5   19.29    1.83
   1 -11   5   16.89    1.93
   1  11  -5   13.34    2.71
  -1 -11  -5   23.66    2.36
   1  11  -5   16.98    2.25
  -1  11  -5   16.66    2.25
   1  11   5   15.54    1.27
   1  11   5   18.17    1.15
  -1 -11   5   17.65    1.81
  -3 -11  -5   26.18    2.57
   3  11  -5   26.33    3.73
  -3  11   5   28.07    2.48
   3  11  -5   24.79    2.57
   3 -11  -5   24.41    2.82
  -3  11  -5   30.05    2.78
   3 -11  -5   19.82    4.85
  -3 -11   5   23.93    2.36
  -5 -11  -5    4.63    1.50
   5  11  -5    5.87    2.43
  -5 -11  -5    3.65    1.55
  -5 -11   5    3.54    1.96
   5 -11  -5    2.16    1.47
  -5 -11   5    3.72    1.50
  -5  11  -5    5.32    1.80
  -7 -11  -5   11.91    2.55
   7  11  -5   11.83    3.13
  -7 -11  -5   17.64    2.64
   7 -11  -5   17.51    3.15
  -7 -11   5   12.16    2.46
   9  11  -5    0.42    2.54
  -9 -11  -5    1.95    1.59
  -9 -11   5   -0.14    1.43
   9 -11  -5    0.94    2.10
   0 -12   5    0.75    0.83
   0  12  -5   -1.96    1.03
   0  12   5    0.80    0.73
   0  12   5   -0.23    0.98
   0 -12  -5   -0.35    1.53
   0  12  -5    0.70    1.36
   2  12  -5    8.43    2.59
  -2 -12  -5   15.42    2.28
   2 -12   5   12.01    1.26
  -2  12   5   10.02    1.67
   2 -12   5   12.79    1.54
   2 -12  -5   12.26    2.21
   2 -12  -5   10.48    2.43
  -2  12  -5   14.62    2.38
  -2 -12   5   11.00    1.72
  -4 -12  -5    0.09    1.14
  -4  12   5   -0.41    1.05
   4  12  -5    0.31    1.84
   4 -12  -5    0.20    1.16
  -4  12  -5   -0.01    1.49
  -4 -12   5   -1.36    0.79
  -6 -12  -5    9.48    2.09
   6  12  -5    9.41    2.86
  -6 -12  -5    5.11    1.88
  -6 -12   5    5.77    1.84
   6 -12  -5    3.11    1.90
  -6  12  -5    5.31    2.17
   8  12  -5   -4.63    1.86
  -8 -12  -5    3.28    1.48
  -8 -12   5    0.38    1.62
   8 -12  -5    0.63    1.66
   1 -13   5    6.04    1.17
  -1  13   5    5.72    1.70
   1  13  -5    8.77    2.57
   1 -13   5    6.27    1.60
  -1 -13  -5    7.23    2.00
   1  13  -5    6.93    2.63
   1 -13  -5    4.42    1.63
   1  13   5    6.48    1.08
  -1 -13   5    7.76    1.56
   1  13   5    6.49    1.34
  -1  13  -5    6.83    1.87
  -3 -13  -5    9.40    3.51
   3  13  -5    8.59    2.68
   3 -13   5    6.93    0.99
  -3  13   5    7.67    1.63
   3  13  -5   10.47    2.35
   3 -13   5    5.20    1.05
  -3 -13   5    9.66    1.78
   3 -13  -5    5.39    2.16
  -3  13  -5    6.51    1.90
   3 -13  -5    5.27    1.75
  -5  13   5    3.30    1.75
  -5 -13  -5    4.92    1.75
   5  13  -5    8.15    2.53
  -5  13  -5    4.58    2.01
   5 -13  -5    1.18    1.43
  -5 -13   5    4.62    1.71
  -7 -13  -5    2.15    1.51
  -7 -13   5    1.37    1.72
  -9 -13  -5   -3.45    1.49
   9  13  -5    0.03    2.30
  -9 -13   5   -0.51    1.51
   9 -13  -5    2.49    1.94
   0 -14  -5   75.71    4.60
   0  14   5   73.67    4.49
   0  14  -5   77.64    5.65
   0  14   5   70.91    3.58
   0  14  -5   66.47    4.31
   0 -14   5   69.56    3.50
   2 -14   5    5.79    1.36
  -2  14   5    5.24    1.42
   2  14  -5    3.34    1.51
   2  14  -5   10.05    2.92
  -2 -14  -5    7.21    1.96
   2 -14   5    3.26    0.98
  -2 -14   5    5.89    1.47
   2  14   5    3.83    0.82
   2 -14  -5    1.86    1.86
   2  14   5    3.27    0.87
  -2  14  -5    4.48    1.61
   2 -14  -5    5.84    1.94
  -4 -14  -5   55.25    4.16
   4 -14   5   46.94    2.30
   4  14  -5   46.10    5.10
   4 -14   5   46.32    2.15
  -4 -14   5   41.11    3.30
   4 -14  -5   46.49    4.10
  -4  14  -5   45.73    4.13
   6  14  -5    0.63    2.10
  -6 -14  -5    4.05    1.77
  -6 -14   5    1.13    1.31
   6 -14  -5    1.02    1.52
  -8 -14  -5   11.28    2.44
   8  14  -5   14.68    3.97
  -8 -14   5   16.62    3.09
   8 -14  -5    9.96    2.75
   1  15  -5    3.45    2.17
  -1  15   5    3.12    2.01
  -1 -15  -5    0.83    1.34
   1  15  -5    2.91    2.47
  -1  15   5    2.32    1.15
   1 -15   5    2.02    0.99
  -1  15  -5    1.77    1.59
   1 -15  -5    3.53    1.55
   1  15   5    2.20    0.98
   1  15   5    2.27    1.26
  -1  15  -5    2.68    1.94
  -1 -15   5    2.93    1.24
   3  15  -5    1.13    1.80
  -3  15   5    2.58    1.21
   3 -15   5    0.67    0.76
   3 -15   5    0.70    1.04
  -3 -15  -5    0.51    1.37
   3 -15  -5   -0.04    1.26
   3  15   5    1.10    0.80
   3  15   5   -0.08    0.56
  -3  15  -5   -2.33    1.51
  -3 -15   5    2.73    1.44
   5 -15   5    3.39    0.78
   5 -15   5    4.98    0.87
   5  15  -5    8.77    3.06
  -5 -15  -5    1.47    1.65
  -5 -15   5    2.63    1.52
   5 -15  -5    7.01    2.12
  -7 -15  -5   -2.11    1.39
   7  15  -5    0.10    2.41
  -7 -15   5   -0.91    1.39
   7 -15  -5   -0.91    1.59
   9  15  -5   -2.71    2.63
  -9 -15  -5    3.99    2.31
  -9 -15   5    1.66    1.96
   9 -15  -5    5.73    2.50
   0  16   5   -1.05    0.88
   0 -16  -5    1.32    1.42
   0  16  -5   -1.17    1.60
   0 -16   5   -0.23    1.01
   0  16   5   -0.05    1.38
   2 -16   5   18.76    2.56
   2 -16   5   25.20    2.14
   2  16  -5   24.96    4.30
  -2 -16  -5   27.40    3.49
  -2  16   5   20.40    2.59
   2  16   5   21.39    2.18
   2  16   5   24.24    2.01
   2 -16  -5   26.90    3.25
  -2 -16   5   26.48    2.64
   4 -16   5    1.70    0.89
   4  16  -5   -3.84    1.84
  -4  16   5   -2.34    1.37
   4 -16   5   -0.71    0.98
  -4 -16  -5    2.80    1.78
  -4 -16   5   -0.92    1.10
   4 -16  -5   -0.80    1.24
   6  16  -5   11.46    3.72
  -6 -16  -5    8.32    2.20
   6 -16  -5   11.14    2.82
  -8 -16  -5    0.31    1.58
   8  16  -5    0.44    2.94
   8 -16  -5   -0.95    1.86
  -8 -16   5   -0.86    1.54
  -1  17   5   12.93    2.02
  -1 -17  -5    9.72    2.35
  -1  17   5   11.73    3.02
   1  17  -5    7.49    2.81
   1 -17   5   11.58    1.79
   1  17   5    8.61    2.26
  -1 -17   5    9.46    1.85
   1 -17  -5   10.15    2.30
   1  17   5    8.92    1.72
  -1  17  -5    6.84    2.65
  -3 -17  -5    9.40    2.31
   3  17  -5    2.06    2.37
  -3  17   5    7.78    1.82
   3 -17   5    7.72    1.77
   3 -17   5    6.38    1.34
  -3 -17   5    7.66    1.91
   3 -17  -5    6.07    2.08
   3  17   5    5.87    1.16
   3  17   5    5.55    1.07
   5 -17   5    6.42    1.41
  -5 -17  -5    3.28    1.76
   5 -17   5    5.79    1.34
  -5 -17   5    9.97    2.17
  -7 -17  -5   -0.32    1.52
   7  17  -5   -0.47    3.17
   7 -17  -5   -0.67    1.59
  -7 -17   5    0.96    1.62
   0  18   5    1.24    1.25
   0  18  -5   -0.28    1.92
   0 -18   5    0.33    1.23
   0  18   5   -0.24    1.71
   0 -18  -5   -0.22    1.38
   2 -18   5    7.46    2.32
   2 -18   5    9.17    1.72
  -2 -18  -5   13.12    2.77
   2  18  -5   12.29    3.73
  -2 -18   5   10.08    2.08
   2  18   5   14.99    3.24
   2  18   5   10.02    3.03
   2 -18  -5    8.25    2.24
   4 -18   5    0.47    1.01
  -4 -18  -5   -0.68    1.55
   4 -18   5    1.83    1.72
   4  18  -5    0.64    2.34
   4 -18  -5   -1.17    1.26
  -4 -18   5    0.05    1.30
   4  18   5    0.78    0.88
   4  18   5    1.42    0.80
   6  18  -5    3.51    3.09
   6 -18   5    5.55    1.23
   6 -18   5    3.83    1.45
  -6 -18  -5    9.45    2.56
  -6 -18   5    3.71    1.73
   6 -18  -5    2.59    2.04
   1  19  -5    3.72    2.54
  -1 -19  -5    3.05    1.75
   1 -19   5    8.00    2.67
  -1  19   5    3.87    1.78
   1 -19   5    3.42    1.39
  -1  19   5    2.82    2.32
  -1  19  -5    6.23    2.85
   1  19   5    3.55    1.77
  -1 -19   5    3.41    1.60
   1 -19  -5    5.87    2.14
   1  19   5    3.61    1.48
   3 -19   5    3.96    1.89
   3 -19   5    1.67    1.18
  -3 -19  -5   -0.23    1.56
   3  19  -5   -0.98    2.48
   3  19   5   -1.18    1.26
  -3 -19   5    0.14    1.35
   3 -19  -5    1.64    1.87
   3  19   5    1.75    2.00
   5 -19   5    3.18    1.19
   5  19  -5    4.91    3.16
   5 -19   5    1.77    1.85
  -5 -19  -5    2.00    2.18
  -5 -19   5    0.53    1.44
   5 -19  -5    1.64    1.89
  -7 -19  -5   -0.75    1.62
   7  19  -5    0.40    3.19
  -7 -19   5   -1.56    1.52
   7 -19  -5    1.10    2.16
   0 -20   5    8.60    1.82
   0  20   5    6.80    2.65
   0  20  -5   12.28    3.70
   0  20   5    9.89    2.18
   0 -20  -5    7.05    2.21
   2 -20   5    6.89    2.56
  -2  20   5   10.07    2.56
   2 -20   5    7.70    1.76
   2  20  -5   14.48    5.16
  -2  20   5   12.92    3.38
  -2 -20  -5    5.20    2.22
   2  20   5    6.31    1.86
   2 -20  -5    6.66    2.44
  -2  20  -5   11.16    3.47
   2  20   5   11.85    2.05
  -2 -20   5    4.70    1.77
  -4 -20  -5   10.50    2.80
   4  20  -5    9.18    3.60
   4 -20   5    6.00    1.50
   4 -20   5    3.30    2.15
   4  20   5    2.93    1.24
   4 -20  -5    3.25    2.05
   4  20   5    4.85    1.71
  -4 -20   5    4.22    1.91
   6  20  -5   -0.72    3.37
   6 -20   5    6.48    2.58
  -6 -20  -5    4.04    2.26
   6 -20   5    2.42    1.49
  -6 -20   5    4.74    1.88
   6 -20  -5    2.29    1.97
   1 -21   5   -1.78    2.76
  -1  21   5   -1.50    2.05
  -1  21   5    1.52    2.13
   1  21  -5   -1.36    2.71
   1 -21   5    0.38    1.27
  -1 -21  -5    0.18    1.77
   1  21   5    1.35    1.85
   1  21   5   -0.65    1.71
   1 -21  -5    0.99    2.60
  -1  21  -5   10.13    3.73
  -1 -21   5    2.35    1.46
  -3 -21  -5    2.41    1.92
   3  21  -5    5.15    3.08
   3 -21   5    2.27    2.54
   3 -21   5    0.75    1.24
   3 -21  -5    2.65    2.06
   3  21   5    2.79    1.57
   3  21   5    2.14    1.71
  -3 -21   5    3.19    2.65
   5 -21   5    0.85    1.29
   5  21  -5   -2.36    3.10
  -5 -21  -5    3.82    2.21
   5 -21   5    3.59    2.39
   5 -21  -5    1.35    1.93
  -5 -21   5   -0.11    1.56
   5  21   5    0.09    0.70
   0  22  -5    2.59    2.47
   0  22   5    1.25    2.27
   0 -22  -5    1.15    1.79
   0  22   5    3.64    2.36
   0 -22   5    1.67    1.40
   2 -22   5   -0.57    1.22
  -2  22   5   -2.93    1.98
  -2 -22  -5    1.01    2.39
   2 -22   5    8.27    3.07
   2  22  -5    4.92    2.66
   2 -22  -5   -0.78    1.74
  -2  22  -5   -0.12    2.41
   2  22   5   -1.37    1.66
   2  22   5    0.63    1.91
  -4 -22  -5    0.23    1.97
   4 -22   5    3.80    1.60
   4  22  -5    2.13    3.37
   4 -22   5    1.98    3.56
  -4 -22   5    3.72    2.08
   4 -22  -5    1.17    2.01
   4  22   5    3.10    1.40
   4  22   5    1.91    2.82
  -1  23   5    5.11    2.91
  -1 -23  -5    2.58    2.26
   1  23  -5    3.37    3.66
   1 -23   5    2.23    1.57
   1 -23  -5    2.98    2.06
   1  23   5    0.98    2.16
  -1 -23   5    0.77    1.76
   1  23   5    9.99    3.10
  -1  23  -5    8.23    3.49
   3 -23   5   -0.92    5.38
   3 -23   5    1.26    1.44
  -3 -23  -5    2.07    2.25
   3  23  -5    3.50    2.96
  -3  23   5    0.17    2.70
  -3  23  -5    0.62    2.66
   3  23   5    3.72    1.87
   3  23   5   12.15    2.93
  -3 -23   5    1.28    1.68
   3 -23  -5    2.76    1.91
   0  24  -5    9.15    3.78
   0 -24  -5   -2.04    1.74
   0  24   5    8.69    3.07
   0 -24   5    4.62    1.84
  -2  24   5   -2.06    2.62
   2  24  -5   -3.36    2.65
  -2 -24  -5   -1.30    1.72
   2 -24   5    0.76    1.46
   2  24   5    0.08    2.08
   2 -24  -5    3.17    2.19
  -2 -24   5   -1.13    1.59
  -2  24  -5    2.58    2.75
   1 -25   5    0.49    1.50
  -1  25   5   -1.82    2.86
  -1 -25  -5   -3.87    1.68
   1  25  -5   -1.11    2.73
   1  25   5    0.19    2.26
  -1 -25   5    1.25    1.72
   1 -25  -5   -0.31    1.79
   0   0  -6  125.37    4.24
   0   0  -6  127.51    4.07
   2   0  -6   46.70    2.68
  -2   0   6   46.27    2.40
   2   0  -6   45.99    2.87
   4   0  -6   86.23    4.71
   4   0  -6   79.34    4.11
  -4   0   6   83.70    4.23
  -4   0   6   85.80    4.59
  -4   0  -6   76.81    2.40
  -4   0  -6   75.64    2.25
  -6   0   6   24.65    2.96
   6   0  -6   24.42    3.45
  -6   0   6   23.15    2.77
  -6   0  -6   23.59    1.65
  -8   0  -6   28.01    2.37
  -8   0  -6   20.22    2.45
  -8   0   6   25.95    3.59
   8   0  -6   26.09    3.81
  10   0  -6   10.38    3.11
 -10   0  -6    3.24    1.59
 -10   0   6    3.24    2.05
  -1  -1  -6    0.09    0.39
   1   1  -6    0.11    0.65
  -1  -1  -6   -0.17    0.35
  -1   1  -6   -0.05    0.35
   1  -1  -6   -0.20    0.56
  -1   1  -6    0.77    0.48
   1  -1  -6    1.05    0.91
   3   1  -6    0.33    0.91
  -3   1   6    1.01    0.99
   3   1  -6    0.57    0.99
   3  -1  -6    5.05    1.31
   3  -1  -6    0.37    0.98
  -3  -1   6    0.84    1.00
  -3  -1   6    0.92    0.83
  -5   1   6   -0.12    1.11
   5   1  -6   -0.53    1.17
  -5  -1  -6   -0.63    0.44
  -5   1   6   -0.23    0.98
  -5  -1  -6   -0.39    0.41
   5   1  -6   -1.45    1.17
  -5   1  -6    0.29    0.56
   5  -1  -6   -0.30    1.03
   5  -1  -6    1.53    1.36
  -5   1  -6   -0.34    0.42
  -5  -1   6    2.40    1.15
  -5  -1   6    0.28    1.01
  -7  -1  -6    1.30    0.86
  -7   1   6   -0.23    1.19
  -7   1   6   -2.33    1.31
   7   1  -6   -0.24    1.41
  -7  -1  -6    0.06    0.85
  -7  -1   6    1.04    1.28
  -7   1  -6    1.97    0.89
  -7   1  -6    1.70    0.99
  -7  -1   6    0.12    1.61
   7  -1  -6   -0.76    1.33
  -9   1   6    0.02    1.50
   9   1  -6    1.31    1.92
  -9  -1  -6    0.25    1.13
  -9  -1  -6   -1.02    1.96
   9  -1  -6    2.87    1.84
  -9   1  -6   -0.42    1.16
  -9  -1   6   -0.41    1.51
   0  -2  -6  198.96    5.95
   0   2  -6  199.79    6.23
   0   2  -6  195.70    5.72
   0  -2  -6  190.58    5.88
  -2   2   6   19.07    1.58
   2   2  -6   22.07    1.88
   2   2  -6   20.80    2.09
   2  -2  -6   22.55    2.08
   2  -2  -6   18.62    1.90
  -2  -2   6   22.06    1.63
  -2   2  -6   22.19    0.99
   4   2  -6  121.51    5.22
  -4   2   6  110.92    6.38
   4   2  -6  131.33    5.98
  -4   2   6  111.03    5.04
  -4  -2  -6  120.28    3.22
  -4   2  -6  114.89    3.66
   4  -2  -6  119.03    5.69
  -4  -2   6  122.09    5.46
  -4   2  -6  121.80    3.43
   4  -2  -6  114.49    5.29
  -6   2   6   10.03    1.87
   6   2  -6   10.09    2.44
  -6   2   6    9.09    2.06
  -6  -2  -6    7.74    1.11
  -6   2  -6    8.03    1.34
  -6  -2   6   11.16    2.25
   6  -2  -6    8.64    2.26
  -6  -2   6    9.69    1.99
  -6   2  -6    8.87    1.23
  -8  -2  -6   33.96    2.62
  -8  -2  -6   35.26    2.97
  -8   2   6   31.01    3.66
   8   2  -6   36.34    4.38
  -8   2  -6   32.83    3.10
  -8  -2   6   30.97    3.54
   8  -2  -6   34.77    4.06
  -8   2  -6   33.14    2.68
 -10   2   6    0.40    1.87
 -10  -2  -6    2.58    1.38
  10   2  -6    2.51    2.31
 -10   2  -6    0.78    1.41
 -10  -2   6    0.72    1.76
  10  -2  -6    3.21    2.21
   1   3  -6    1.81    0.77
  -1  -3  -6    1.09    0.52
   1   3  -6    2.72    0.95
  -1   3  -6    2.31    0.60
  -1   3  -6    1.75    0.74
   1  -3  -6    2.12    0.87
   1  -3  -6    1.82    1.04
   3   3  -6    1.79    1.06
  -3   3   6    0.70    0.84
  -3  -3  -6    0.00    0.23
  -3  -3  -6    1.07    0.41
   3   3  -6    0.60    1.16
  -3   3  -6    1.75    0.55
   3  -3  -6    0.15    0.95
  -3  -3   6   -0.33    0.90
   3  -3  -6    0.15    0.93
  -3  -3   6    0.36    0.86
   5   3  -6    0.76    1.35
  -5  -3  -6    2.35    0.67
  -5  -3  -6    2.44    0.68
  -5   3   6    1.99    1.37
  -5   3   6    2.48    1.33
   5   3  -6   -0.55    1.16
   5  -3  -6    1.41    1.31
   5  -3  -6    3.77    1.44
  -5   3  -6    2.45    0.88
  -5  -3   6    2.04    1.27
  -5   3  -6    1.75    0.63
  -5  -3   6    1.64    1.46
  -7   3   6   -0.37    1.71
   7   3  -6    1.37    1.52
  -7  -3  -6    0.51    0.99
  -7  -3  -6    1.68    0.81
  -7   3   6   -0.16    1.30
   7  -3  -6    1.48    1.58
  -7  -3   6    2.02    1.49
  -7   3  -6    0.59    0.82
  -7   3  -6    0.10    1.02
  -7  -3   6   -0.83    1.72
  -9  -3  -6    0.77    1.21
   9   3  -6    2.23    2.10
  -9   3   6    2.29    1.96
   9  -3  -6   -0.35    1.66
  -9  -3   6    1.32    1.85
  -9   3  -6    2.95    1.40
   0  -4  -6    1.35    0.79
   0  -4  -6    0.99    0.64
   0   4  -6    1.24    0.91
   0   4  -6    0.63    0.62
  -2  -4  -6   76.82    2.63
   2   4  -6   78.79    4.17
  -2   4   6   76.23    3.13
   2   4  -6   81.41    3.64
  -2  -4   6   73.13    3.10
   2  -4  -6   79.16    3.92
   2  -4  -6   79.17    3.92
  -2   4  -6   76.73    2.77
  -4  -4  -6    1.01    0.53
  -4  -4  -6    0.27    0.55
   4   4  -6    1.39    1.37
  -4   4   6    1.50    1.06
   4   4  -6   -0.60    0.96
   4  -4  -6   -0.02    1.05
  -4  -4   6    0.94    1.13
  -4  -4   6    0.36    1.29
   4  -4  -6    1.77    1.29
  -4   4  -6   -1.38    0.63
  -6   4   6   32.42    3.30
   6   4  -6   39.32    3.96
  -6  -4  -6   32.69    2.11
  -6  -4  -6   34.33    2.25
  -6   4   6   36.63    3.24
   6  -4  -6   34.34    3.58
  -6   4  -6   36.62    2.69
  -6   4  -6   32.46    2.24
  -6  -4   6   30.94    3.16
  -8  -4  -6   -1.02    1.34
  -8  -4  -6    1.25    0.92
  -8   4   6    0.17    1.59
   8   4  -6    3.91    2.33
   8  -4  -6   -0.64    1.79
  -8  -4   6   -1.41    1.33
 -10   4   6    1.77    2.09
  10   4  -6    3.16    2.58
 -10  -4  -6    6.96    1.74
  10  -4  -6    1.56    2.18
 -10  -4   6    4.04    2.16
 -10   4  -6    2.38    1.63
  -1  -5  -6    1.13    0.64
   1   5  -6    2.03    1.06
   1   5  -6   -0.05    0.68
  -1   5  -6    2.47    0.92
  -1  -5   6    0.46    0.44
  -1   5  -6    1.40    0.68
   1  -5  -6    0.70    0.85
   1  -5  -6    0.96    0.83
  -3   5   6    1.80    0.88
   3   5  -6    0.09    0.93
  -3  -5  -6    1.28    0.59
  -3  -5  -6   -0.47    0.51
   3   5  -6    0.35    1.11
  -3   5  -6    0.54    0.72
  -3  -5   6   -0.60    0.77
  -3  -5   6    0.67    1.08
   3  -5  -6    0.04    1.07
  -5   5   6    0.95    1.04
   5   5  -6    0.33    1.29
  -5  -5  -6    0.66    0.73
  -5  -5  -6    0.48    0.65
   5   5  -6    1.14    1.26
  -5   5  -6   -1.87    0.69
  -5   5  -6   -0.01    0.62
   5  -5  -6    1.78    1.37
  -5  -5   6    0.55    1.07
   5  -5  -6    0.83    1.43
  -5  -5   6   -0.71    1.28
   7   5  -6    1.25    1.79
  -7   5   6   -0.46    1.22
  -7  -5  -6    0.30    0.80
  -7  -5  -6    0.99    1.00
  -7   5  -6    1.20    1.22
  -7  -5   6    0.94    1.41
  -7   5  -6    0.01    0.89
   7  -5  -6    0.95    1.48
  -9   5   6    0.45    1.52
   9   5  -6    0.71    2.21
  -9  -5  -6    0.33    1.11
  -9  -5   6   -0.83    1.51
   9  -5  -6   -0.10    1.81
  -9   5  -6   -0.29    1.30
   0   6  -6   22.89    1.83
   0  -6  -6   26.44    3.06
   0   6  -6   22.02    2.28
   0  -6  -6   22.62    1.87
  -2   6   6  153.49    5.07
   2   6  -6  147.71    5.65
  -2  -6  -6  156.93    5.00
   2   6  -6  157.26    6.61
   2  -6  -6  146.55    5.97
   2  -6  -6  157.71    6.28
  -2   6  -6  153.00    5.13
  -2  -6   6  150.14    5.12
  -4  -6  -6   15.96    1.51
   4   6  -6   13.59    2.55
   4   6  -6   20.07    2.64
  -4   6   6   15.11    2.10
  -4  -6  -6   18.22    1.67
  -4  -6   6   17.38    2.35
  -4  -6   6   16.11    2.53
   4  -6  -6   18.17    2.56
   4  -6  -6   10.41    3.44
  -6  -6  -6   67.04    3.34
   6   6  -6   59.77    4.91
  -6  -6  -6   66.34    3.42
   6  -6  -6   67.36    4.85
  -6  -6   6   61.61    4.21
  -6  -6   6   62.26    4.70
  -6   6  -6   62.12    3.80
  -6   6  -6   68.74    3.53
  -8   6   6    3.06    2.04
  -8  -6  -6    3.56    1.42
  -8  -6  -6    6.54    1.72
  -8   6  -6    2.19    1.80
  -8  -6   6    4.76    1.75
  -8   6  -6    3.38    1.45
  10   6  -6    5.71    3.03
 -10  -6  -6    9.44    1.98
 -10   6   6   11.75    2.79
  10  -6  -6   18.46    3.70
 -10   6  -6   12.31    2.41
 -10  -6   6    7.86    2.41
   1   7  -6    0.31    0.99
   1   7  -6    1.52    0.96
  -1   7   6    0.91    0.45
  -1  -7  -6    1.57    0.81
  -1  -7   6    0.47    0.56
   1  -7  -6    0.24    0.99
  -1   7  -6   -0.83    0.68
   1  -7  -6    1.30    0.92
  -1   7  -6    1.35    0.80
  -3  -7  -6   -0.68    0.71
  -3   7   6   -0.13    0.94
   3   7  -6    1.16    1.05
   3   7  -6    0.10    1.23
  -3   7  -6   -0.82    0.81
  -3  -7   6    0.12    0.87
   3  -7  -6    1.65    1.40
   3  -7  -6    0.54    1.05
   5   7  -6    1.29    1.59
  -5  -7  -6    2.17    0.91
  -5   7   6    0.44    1.01
  -5  -7  -6   -0.66    0.77
  -5  -7   6    0.76    1.16
  -5   7  -6    1.74    1.07
   5  -7  -6    1.32    1.38
  -5  -7   6    0.73    1.60
   7   7  -6   -2.00    1.39
  -7  -7  -6    0.25    0.88
  -7  -7  -6   -0.20    1.17
  -7  -7   6   -1.01    1.11
  -7   7  -6   -0.44    1.26
   7  -7  -6    0.21    1.44
   9   7  -6    0.71    2.32
  -9  -7  -6    0.71    1.32
  -9   7   6    2.57    1.94
  -9  -7   6   -0.96    1.33
  -9   7  -6    0.65    1.51
   9  -7  -6    3.16    2.19
   0   8  -6   23.95    2.55
   0  -8  -6   19.73    2.01
   0   8  -6   21.18    2.03
  -2  -8  -6   88.81    3.95
  -2   8   6   93.04    3.78
   2   8  -6   87.26    4.30
   2   8  -6   89.43    5.51
  -2  -8   6   90.94    3.82
   2  -8  -6   82.96    5.24
  -2   8  -6   91.00    4.10
   2  -8  -6   93.57    4.89
   4   8  -6   17.35    3.13
  -4  -8  -6    9.88    1.55
  -4   8   6   13.82    2.06
  -4  -8  -6   17.55    1.92
   4   8  -6   15.62    2.28
  -4   8  -6   15.57    2.08
  -4  -8   6   12.51    1.91
   4  -8  -6   15.41    2.76
  -4  -8   6   17.48    2.74
   4  -8  -6   13.16    2.37
  -6   8   6   41.43    3.55
  -6  -8  -6   39.12    2.92
  -6  -8  -6   38.90    2.91
   6   8  -6   40.85    4.25
   6  -8  -6   33.08    3.75
  -6  -8   6   38.09    4.17
  -6  -8   6   41.75    3.50
  -6   8  -6   41.62    3.34
  -8  -8  -6    3.30    1.32
   8   8  -6    4.39    2.79
  -8  -8  -6    0.97    2.16
   8  -8  -6    4.35    2.17
  10   8  -6    7.65    3.28
 -10  -8  -6    2.09    1.71
 -10   8  -6   11.00    2.28
  10  -8  -6    4.22    2.44
 -10  -8   6    5.22    2.21
  -1   9   6    0.69    0.52
  -1  -9  -6    1.81    1.01
  -1   9   6    2.38    0.84
   1   9  -6    0.20    1.18
   1   9  -6    3.03    1.22
   1  -9  -6    1.00    1.12
  -1  -9   6    1.21    0.77
   1  -9  -6    2.23    1.08
  -1   9  -6    0.32    1.05
  -1   9  -6    2.58    1.16
  -3   9   6    2.95    1.12
   3   9  -6    3.71    1.78
  -3  -9  -6    2.15    1.07
   3   9  -6    1.06    1.26
  -3  -9   6    2.32    1.17
  -3   9  -6    6.03    1.41
   3  -9  -6    2.72    1.36
   5   9  -6   -1.96    1.31
  -5   9   6    1.52    1.24
  -5  -9  -6    1.03    1.03
  -5  -9  -6    1.15    0.95
   5  -9  -6   -0.67    1.29
  -5   9  -6    1.89    1.31
  -5  -9   6   -3.20    1.65
  -5  -9   6   -0.54    1.05
   7   9  -6    0.10    1.76
  -7  -9  -6    5.07    2.57
  -7  -9  -6    2.31    1.26
  -7  -9   6    3.63    1.61
  -7   9  -6    5.56    1.97
   7  -9  -6    3.31    1.66
  -9  -9  -6    3.77    1.41
   9   9  -6   -0.28    2.18
  -9  -9   6    0.35    1.57
   9  -9  -6   -3.08    1.67
   0 -10   6   45.42    2.03
   0  10  -6   37.64    2.89
   0  10  -6   42.21    3.58
   0 -10  -6   44.04    3.12
   2  10  -6   21.56    2.88
  -2  10   6   18.53    1.85
  -2 -10  -6   14.29    2.02
   2  10  -6   19.79    3.16
   2 -10  -6   17.46    2.50
  -2  10  -6   16.29    2.16
   2 -10  -6   13.29    2.40
  -2 -10   6   16.15    1.87
   4  10  -6   30.51    4.18
  -4 -10  -6   32.11    2.72
  -4  10   6   28.70    2.74
   4 -10  -6   30.86    3.31
  -4 -10   6   27.84    2.70
  -4  10  -6   30.26    2.95
   6  10  -6    6.19    2.24
  -6 -10  -6    6.72    1.80
  -6 -10  -6    8.59    1.90
  -6  10   6   10.81    2.21
  -6 -10   6    7.49    1.89
  -6  10  -6    7.28    2.21
   6 -10  -6    5.77    2.04
  -8 -10  -6    9.45    2.10
   8  10  -6    1.46    2.57
   8 -10  -6    6.46    2.56
  -8 -10   6    8.02    2.17
  -1  11   6    0.92    0.96
  -1  11   6    0.73    0.71
   1  11  -6   -2.04    1.15
   1 -11   6   -0.39    0.36
   1  11  -6    0.46    1.26
  -1 -11  -6    0.25    0.99
   1 -11  -6    0.82    1.26
   1 -11  -6   -1.47    0.89
  -1 -11   6    0.65    0.84
  -1  11  -6    0.97    1.15
  -1  11  -6    0.71    1.15
   3  11  -6   -0.43    1.53
  -3 -11  -6   -1.47    0.95
  -3  11   6    0.67    0.90
   3  11  -6    0.94    1.30
  -3  11  -6    1.40    1.27
   3 -11  -6   -0.33    1.13
   3 -11  -6   -0.40    1.51
  -3 -11   6   -0.76    0.90
  -5 -11  -6   -0.04    1.16
   5  11  -6    2.79    1.89
  -5 -11   6    1.81    1.34
   5 -11  -6   -0.76    1.39
  -7 -11  -6   -2.40    1.11
   7  11  -6    1.23    2.18
  -7 -11   6   -0.89    1.23
  -9 -11  -6   -0.08    1.48
   9  11  -6   -2.40    2.42
   9 -11  -6   -1.13    1.86
  -9 -11   6    2.45    1.81
   0 -12   6  152.84    5.00
   0  12  -6  144.81    6.62
   0  12   6  145.89    4.37
   0  12   6  147.90    4.59
   0 -12  -6  147.81    6.44
   0  12  -6  150.25    7.35
  -2 -12  -6    0.54    1.21
   2  12  -6   -0.86    1.21
   2  12  -6    0.57    1.39
  -2 -12   6    1.07    1.00
  -2  12  -6    1.43    1.34
   2 -12  -6    0.15    1.15
   2 -12  -6   -0.20    1.40
   4  12  -6  100.04    6.77
  -4  12   6   89.22    5.03
  -4 -12  -6   97.30    5.19
   4 -12  -6  105.97    5.92
  -4 -12   6  105.14    5.05
  -6 -12  -6    0.13    1.32
   6  12  -6    2.16    2.02
  -6 -12  -6    3.31    1.77
  -6 -12   6   -0.54    1.17
   6 -12  -6   -1.24    1.35
   8  12  -6   30.01    5.18
  -8 -12  -6   29.18    3.24
  -8 -12   6   32.69    3.68
   8 -12  -6   28.48    4.25
   1  13  -6   -0.49    1.30
   1 -13   6    0.47    0.62
   1 -13   6   -1.31    0.70
  -1 -13  -6   -0.08    1.11
  -1  13   6    0.23    0.82
  -1  13   6    2.15    1.28
   1  13  -6   -0.44    1.28
  -1  13  -6   -1.34    1.27
   1 -13  -6    1.18    1.33
   1 -13  -6   -0.29    1.34
  -1  13  -6    0.49    1.39
  -1 -13   6   -0.28    1.28
  -3 -13  -6    2.20    1.32
   3  13  -6   -2.06    1.43
  -3  13   6   -1.50    0.94
  -3  13  -6    1.78    1.66
   3 -13  -6    2.58    1.53
  -3 -13   6   -0.07    1.01
  -5  13   6   -0.56    1.59
  -5 -13  -6    0.38    1.35
   5  13  -6    3.61    2.13
   5 -13  -6    0.82    1.43
  -5 -13   6   -1.10    1.04
   7  13  -6   -0.70    2.37
  -7 -13  -6   -0.11    1.51
   7 -13  -6    3.01    1.88
  -7 -13   6   -1.00    1.57
   9  13  -6    3.26    3.41
  -9 -13  -6    5.40    1.91
   9 -13  -6   -0.21    1.97
   0  14   6    7.52    1.38
   0  14   6    9.32    1.27
   0 -14  -6    5.29    1.78
   0 -14   6    6.19    1.44
   0  14  -6   10.42    2.70
   0  14  -6   12.38    2.27
  -2 -14  -6    2.42    1.52
  -2  14   6    1.32    1.08
   2  14  -6    5.70    2.15
   2 -14   6    1.20    0.64
   2 -14   6    1.88    0.69
  -2  14  -6    1.29    1.70
   2 -14  -6   -0.30    1.16
  -2 -14   6    0.81    1.02
   4  14  -6    3.30    2.43
  -4  14   6    5.63    2.07
  -4 -14  -6    4.74    1.80
  -4 -14   6    5.64    1.66
   4 -14  -6    2.48    1.78
   6  14  -6   -0.89    2.22
  -6 -14  -6    2.92    1.54
  -6 -14   6    0.59    1.43
   6 -14  -6    1.23    2.08
  -8 -14  -6    3.32    1.76
   8  14  -6    1.73    2.96
   8 -14  -6    0.46    2.02
  -8 -14   6   -1.07    1.51
   1  15  -6    1.28    1.72
   1 -15   6   -0.10    1.13
  -1 -15  -6    0.47    1.55
   1 -15   6    0.37    0.81
  -1  15  -6    2.21    1.68
   1  15   6    1.68    0.70
   1 -15  -6   -0.19    1.08
  -1 -15   6    0.98    1.00
  -3 -15  -6    1.23    1.49
  -3  15   6   -0.40    1.36
   3  15  -6   -0.26    1.87
  -3 -15   6   -0.25    0.94
   3 -15  -6    0.84    1.32
   5  15  -6   -1.22    1.90
  -5 -15  -6    1.24    1.56
   5 -15  -6    0.78    1.62
  -5 -15   6   -0.34    1.28
  -7 -15  -6    0.79    1.57
   7  15  -6   -1.15    2.33
   7 -15  -6    0.34    1.69
  -7 -15   6    1.99    1.63
   0  16   6    4.12    1.09
   0 -16   6    4.90    1.29
   0  16  -6    2.67    1.90
   0 -16  -6    3.30    1.61
   0  16   6    3.93    1.32
   2 -16   6   32.44    2.40
  -2 -16  -6   33.99    3.76
   2 -16   6   33.80    2.16
  -2  16   6   35.54    2.99
   2  16  -6   32.55    4.71
  -2 -16   6   33.37    2.93
   2 -16  -6   35.39    3.67
  -4 -16  -6    0.97    1.69
   4  16  -6    0.76    2.39
  -4  16   6    4.08    1.91
   4 -16  -6    4.49    1.98
  -4 -16   6    4.45    1.73
   6  16  -6   21.99    4.74
  -6 -16  -6   17.94    2.90
   6 -16  -6   12.48    3.03
  -6 -16   6    9.10    2.18
   8  16  -6   -0.35    2.91
  -8 -16  -6    2.63    2.26
  -8 -16   6    2.23    1.80
   8 -16  -6   -1.45    1.81
   1 -17   6    0.03    0.93
  -1 -17  -6    2.07    1.69
   1  17  -6    0.08    1.75
  -1  17   6   -0.90    1.13
  -1  17   6    1.27    1.71
   1 -17   6   -2.40    1.45
   1 -17  -6    0.08    1.45
  -1  17  -6    2.71    1.90
  -1 -17   6    1.10    1.18
   1  17   6    0.01    0.85
   3 -17   6    0.33    0.74
   3  17  -6   -0.89    2.03
   3 -17   6    0.59    0.89
  -3 -17  -6   -0.02    1.48
  -3 -17   6   -0.88    1.14
   3 -17  -6    0.08    1.62
   5  17  -6    2.55    2.49
  -5 -17   6   -1.98    1.20
   5 -17  -6   -1.84    1.36
  -7 -17  -6    0.11    1.71
   7  17  -6   -2.93    2.74
   7 -17  -6    0.10    2.05
  -7 -17   6   -0.70    1.52
   0  18   6    0.97    1.51
   0  18   6    3.40    1.46
   0  18  -6    0.94    1.78
   0 -18  -6    0.01    1.62
   0 -18   6    0.22    1.02
  -2 -18  -6   50.74    4.54
   2  18  -6   43.28    5.93
  -2  18   6   46.03    3.78
  -2  18   6   53.07    4.93
   2 -18   6   47.14    2.99
   2 -18   6   31.25    3.64
  -2  18  -6   50.66    5.20
   2 -18  -6   42.73    4.25
  -2 -18   6   46.81    3.47
  -4 -18  -6    1.07    1.53
   4  18  -6   -3.26    1.85
   4 -18   6   -0.78    0.56
   4 -18  -6   -0.50    1.69
  -4 -18   6    0.80    1.40
   6  18  -6   15.65    4.70
  -6 -18  -6   20.17    3.40
   6 -18  -6   19.16    3.38
  -6 -18   6   15.84    2.87
   1 -19   6   -1.83    1.89
  -1 -19  -6    0.21    1.70
   1  19  -6    1.25    2.14
  -1  19   6   -3.35    1.39
   1 -19   6   -1.63    1.08
  -1  19   6    1.39    1.92
   1  19   6    2.19    1.37
  -1  19  -6   -2.07    1.81
   1 -19  -6   -0.27    1.66
  -1 -19   6   -0.71    1.13
  -3 -19  -6    1.28    1.71
   3  19  -6    1.64    2.43
  -3  19   6    1.88    2.16
   3 -19   6    0.13    1.91
   3 -19   6    2.43    1.84
   3 -19  -6   -0.02    1.66
  -3 -19   6    0.64    1.34
  -5 -19  -6    1.65    1.58
   5  19  -6   -1.31    2.36
   5 -19  -6   -3.19    1.51
  -5 -19   6    0.13    1.48
   0 -20   6   -0.16    1.23
   0  20   6    1.37    1.58
   0  20   6   -1.21    1.49
   0  20  -6    2.61    2.27
   0 -20  -6    0.25    1.79
  -2  20   6   -1.44    1.99
  -2 -20  -6   -0.89    1.71
  -2  20   6   -0.47    2.10
   2  20  -6    0.25    2.04
   2 -20   6   -1.71    1.76
   2 -20   6   -0.95    1.14
  -2 -20   6   -0.18    1.32
  -2  20  -6    0.58    2.05
   2 -20  -6    0.90    2.13
   2  20   6    0.72    1.01
   2  20   6   -0.82    0.90
   4 -20   6    0.86    1.12
   4 -20   6    1.96    1.20
   4  20  -6    1.05    2.66
  -4 -20  -6    3.73    2.22
   4 -20  -6    1.59    1.97
  -4 -20   6   -2.57    1.32
   1 -21   6   -0.64    2.54
  -1  21   6    3.20    2.12
   1 -21   6    0.65    1.21
  -1  21   6   -0.85    2.85
   1  21  -6    0.02    2.21
  -1 -21   6   -0.03    1.30
   1 -21  -6    1.94    1.84
   1  21   6    0.33    1.44
  -1  21  -6    3.84    2.57
   1  21   6   -0.52    1.76
   3  21  -6   -0.65    2.20
   3 -21   6   -5.30    2.17
   3 -21   6   -0.49    1.18
  -3  21   6    0.68    2.36
  -3  21  -6    3.94    2.69
  -3 -21   6   -1.78    1.28
   3 -21  -6    2.22    2.05
  -5 -21  -6    1.49    2.35
   5  21  -6    1.43    2.98
  -5 -21   6    0.17    1.75
   5 -21  -6    3.77    2.27
   0  22   6   18.15    3.02
   0 -22   6   18.89    2.64
   0  22   6   18.07    3.10
   0 -22  -6   21.87    3.75
   0  22  -6   23.46    4.56
  -2  22   6   -0.49    2.18
   2 -22   6   -3.82    2.93
   2  22  -6    0.50    2.38
  -2 -22  -6    0.42    1.94
   2 -22   6    1.81    1.33
  -2  22  -6    2.04    2.72
  -2 -22   6   -2.16    1.50
   2 -22  -6    0.39    1.82
   2  22   6   -3.25    2.21
   2  22   6    0.82    2.14
   4 -22   6   16.06    1.97
  -4 -22  -6   20.65    3.64
   4  22  -6   21.52    4.91
  -4 -22   6    8.45    2.12
   4 -22  -6   11.05    3.00
  -1  23   6    1.77    2.25
  -1 -23  -6    0.50    2.35
   1  23  -6    3.63    3.00
   1 -23   6   -0.87    1.36
  -1  23  -6    1.04    2.85
  -1 -23   6   -1.20    1.62
   1  23   6    2.80    1.76
   1 -23  -6   -1.51    1.88
  -3 -23  -6    3.54    2.51
  -3  23   6   -0.47    2.67
   3  23  -6    1.67    2.91
   3 -23   6    2.19    1.51
  -3 -23   6    0.88    1.72
   3 -23  -6    2.60    2.06
  -3  23  -6   -0.55    2.72
   0  24   6    1.88    2.36
   0  24  -6    2.51    2.98
   0 -24   6    5.29    2.27
   0 -24  -6    5.76    2.51
   0   0  -7    0.28    0.62
   0   0  -7    0.24    0.62
  -2   0  -7   -0.14    0.33
   2   0  -7    1.80    1.07
   2   0  -7   -0.51    0.81
  -2   0  -7    0.62    0.40
   4   0  -7    0.06    1.08
   4   0  -7    0.27    1.13
  -4   0   7    0.28    1.18
  -6   0   7    0.49    1.28
   6   0  -7    2.62    1.78
  -6   0   7   -3.27    1.33
  -6   0  -7    1.65    0.63
  -6   0  -7    1.90    0.76
  -8   0  -7    0.49    0.94
  -8   0  -7    1.83    1.32
   8   0  -7    1.51    1.70
  -8   0   7   -0.06    1.43
 -10   0   7    2.20    2.24
  10   0  -7    2.46    2.41
   1   1  -7    2.53    0.94
  -1  -1  -7    4.14    0.78
   1   1  -7    3.09    1.01
  -1  -1  -7    3.22    0.68
   1  -1  -7    4.09    1.10
  -1   1  -7    4.38    0.74
   1  -1  -7    3.18    1.02
  -1   1  -7    3.26    0.77
   3   1  -7    6.85    1.67
  -3   1   7    5.96    1.24
   3   1  -7    7.96    1.63
  -3  -1   7    7.62    1.33
   3  -1  -7    6.12    1.50
   3  -1  -7    5.82    1.40
  -5   1   7   -0.07    1.07
  -5  -1  -7   -0.37    0.39
  -5   1   7   -0.99    1.18
   5   1  -7   -0.20    1.30
  -5  -1  -7    0.53    0.40
   5  -1  -7    0.74    1.36
  -5  -1   7   -1.81    1.07
  -5   1  -7    0.30    0.59
  -5  -1   7    0.07    1.08
  -5   1  -7    0.11    0.43
  -7   1   7    4.15    2.67
  -7  -1  -7    5.76    1.09
  -7   1   7    6.03    1.92
   7   1  -7    3.87    2.07
  -7  -1  -7    4.90    1.14
  -7   1  -7    4.19    1.15
   7  -1  -7    2.37    1.55
  -7  -1   7    0.99    2.48
  -7   1  -7    5.04    1.01
  -7  -1   7    3.93    1.71
  -9   1   7   -1.36    1.64
  -9  -1  -7    0.59    1.10
   9   1  -7    2.19    2.28
  -9  -1  -7   -1.67    2.18
  -9   1  -7    2.42    1.14
  -9  -1   7   -1.08    1.44
   9  -1  -7    2.20    2.12
   0  -2  -7   28.70    1.95
   0   2  -7   29.35    2.12
   0  -2  -7   26.02    1.91
  -2  -2  -7   70.03    2.26
   2   2  -7   65.98    3.76
   2   2  -7   63.84    3.38
   2  -2  -7   60.73    3.43
  -2   2  -7   68.00    2.30
   2  -2  -7   73.25    3.83
   4   2  -7   20.39    2.89
   4   2  -7   18.22    2.39
  -4  -2   7   21.60    2.95
  -4   2  -7   18.23    1.08
   4  -2  -7   17.01    2.59
  -4   2  -7   16.86    1.17
   4  -2  -7   15.01    2.33
   6   2  -7   31.66    3.66
  -6   2   7   31.86    3.22
  -6  -2  -7   32.42    1.74
  -6  -2  -7   32.78    2.01
  -6   2   7   19.60    2.89
   6  -2  -7   28.68    3.87
  -6  -2   7   26.26    3.02
  -6   2  -7   32.71    1.93
  -6   2  -7   32.38    3.45
  -6  -2   7   28.07    3.23
  -8  -2  -7    5.26    1.30
  -8  -2  -7    7.05    1.58
  -8   2   7    7.48    2.26
   8   2  -7    7.33    2.33
  -8   2  -7    5.04    1.66
   8  -2  -7    5.70    2.26
  -8  -2   7    9.03    2.27
  -8   2  -7    8.47    1.64
 -10  -2  -7    5.28    1.74
  10   2  -7   10.58    3.02
 -10   2   7    3.65    2.30
  10  -2  -7    4.74    2.69
 -10   2  -7    7.03    1.92
 -10  -2   7    7.42    2.57
   1   3  -7   -1.33    0.64
   1   3  -7    0.85    0.90
  -1  -3  -7   -0.91    0.44
  -1  -3  -7    0.58    0.62
   1  -3  -7    0.88    0.86
   1  -3  -7   -0.17    0.74
  -1   3  -7    0.70    0.52
  -1   3  -7   -0.51    0.57
  -3   3   7    2.35    0.90
   3   3  -7    3.77    1.36
   3   3  -7    2.40    1.13
   3  -3  -7    1.66    1.27
  -3  -3   7    1.05    0.85
   3  -3  -7    0.16    1.06
  -3   3  -7    2.17    0.61
  -5   3   7   -0.57    1.16
   5   3  -7    4.54    1.82
  -5  -3  -7    2.64    0.65
  -5  -3  -7    3.44    0.74
   5  -3  -7    5.45    1.82
  -5   3  -7    5.08    0.99
  -5   3  -7    4.32    0.80
  -5  -3   7    1.67    1.34
  -5  -3   7    0.14    1.40
  -7  -3  -7    5.22    1.04
  -7  -3  -7    4.88    1.22
  -7   3   7    3.78    1.72
   7   3  -7    5.13    2.04
   7  -3  -7    7.00    2.29
  -7   3  -7    2.57    1.02
  -7   3  -7    5.58    1.37
  -7  -3   7    3.29    1.75
  -9  -3  -7    5.35    1.39
   9   3  -7    3.70    2.39
  -9   3   7   -0.86    1.66
  -9  -3   7    4.81    2.18
  -9   3  -7    0.26    1.30
   9  -3  -7    3.66    2.35
   0  -4  -7   74.23    3.36
   0   4  -7   74.40    3.18
   0   4  -7   72.34    3.66
   0  -4  -7   71.50    3.55
   2   4  -7   10.65    1.62
  -2  -4  -7   10.53    1.06
   2   4  -7   10.85    2.05
   2  -4  -7   11.10    1.80
  -2   4  -7   12.20    1.18
   2  -4  -7   10.97    1.84
  -4  -4  -7   48.87    2.06
   4   4  -7   47.91    3.84
  -4  -4  -7   47.45    2.08
  -4   4   7   44.88    3.68
   4   4  -7   49.32    3.34
   4  -4  -7   55.20    3.84
  -4  -4   7   48.89    3.18
  -4   4  -7   49.88    2.46
   4  -4  -7   51.42    3.88
  -4  -4   7   48.32    3.63
  -6  -4  -7    6.00    1.20
  -6   4   7    5.59    1.62
   6   4  -7   -0.24    1.53
  -6  -4  -7    4.86    0.98
  -6   4  -7    6.39    1.37
  -6  -4   7    3.84    1.51
   6  -4  -7    5.92    2.08
  -6   4  -7    3.49    0.98
  -8   4   7   13.92    2.90
  -8  -4  -7   18.05    1.99
   8   4  -7   13.34    3.20
  -8  -4  -7   14.51    2.12
  -8  -4   7   11.20    2.56
   8  -4  -7   13.44    2.95
  -8   4  -7   15.75    2.44
  -1  -5  -7    5.92    1.07
   1   5  -7    7.51    1.44
   1   5  -7    6.49    1.60
  -1   5  -7    8.47    1.36
   1  -5  -7    5.12    1.28
   1  -5  -7    3.99    1.29
  -1   5  -7    7.50    1.39
   3   5  -7    2.07    1.89
  -3   5   7    1.88    0.95
   3   5  -7    4.48    1.61
  -3  -5  -7    2.62    0.73
  -3   5  -7    3.63    0.90
  -3  -5   7    3.95    1.13
   3  -5  -7    2.21    1.41
   3  -5  -7    3.49    1.42
  -5  -5  -7    3.75    0.96
  -5  -5  -7    3.74    0.94
  -5   5   7    5.50    1.57
   5   5  -7    5.54    2.03
   5  -5  -7    6.58    2.02
  -5  -5   7    3.69    1.80
  -5   5  -7    4.22    1.20
  -5  -5   7    3.18    1.40
   7   5  -7    0.55    1.64
  -7  -5  -7    2.69    1.21
  -7  -5  -7    1.14    0.90
  -7   5  -7    2.24    1.39
   7  -5  -7   -2.46    1.23
  -7   5  -7   -0.18    1.00
  -7  -5   7    0.66    1.51
  -9   5   7    3.80    2.22
  -9  -5  -7    3.11    1.28
   9   5  -7    0.78    2.07
  -9  -5   7   -1.27    1.86
  -9   5  -7    4.33    1.53
   9  -5  -7    1.83    2.00
   0   6  -7   16.14    1.76
   0   6  -7   14.37    2.06
   0  -6  -7   17.36    1.79
   0  -6  -7   15.15    1.94
   2   6  -7    2.46    1.45
   2   6  -7    3.46    1.21
  -2  -6  -7    1.63    0.79
  -2  -6   7    2.33    0.74
   2  -6  -7    2.68    1.36
  -2   6  -7    2.67    0.96
   2  -6  -7    4.41    1.48
   4   6  -7   11.53    2.31
  -4   6   7   12.17    1.97
   4   6  -7   11.06    2.51
  -4  -6  -7    9.01    1.28
  -4   6  -7    8.50    1.42
  -4  -6   7    8.90    1.76
   4  -6  -7    9.43    2.18
   4  -6  -7   12.69    2.38
   6   6  -7    2.22    1.67
  -6  -6  -7    0.36    0.96
  -6  -6  -7    1.44    0.89
  -6  -6   7   -1.43    1.86
   6  -6  -7    1.87    1.52
  -6   6  -7    2.32    1.33
  -6  -6   7    1.33    1.40
  -8  -6  -7    2.44    1.81
   8   6  -7    0.78    2.14
   8  -6  -7   -0.49    1.74
  -8   6  -7    1.89    1.27
  -8   6  -7    9.80    2.22
   1   7  -7    3.67    1.25
   1   7  -7    7.12    1.88
  -1  -7  -7    5.69    1.25
  -1   7  -7    5.73    1.47
  -1   7  -7    6.64    1.33
   1  -7  -7    7.14    1.57
   1  -7  -7    6.83    1.50
   3   7  -7   -1.00    0.89
  -3  -7  -7   -0.30    0.68
   3   7  -7    0.32    1.27
  -3   7   7    0.14    0.85
   3  -7  -7    1.82    1.25
  -3  -7   7    1.63    1.04
   3  -7  -7    0.81    1.39
  -3   7  -7    1.32    0.95
  -5  -7  -7    7.84    1.41
   5   7  -7    4.01    2.01
  -5   7   7    9.13    1.91
  -5  -7  -7    6.51    1.29
  -5  -7   7    8.90    2.35
  -5   7  -7    5.10    1.38
   5  -7  -7    6.82    1.91
  -5  -7   7    6.82    1.70
  -7  -7  -7    0.41    0.95
  -7  -7   7   -1.05    1.37
   7  -7  -7   -0.65    1.60
   9   7  -7    1.91    2.34
  -9  -7  -7    4.65    1.57
  -9  -7   7    5.60    2.40
   9  -7  -7    0.17    2.13
   0   8  -7   21.40    2.11
   0   8  -7   23.92    2.65
   0  -8  -7   20.11    2.20
   0  -8  -7   22.22    2.20
  -2   8   7   52.18    2.29
  -2  -8  -7   52.96    2.99
   2   8  -7   49.82    3.95
  -2   8  -7   49.28    3.02
  -2  -8   7   53.27    2.64
   2  -8  -7   54.71    3.68
   2  -8  -7   40.28    3.48
   4   8  -7    9.62    2.44
  -4  -8  -7   15.30    1.90
  -4   8   7   14.62    2.08
  -4   8  -7   12.56    1.99
  -4  -8   7   12.54    1.98
   4  -8  -7   13.72    2.56
  -6  -8  -7   24.11    2.36
  -6  -8  -7   22.52    2.54
  -6   8   7   19.20    2.71
   6   8  -7   24.27    3.89
   6  -8  -7   27.69    3.86
  -6  -8   7   28.23    3.05
  -6  -8   7   15.94    3.08
  -6   8  -7   25.46    2.96
  -8  -8  -7    4.19    1.55
   8   8  -7    3.40    2.72
  -8  -8   7    3.64    1.90
   8  -8  -7    7.22    2.50
   1   9  -7   -1.66    0.94
   1   9  -7    0.46    1.31
  -1  -9  -7    0.27    0.91
  -1   9  -7   -0.32    0.90
   1  -9  -7   -0.76    1.11
  -1   9  -7    2.03    1.10
  -1  -9   7   -0.10    0.48
  -3  -9  -7   -0.09    0.89
  -3   9   7    0.28    1.02
   3   9  -7    3.52    1.67
   3   9  -7    1.90    1.56
   3  -9  -7    1.41    1.32
  -3  -9   7    1.46    1.01
   3  -9  -7   -1.62    1.45
  -3   9  -7    2.98    1.37
  -5   9   7    0.89    1.39
   5   9  -7   -0.38    1.52
  -5  -9  -7    0.35    1.02
   5  -9  -7   -0.87    1.26
  -5  -9   7    0.62    1.21
  -5   9  -7    1.76    1.44
  -7  -9  -7    3.29    1.86
   7   9  -7    4.96    2.27
  -7  -9   7    1.86    1.61
   7  -9  -7    1.47    1.75
  -7   9  -7   -1.68    2.02
  -9  -9  -7   -2.26    1.16
   9   9  -7    4.00    2.78
   9  -9  -7    2.01    2.25
  -9  -9   7    1.04    1.72
   0 -10  -7   22.03    2.47
   0  10  -7   21.81    2.63
   0  10  -7   23.94    3.16
   0 -10  -7   16.90    2.29
  -2 -10  -7   12.20    1.97
   2  10  -7   14.76    2.14
   2  10  -7   15.64    2.82
  -2  10   7   12.79    1.45
  -2  10  -7   12.28    2.00
   2 -10  -7   15.57    2.51
  -2 -10   7   11.53    1.55
   2 -10  -7   12.04    2.10
  -4  10   7   14.16    2.16
   4  10  -7   12.21    2.86
  -4 -10  -7   15.43    2.15
   4 -10  -7   17.15    2.82
  -4  10  -7   16.46    2.36
  -4 -10   7   13.40    2.08
   6  10  -7    5.61    2.47
  -6 -10  -7    7.07    1.65
  -6 -10  -7    8.14    2.04
  -6  10   7    0.19    2.02
  -6 -10   7    4.79    1.80
   6 -10  -7    3.64    2.07
  -6  10  -7   12.01    2.43
   8  10  -7    2.52    2.59
  -8 -10  -7    2.55    1.49
  -8 -10   7    4.82    1.95
   8 -10  -7    1.37    1.90
  -1 -11  -7    3.23    1.34
   1  11  -7    7.33    1.83
   1  11  -7    2.13    1.83
  -1  11  -7    2.83    1.45
  -1  11  -7    4.32    1.45
   1 -11  -7    4.64    1.61
   1 -11  -7    6.14    1.88
  -1 -11   7    2.90    0.83
   3  11  -7    3.21    1.68
  -3 -11  -7    5.35    1.63
  -3  11   7    6.20    2.14
   3 -11  -7    5.73    1.71
  -3  11  -7    7.47    1.94
  -3 -11   7    4.75    1.40
   5  11  -7   -0.95    1.65
  -5  11   7   -2.02    1.56
  -5 -11  -7   -2.01    1.06
  -5 -11   7   -0.28    1.18
  -5  11  -7    0.03    1.77
   5 -11  -7    0.85    1.54
  -7 -11  -7    5.32    1.59
   7 -11  -7    4.64    2.17
   0 -12   7   -0.16    0.40
   0  12  -7    0.12    1.31
   0  12  -7    0.59    1.31
   0 -12  -7   -0.08    1.12
  -2  12   7    7.69    1.34
  -2 -12  -7    6.00    2.74
   2  12  -7    3.37    1.78
  -2  12  -7    7.41    2.81
  -2  12  -7    8.00    2.02
  -2 -12   7    7.97    2.11
   2 -12  -7    6.33    1.83
  -4  12   7    2.33    1.53
   4  12  -7    0.86    1.81
  -4 -12  -7   -0.04    1.68
   4 -12  -7    0.01    1.42
  -4 -12   7    0.37    1.13
  -4  12  -7   -4.11    1.61
  -6 -12  -7    2.99    1.49
   6  12  -7    5.56    2.59
  -6 -12   7    3.78    1.65
   6 -12  -7    5.28    2.94
   8  12  -7    3.40    2.98
  -8 -12  -7   -0.65    1.30
  -8 -12   7    1.55    1.64
   8 -12  -7   -0.30    1.74
   1  13  -7    1.42    1.51
  -1 -13  -7   -1.77    1.06
  -1  13   7    1.44    0.87
  -1  13   7    0.82    0.68
   1 -13  -7    1.58    1.32
  -1  13  -7    0.52    1.40
  -1 -13   7    0.05    0.78
  -1  13  -7    1.38    1.55
  -3 -13  -7    0.65    1.47
  -3  13   7    2.65    1.37
   3  13  -7   -0.06    1.49
   3 -13  -7    1.86    1.41
  -3  13  -7    6.38    1.80
  -3 -13   7    2.85    1.30
   5  13  -7    2.61    2.40
  -5 -13  -7    2.59    1.54
  -5  13   7    0.58    1.83
  -5 -13   7    0.12    1.14
   5 -13  -7    0.34    1.47
   7  13  -7    1.83    2.29
  -7 -13  -7    1.87    1.54
   7 -13  -7    0.63    1.89
  -7 -13   7    2.22    1.63
   0 -14  -7   36.34    3.54
   0 -14   7   32.32    2.22
   0  14  -7   43.50    4.16
   0 -14   7   34.34    1.99
  -2 -14  -7    5.77    1.88
  -2  14   7    8.25    2.59
   2  14  -7    5.73    2.12
  -2  14   7    5.92    1.66
  -2 -14   7    9.84    1.78
   2 -14  -7    7.63    2.14
  -2  14  -7    9.16    2.29
  -4 -14  -7   30.05    3.29
   4  14  -7   21.15    4.16
  -4  14   7   21.54    2.85
  -4 -14   7   24.91    2.84
   4 -14  -7   24.27    3.46
   6  14  -7    2.02    2.40
  -6 -14  -7    2.60    1.71
   6 -14  -7    1.81    2.01
  -6 -14   7    3.58    1.68
  -1 -15  -7   -1.74    1.15
  -1  15   7   -0.21    0.81
   1  15  -7    0.46    1.74
   1 -15   7    0.33    0.41
  -1  15   7    0.39    0.88
   1 -15  -7    0.89    1.38
  -1 -15   7   -2.16    0.79
  -1  15  -7   -3.19    1.27
  -3  15   7    0.73    1.51
  -3 -15  -7    0.02    1.26
   3  15  -7    0.47    1.59
  -3 -15   7   -1.55    1.09
   3 -15  -7   -0.14    1.52
   5  15  -7    1.46    2.25
  -5 -15  -7    1.17    1.53
  -5 -15   7    1.05    1.42
   5 -15  -7    2.68    1.86
  -7 -15  -7    1.64    1.61
   7  15  -7   -3.59    2.05
  -7 -15   7   -0.13    1.44
   7 -15  -7   -1.87    1.68
   0  16  -7   -0.83    1.63
   0 -16  -7    2.21    1.60
   0 -16   7    3.12    1.25
   0 -16   7    0.14    1.04
   2  16  -7   17.40    3.37
  -2  16   7   12.90    2.36
  -2 -16  -7   20.07    3.12
  -2  16   7   15.97    2.22
   2 -16  -7   14.58    2.73
  -2 -16   7   11.90    2.03
  -2  16  -7   18.40    3.17
  -4 -16  -7    1.91    1.74
   4  16  -7    1.94    2.71
  -4 -16   7   -0.59    1.28
   6  16  -7    7.31    3.23
  -6 -16  -7   10.11    2.29
  -6 -16   7    6.81    2.15
   6 -16  -7    6.38    2.51
  -1 -17  -7    3.13    1.83
  -1  17   7    0.25    1.15
  -1  17   7    1.02    1.62
   1 -17   7    1.02    0.83
   1  17  -7    0.07    1.74
   1 -17   7   -0.24    0.95
  -1 -17   7    3.60    1.29
  -1  17  -7    2.52    2.06
   1 -17  -7    0.89    1.51
  -3 -17  -7   -1.72    1.41
  -3  17   7   -0.45    1.74
  -3 -17   7    2.31    1.46
   3 -17  -7    0.07    1.47
   5  17  -7    5.21    2.78
  -5 -17  -7    2.55    1.87
  -5 -17   7    2.35    2.75
   5 -17  -7    4.10    1.81
   0  18   7    0.21    0.77
   0 -18   7    1.64    1.10
   0 -18   7    0.37    1.87
   0  18  -7    0.25    1.95
   0 -18  -7    1.31    1.66
  -2  18   7    3.29    1.96
  -2  18   7    4.04    1.81
  -2 -18  -7    5.94    2.22
  -2  18  -7   -0.11    2.00
  -2 -18   7    3.25    1.43
   2 -18  -7    4.39    2.02
  -4 -18  -7    0.96    1.56
  -4  18   7   -0.22    2.81
   4  18  -7   -2.47    2.22
   4 -18  -7   -0.34    1.57
  -4 -18   7    1.18    1.51
   6  18  -7    0.95    2.59
  -6 -18  -7    1.57    1.80
   6 -18  -7    4.25    2.12
  -6 -18   7    3.97    2.08
   1 -19   7   -2.38    1.22
  -1 -19  -7    2.64    1.98
  -1  19   7   -1.33    2.66
   1  19  -7    0.85    2.82
  -1  19   7    1.39    1.42
   1 -19   7   -1.86    1.89
  -1  19  -7    1.92    2.31
  -1 -19   7    1.01    1.30
   1 -19  -7   -0.58    1.76
  -3 -19  -7    4.29    2.00
  -3  19   7    0.88    2.11
   3 -19  -7   -0.65    1.64
  -3 -19   7   -0.28    1.23
  -3  19  -7   -1.57    2.04
  -5 -19  -7    3.98    1.96
   5  19  -7   -0.48    2.42
   5 -19  -7   -1.62    1.90
  -5 -19   7   -2.20    1.45
   0  20   7    5.88    1.34
   0 -20   7    8.58    1.67
   0  20  -7   10.11    3.39
   0  20   7    9.75    1.76
   0 -20   7    9.31    2.87
  -2  20   7    0.59    2.06
  -2 -20  -7    5.29    2.27
  -2  20   7    5.63    2.56
   2  20  -7    7.45    2.77
   2 -20   7    3.01    1.20
   2 -20   7    6.37    1.58
  -2  20  -7    4.70    2.99
   2 -20  -7    7.45    2.47
  -2 -20   7    5.49    1.76
   4  20  -7    0.90    2.58
   4 -20  -7    7.80    2.47
  -4 -20   7    8.91    2.26
  -1  21   7   -0.27    2.41
  -1 -21  -7   -1.73    1.84
   1 -21   7    0.18    2.55
   1  21  -7   -4.65    1.75
  -1  21   7   -0.94    1.72
   1 -21   7    0.57    1.21
  -1  21  -7    3.66    2.50
  -1 -21   7    1.35    1.37
   1 -21  -7    2.93    1.87
  -3 -21  -7    5.06    2.26
   3  21  -7    0.37    2.40
  -3  21   7    2.33    2.44
  -3 -21   7   -0.11    1.47
   3 -21  -7    2.47    2.11
  -3  21  -7   -2.45    2.14
   0  22   7    0.69    1.72
   0 -22   7    0.48    1.45
   0  22  -7    5.62    2.73
   0 -22  -7    0.27    2.03
   2  22  -7    0.48    2.75
  -2 -22  -7    1.17    2.23
  -2  22   7    1.40    2.12
   2 -22   7    1.24    1.75
  -2  22  -7   -4.53    2.25
   2 -22  -7   -0.77    1.94
   0   0  -8    4.83    1.07
   0   0  -8    0.97    0.74
  -2   0  -8  100.27    3.25
   2   0  -8  107.93    6.34
  -2   0  -8  110.44    3.50
   2   0  -8  100.74    4.57
  -4   0   8    2.16    1.27
   4   0  -8    1.90    1.30
  -6   0   8   35.80    3.41
  -6   0  -8   48.39    2.14
   6   0  -8   48.59    4.48
  -6   0  -8   48.11    2.24
  -6   0   8   41.64    3.86
  -8   0   8    3.51    2.34
   8   0  -8    3.29    2.10
  -8   0  -8    1.78    1.30
  -8   0  -8    1.12    0.99
   1   1  -8    9.03    1.64
   1   1  -8    7.38    1.30
  -1  -1  -8    6.81    1.10
  -1  -1  -8    9.29    1.16
   1  -1  -8    8.19    1.52
   1  -1  -8    8.73    1.43
  -1   1  -8    6.73    1.16
  -1   1  -8    9.10    1.12
   3   1  -8    5.40    1.58
  -3  -1  -8    4.24    0.50
   3   1  -8    5.28    1.54
  -3  -1  -8    5.10    0.52
   3  -1  -8    2.60    1.37
   3  -1  -8    4.74    1.49
  -3   1  -8    5.12    0.62
  -5   1   8    8.18    1.84
  -5  -1  -8    5.39    0.66
   5   1  -8    4.28    1.81
  -5   1  -8    6.06    0.88
   5  -1  -8    5.43    1.95
  -5  -1   8    6.62    1.70
  -5  -1   8    5.80    1.85
  -5   1  -8    6.83    0.82
  -7   1   8    2.10    1.67
  -7  -1  -8    2.28    1.05
  -7   1   8    1.47    2.39
  -7   1  -8    2.71    0.92
  -7  -1   8    0.35    1.61
  -7  -1   8    0.58    2.54
  -7   1  -8    2.65    1.05
   9   1  -8    2.59    2.10
  -9  -1  -8    4.75    1.59
  -9   1   8    3.15    1.89
   9  -1  -8    2.02    2.14
  -9  -1   8    2.48    2.15
  -9   1  -8    3.89    1.55
   0  -2  -8    0.74    0.76
   0  -2  -8    1.68    0.82
   0   2  -8   -0.05    0.73
   0   2  -8    0.68    0.76
  -2  -2  -8   16.28    1.24
   2   2  -8   19.44    2.15
  -2  -2  -8   17.34    1.23
  -2   2  -8   15.24    1.21
   2  -2  -8   13.90    2.08
  -2   2  -8   18.41    1.53
   4   2  -8   -0.54    1.24
  -4   2   8   -1.93    0.92
  -4   2  -8   -0.57    0.48
   4  -2  -8    2.80    1.46
  -6  -2  -8    5.31    0.99
  -6  -2  -8    6.32    0.85
  -6   2   8    2.90    1.90
   6   2  -8   10.36    2.70
  -6   2  -8    6.94    1.02
  -6  -2   8   11.54    2.48
  -6  -2   8    4.06    1.72
   6  -2  -8    3.90    1.89
  -8  -2  -8    1.90    0.99
  -8  -2  -8    4.45    1.50
  -8   2   8    0.93    2.05
   8   2  -8   -0.84    1.59
   8  -2  -8    0.25    1.79
  -8   2  -8    1.06    1.59
  -8   2  -8   -1.33    0.99
   1   3  -8   23.04    2.01
  -1  -3  -8   21.73    1.95
   1   3  -8   25.48    2.42
  -1  -3  -8   28.22    1.85
   1  -3  -8   21.93    2.24
  -1   3  -8   21.77    1.67
  -1   3  -8   24.11    2.03
   1  -3  -8   21.56    2.13
  -3  -3  -8   21.18    1.22
   3   3  -8   22.32    2.97
   3   3  -8   21.06    2.40
   3  -3  -8   23.29    2.85
  -3   3  -8   23.50    1.43
   3  -3  -8   28.72    2.92
  -5  -3  -8   12.60    0.97
   5   3  -8    7.82    2.20
  -5   3   8   13.20    2.14
  -5  -3  -8   10.05    1.03
  -5   3  -8    8.67    1.23
  -5  -3   8    9.77    1.87
  -5  -3   8   16.72    2.62
   5  -3  -8   14.16    2.66
   7   3  -8    4.76    2.43
  -7  -3  -8   10.12    1.56
  -7   3   8    9.45    4.44
  -7  -3  -8    9.56    1.21
  -7  -3   8   13.35    2.48
  -7   3  -8   10.96    1.65
   7  -3  -8    6.68    3.45
  -7   3  -8    7.73    1.34
  -9  -3  -8    2.44    1.35
  -9   3   8    2.84    2.27
   9   3  -8    2.06    2.41
  -9   3  -8    4.28    1.56
   9  -3  -8    1.06    2.30
  -9  -3   8    6.52    2.37
   0   4  -8   50.65    3.13
   0  -4  -8   50.84    2.93
   0  -4  -8   45.84    2.85
   0   4  -8   51.31    2.71
   2   4  -8    5.19    1.26
   2   4  -8    4.36    1.45
  -2  -4  -8    2.57    0.85
  -2  -4  -8    5.39    0.92
  -2   4  -8    3.36    0.99
   2  -4  -8    1.65    1.16
   2  -4  -8    3.53    1.38
  -2   4  -8    2.11    1.31
   4   4  -8   34.53    3.54
  -4  -4  -8   28.76    1.59
  -4   4   8   32.39    2.59
  -4  -4   8   34.93    3.66
   4  -4  -8   31.75    3.33
  -4   4  -8   24.40    1.90
  -6  -4  -8    2.05    1.19
   6   4  -8    0.94    1.65
  -6   4   8    1.54    1.74
  -6  -4  -8    0.74    0.69
  -6  -4   8    2.53    2.39
  -6   4  -8   -0.17    1.10
  -6  -4   8    0.74    1.25
   6  -4  -8    3.36    1.73
  -8  -4  -8   12.95    1.96
   8   4  -8    7.54    2.78
  -8  -4  -8    8.86    1.50
  -8  -4   8    9.27    2.64
  -8   4  -8    8.32    1.68
   8  -4  -8    7.95    2.65
  -8   4  -8   13.60    2.73
   1   5  -8    1.67    1.06
   1   5  -8    1.93    1.16
  -1  -5  -8    3.20    0.93
  -1  -5  -8    1.29    0.88
   1  -5  -8    1.35    1.14
  -1   5  -8    2.00    1.05
  -1   5  -8    2.73    0.94
   1  -5  -8    0.58    1.01
   3   5  -8    1.09    1.32
   3   5  -8    0.49    1.34
  -3  -5  -8    0.97    0.71
   3  -5  -8    7.47    1.90
   3  -5  -8    3.07    1.51
  -5  -5  -8    1.82    0.76
  -5  -5  -8    2.92    0.89
  -5   5   8   -2.16    1.32
   5   5  -8   -0.21    1.44
   5  -5  -8    0.23    1.44
  -5   5  -8    2.93    1.05
  -5  -5   8    0.68    1.66
  -5  -5   8    0.47    1.18
   7   5  -8    0.61    1.90
  -7  -5  -8    1.77    1.35
  -7  -5  -8    1.70    0.87
  -7   5  -8    0.69    1.49
   7  -5  -8    3.14    2.03
  -7  -5   8    0.46    1.53
   0   6  -8   62.46    3.83
   0  -6  -8   55.68    3.33
   0   6  -8   54.39    3.11
   0  -6  -8   53.88    3.26
  -2  -6  -8   -0.02    0.69
   2   6  -8   -0.35    1.11
   2   6  -8    1.64    1.33
   2  -6  -8    1.28    1.12
  -2   6  -8    0.22    0.78
  -2   6  -8   -1.13    0.80
  -4   6   8   43.55    3.06
   4   6  -8   43.16    4.13
  -4  -6  -8   36.67    2.26
  -4   6  -8   42.79    2.67
  -4  -6   8   42.27    3.08
   4  -6  -8   41.16    3.79
  -6   6   8    2.79    1.80
  -6  -6  -8   -0.05    1.12
  -6  -6  -8   -0.68    0.70
  -6   6  -8   -1.76    1.27
   6  -6  -8   -0.78    1.37
  -6  -6   8    0.31    1.34
  -8  -6  -8    8.08    2.21
   8   6  -8    6.56    2.58
  -8  -6  -8   14.41    1.81
   8  -6  -8   12.90    2.95
  -8   6  -8    4.59    4.10
  -8  -6   8    8.00    2.30
   1   7  -8   10.73    2.15
   1   7  -8    7.79    1.57
  -1  -7  -8    6.75    1.35
  -1  -7  -8    9.15    1.59
  -1   7  -8    9.97    1.79
   1  -7  -8    5.74    1.66
  -1   7  -8    7.16    1.36
   1  -7  -8    6.90    2.12
  -3  -7  -8    7.03    1.21
  -3   7   8    7.77    1.18
   3   7  -8    6.48    2.12
  -3   7  -8    6.72    1.36
   3  -7  -8    6.52    1.91
  -3  -7   8    6.55    1.14
   5   7  -8    2.81    1.67
  -5  -7  -8    1.91    0.94
  -5   7   8    2.55    1.60
  -5   7  -8    2.60    1.35
  -5  -7   8    3.47    1.53
   5  -7  -8    1.42    1.46
   7   7  -8    2.38    2.39
  -7  -7  -8    3.05    1.20
  -7  -7  -8    5.11    1.65
  -7  -7   8    6.63    2.05
  -7   7  -8   -0.36    2.00
   7  -7  -8    3.34    2.01
   0  -8  -8   11.72    1.99
   0   8  -8   15.65    3.63
   0  -8  -8    9.69    1.79
   0   8  -8    9.17    1.63
   2   8  -8    0.02    1.29
   2   8  -8    2.87    1.28
  -2  -8  -8   -0.99    0.78
   2  -8  -8   -0.78    1.00
  -2   8  -8   -0.22    0.95
   2  -8  -8    1.90    1.55
  -2   8  -8   -1.31    0.75
  -4  -8  -8    4.48    1.26
  -4   8   8    3.62    1.94
   4   8  -8    7.38    2.23
  -4  -8   8    5.03    1.44
   4  -8  -8    9.11    2.34
  -4   8  -8    6.33    1.62
  -6  -8  -8   -0.84    0.93
  -6   8  -8    0.44    1.58
  -6  -8   8    2.66    1.58
   6  -8  -8   -0.24    1.87
  -8  -8  -8    1.02    1.28
   8   8  -8    3.39    2.72
  -8  -8   8    1.82    1.74
   8  -8  -8   -0.44    1.86
  -1  -9  -8   15.83    2.20
   1   9  -8   15.09    2.76
   1   9  -8   12.85    2.08
   1  -9  -8   17.38    3.44
   1  -9  -8   10.34    2.01
  -1   9  -8   16.01    2.51
  -1   9  -8   14.66    2.11
  -3   9   8    8.78    1.23
  -3  -9  -8   10.68    1.77
   3   9  -8    9.43    2.56
  -3  -9   8    7.89    1.45
  -3   9  -8    6.72    1.82
   3  -9  -8    8.57    2.15
  -5   9   8    7.59    1.91
   5   9  -8    7.59    2.19
  -5  -9  -8    9.50    1.60
  -5   9  -8    7.15    1.96
   5  -9  -8   10.19    2.53
  -5  -9   8   12.27    2.09
  -7  -9  -8    2.70    1.40
  -7  -9  -8    3.92    2.01
   7   9  -8    1.22    2.08
   7  -9  -8    3.67    2.17
  -7  -9   8    4.18    2.03
   0  10  -8    7.48    1.81
   0  10  -8    7.79    2.14
   0 -10  -8   -0.82    2.00
   0 -10  -8    5.90    1.73
  -2 -10  -8   39.24    3.11
   2  10  -8   39.28    3.95
  -2  10  -8   40.66    3.35
  -2  10  -8   43.58    5.86
  -2 -10   8   37.63    1.92
   2 -10  -8   39.30    3.55
   4  10  -8    2.03    1.90
  -4 -10  -8    4.22    1.25
  -4  10   8    0.08    1.84
  -4  10  -8    0.10    1.79
   4 -10  -8    2.64    1.68
  -4 -10   8    3.16    1.34
   6  10  -8   14.50    3.19
  -6 -10  -8   15.91    2.08
  -6  10   8   12.54    2.66
   6 -10  -8   17.63    3.26
  -6  10  -8   14.39    2.90
  -6 -10   8   18.74    2.80
   8  10  -8    5.98    2.71
  -8 -10  -8    1.20    1.44
  -8 -10   8   -1.66    1.60
   8 -10  -8    1.62    1.90
   1  11  -8    2.23    1.57
  -1 -11  -8    0.78    1.64
  -1  11  -8    1.76    1.40
   1 -11  -8    0.77    1.93
  -1  11  -8   -1.41    1.10
   1 -11  -8    0.70    1.29
  -3 -11  -8    2.36    1.35
  -3  11   8    1.27    0.91
   3  11  -8    2.37    1.84
  -3  11  -8    4.94    2.00
  -3 -11   8    0.98    1.12
   3 -11  -8    1.40    1.42
   5  11  -8   -2.99    1.78
  -5 -11  -8    0.22    1.16
  -5  11   8    0.64    1.70
  -5  11  -8   -2.74    1.83
  -5 -11   8    0.25    1.28
   5 -11  -8    0.46    1.59
   7  11  -8    3.35    2.57
  -7 -11  -8    0.35    1.27
   7 -11  -8    3.19    2.26
  -7 -11   8   -1.03    1.50
   0 -12  -8    1.16    1.57
   0  12  -8    0.49    1.44
   0 -12  -8    3.28    1.41
  -2 -12  -8   14.41    2.46
   2  12  -8   18.82    3.18
  -2  12  -8   10.63    2.34
  -2  12  -8   16.42    2.73
  -2 -12   8   16.96    1.63
   2 -12  -8   23.27    3.18
  -4  12   8    3.59    1.54
   4  12  -8    3.72    2.21
   4 -12  -8    1.67    1.65
  -4 -12   8    1.78    1.25
   6  12  -8   13.18    3.17
  -6 -12  -8    3.15    1.42
  -6  12   8    4.58    4.66
   6 -12  -8    3.43    2.19
  -6 -12   8    8.35    2.10
  -1 -13  -8    4.33    1.71
   1  13  -8    7.58    2.12
  -1  13  -8    6.99    2.12
   1 -13  -8    2.83    1.56
  -3  13   8    4.08    1.30
  -3 -13  -8    5.22    1.87
   3  13  -8    0.76    1.97
   3 -13  -8    5.31    1.88
  -3 -13   8    4.37    1.42
  -5 -13  -8    4.58    1.58
   5  13  -8    2.44    2.16
  -5  13   8   -2.48    2.19
   5 -13  -8    4.57    2.16
  -5 -13   8    1.95    1.41
   7  13  -8    2.44    2.54
  -7 -13  -8    2.66    1.45
  -7 -13   8    2.98    1.77
   7 -13  -8    4.50    2.18
   0 -14  -8    5.33    1.81
   0  14  -8    2.29    1.70
   2  14  -8    6.69    2.41
  -2 -14  -8   12.52    2.46
   2 -14  -8    9.08    2.23
  -2 -14   8   10.41    2.33
  -2  14  -8    6.81    2.03
  -4 -14  -8    2.01    1.61
  -4  14   8    0.19    1.74
   4 -14  -8    0.99    1.62
  -4 -14   8    3.83    1.55
  -6 -14  -8    4.26    1.71
   6  14  -8    9.91    3.27
   6 -14  -8    3.07    2.08
  -6 -14   8    6.68    3.38
  -1 -15  -8    5.03    1.89
   1  15  -8   11.24    2.45
   1 -15  -8    8.56    2.20
  -1 -15   8    6.50    1.09
  -1 -15   8    5.59    1.20
  -1  15  -8    1.32    1.77
  -3  15   8    3.62    1.80
  -3  15   8    4.79    2.28
   3  15  -8    4.37    2.61
  -3 -15  -8    7.39    2.21
   3 -15  -8    7.06    2.17
  -3 -15   8    4.91    1.59
  -3  15  -8    5.97    2.23
  -5  15   8   -0.92    2.96
  -5 -15  -8    3.96    1.85
   5  15  -8    4.50    2.65
   5 -15  -8    4.93    2.18
  -5 -15   8    2.69    1.74
   0  16  -8   16.24    3.06
   0 -16  -8   12.40    2.47
   2  16  -8   -0.18    1.62
  -2 -16  -8   -0.84    1.55
  -2  16   8    0.51    0.94
   2 -16  -8   -3.44    1.24
  -2  16  -8   -1.79    1.34
  -2 -16   8    1.20    1.16
   4  16  -8    6.25    2.68
  -4 -16  -8    6.80    2.02
  -4  16   8    8.46    2.58
   4 -16  -8    9.13    2.71
  -4 -16   8    8.87    1.90
   1  17  -8    0.55    1.58
  -1 -17  -8    0.66    1.58
  -1 -17   8   -1.49    1.03
   1 -17  -8   -3.83    1.28
  -1  17  -8    6.28    2.28
  -1 -17   8   -0.72    1.41
  -3  17   8    0.64    2.66
  -3  17   8   -1.88    1.54
  -3 -17  -8    1.54    1.75
  -3 -17   8    0.65    1.24
  -3  17  -8   -0.21    1.73
   3 -17  -8    1.48    1.60
   5  17  -8    1.48    2.28
  -5 -17  -8    0.14    1.64
   5 -17  -8   -2.22    1.64
  -5 -17   8   -0.99    1.53
   0 -18   8    5.37    1.06
   0 -18  -8    1.16    1.85
   2  18  -8   -0.70    1.98
  -2 -18  -8    5.79    2.10
  -2  18   8    0.07    1.38
  -2  18   8    2.36    1.33
  -2 -18   8    2.11    1.29
   2 -18  -8   -0.14    1.80
  -2  18  -8   -1.61    1.84
   4  18  -8    4.84    2.75
  -4 -18  -8    5.89    2.07
   4 -18  -8    7.67    2.35
  -4 -18   8    3.41    1.62
  -1 -19  -8   -0.38    1.94
   1  19  -8    3.75    2.01
   1 -19  -8    1.08    1.95
  -1 -19   8    7.88    2.88
  -1 -19   8    3.57    1.30
  -1  19  -8    1.28    2.63
   3  19  -8    4.75    2.65
  -3  19   8    0.04    1.93
  -3 -19  -8    3.38    2.04
  -3  19  -8    1.73    2.07
   3 -19  -8    2.93    2.12
  -3 -19   8    2.28    1.52
   0 -20  -8    2.20    2.14
   0 -20   8    1.13    1.37
   0  20  -8    7.65    2.88
  -2  20   8    1.48    2.56
   2  20  -8   -0.04    2.15
  -2 -20  -8    2.87    2.12
   2 -20  -8    4.81    2.33
  -2  20  -8    5.95    2.75
  -2 -20   8    2.77    1.51
   0   0  -9   -0.13    0.83
   0   0  -9   -0.35    0.82
   2   0  -9    1.13    1.18
   2   0  -9    1.52    1.20
  -2   0  -9    1.49    0.61
  -2   0  -9   -0.25    0.60
   4   0  -9    0.57    1.16
  -6   0  -9   -1.49    0.64
   6   0  -9   -3.24    1.42
  -6   0  -9    0.85    0.57
  -6   0   9   -2.67    2.01
  -8   0   9   -0.05    1.86
   8   0  -9   -2.57    1.79
   1   1  -9   25.87    2.30
  -1  -1  -9   23.00    1.96
   1   1  -9   25.77    2.54
  -1  -1  -9   25.73    1.83
   1  -1  -9   21.59    2.33
   1  -1  -9   22.52    2.21
  -1   1  -9   22.97    1.78
  -1   1  -9   23.06    2.02
  -3  -1  -9    8.49    0.88
   3   1  -9   13.72    2.56
  -3   1  -9   10.99    0.97
  -3   1  -9   11.64    1.11
   3  -1  -9   11.23    2.38
   5   1  -9   15.99    2.77
  -5   1   9   14.83    3.04
   5  -1  -9   15.87    2.85
  -5   1  -9   19.46    1.23
  -7   1   9    7.18    3.27
   7   1  -9    1.28    2.05
  -7  -1  -9    2.05    1.20
  -7  -1  -9   -0.19    0.79
  -7   1  -9   -0.19    1.14
  -7  -1   9    1.39    1.46
  -7  -1   9    5.22    3.23
   7  -1  -9    0.87    1.76
   0  -2  -9   -0.16    0.83
   0   2  -9   -0.26    0.86
   0   2  -9    1.05    0.92
   0  -2  -9    0.98    0.96
   2   2  -9    3.05    1.43
   2   2  -9    1.24    1.30
  -2  -2  -9    2.81    0.84
  -2  -2  -9    4.14    0.78
  -2   2  -9    4.70    0.96
   2  -2  -9    3.38    1.27
   2  -2  -9    3.67    1.54
   4   2  -9    1.04    1.54
   4  -2  -9   -1.02    1.22
  -4   2  -9    0.16    0.55
  -6  -2  -9   -0.10    0.74
  -6   2   9    2.17    2.14
  -6  -2  -9    2.14    0.63
   6  -2  -9   -3.35    2.00
  -6   2  -9    2.22    1.28
  -6  -2   9    3.89    2.32
  -8  -2  -9   -1.30    1.07
   8   2  -9    0.48    1.91
  -8  -2   9    0.45    1.85
   8  -2  -9   -1.62    1.82
  -1  -3  -9   -0.09    0.76
   1   3  -9    0.61    0.97
  -1  -3  -9   -0.09    0.71
  -1   3  -9    0.50    0.72
   1  -3  -9   -0.51    0.85
   1  -3  -9    1.79    1.12
  -1   3  -9   -0.87    0.77
  -3  -3  -9    0.43    0.56
   3   3  -9    2.08    1.39
  -3  -3  -9    1.80    0.60
  -3   3  -9    1.78    0.76
  -3   3  -9    0.15    0.62
   3  -3  -9    0.36    1.31
   5   3  -9    1.61    1.71
  -5   3   9    0.25    1.81
   5  -3  -9   -0.17    1.45
  -5   3  -9   -1.38    0.79
  -7  -3  -9    2.94    0.95
  -7   3   9    0.23    2.99
   7   3  -9   -1.72    1.68
  -7  -3  -9   -0.75    1.19
  -7  -3   9    4.09    3.47
  -7   3  -9    0.92    1.33
  -7  -3   9    0.48    1.50
   7  -3  -9    0.76    2.01
   0   4  -9    5.08    1.36
   0  -4  -9    6.60    1.34
   0  -4  -9    6.37    1.41
   0   4  -9    5.85    1.52
   2   4  -9    1.01    1.12
  -2  -4  -9   -0.77    0.65
  -2  -4  -9   -0.72    0.83
   2   4  -9   -0.90    1.00
   2  -4  -9   -1.52    1.14
  -2   4  -9   -0.80    0.76
   2  -4  -9    0.20    1.10
  -2   4  -9    0.70    0.81
  -4  -4  -9    4.24    0.76
   4   4  -9    4.15    1.82
   4  -4  -9    6.29    2.03
  -6   4   9   -1.07    1.87
  -6  -4  -9   -0.18    0.64
   6   4  -9   -0.69    1.72
  -6  -4   9   -0.33    1.34
  -6  -4   9    0.72    2.49
  -6   4  -9    1.82    1.22
  -8  -4  -9    2.51    1.16
  -8  -4   9   -0.68    1.76
  -1  -5  -9   17.32    1.90
   1   5  -9   15.92    2.50
   1   5  -9   16.73    3.39
  -1  -5  -9   22.31    1.99
  -1   5  -9   14.24    2.08
   1  -5  -9   14.54    3.44
   1  -5  -9   17.94    2.77
  -1   5  -9   20.35    1.99
   3   5  -9   19.08    2.99
  -3  -5  -9   26.97    1.87
  -3   5  -9   25.63    1.97
  -3   5  -9   19.06    2.08
   3  -5  -9   24.66    3.23
   5   5  -9    6.91    2.44
  -5  -5  -9    3.50    0.81
  -5   5   9    1.16    1.75
  -5  -5   9    5.82    1.35
   5  -5  -9    8.17    2.40
  -5   5  -9    6.53    1.27
  -7  -5  -9   12.96    1.55
  -7  -5  -9    6.18    1.79
  -7   5   9   10.00    4.34
   7   5  -9   14.81    3.19
  -7   5  -9    1.30    2.00
  -7  -5   9    6.28    2.04
   7  -5  -9    6.99    2.61
   0   6  -9   -1.10    1.10
   0   6  -9    0.86    1.11
   0  -6  -9    4.43    1.30
   0  -6  -9    1.99    1.22
   2   6  -9    0.50    1.29
  -2  -6  -9    0.11    0.89
  -2  -6  -9    1.64    0.99
  -2   6  -9   -2.11    0.90
   2  -6  -9    1.34    1.80
   2  -6  -9    0.83    1.22
  -2   6  -9    2.85    1.14
  -4  -6  -9    1.32    0.83
   4   6  -9    3.26    1.80
  -4   6  -9   -2.75    0.99
   4  -6  -9   -1.21    1.31
  -6   6   9   -1.99    2.16
   6   6  -9   -0.24    1.92
  -6  -6  -9   -0.36    0.74
  -6   6  -9    2.13    1.43
   6  -6  -9    4.70    1.96
  -6  -6   9    0.59    1.35
  -1  -7  -9   14.94    2.03
   1   7  -9   10.06    1.86
   1   7  -9   15.63    2.71
  -1  -7  -9    9.48    1.68
  -1   7  -9    9.83    1.98
  -1   7  -9   14.52    2.00
   1  -7  -9   10.45    1.94
   1  -7  -9   12.77    2.19
  -3  -7  -9   13.05    1.69
   3   7  -9   13.02    2.77
  -3   7  -9   11.80    1.74
  -3   7  -9    9.90    1.83
   3  -7  -9   15.71    2.63
   5   7  -9    3.14    1.98
  -5  -7  -9    2.22    0.96
  -5   7   9    1.78    2.01
  -5  -7   9    3.70    1.47
   5  -7  -9    6.00    2.15
  -5   7  -9    2.37    1.49
   7   7  -9    7.24    2.74
  -7  -7  -9    5.31    1.27
  -7  -7   9    4.06    1.90
   7  -7  -9    7.24    2.62
   0   8  -9   -0.43    1.20
   0  -8  -9   -2.07    2.09
   0   8  -9    1.50    1.23
  -2  -8  -9    3.05    1.27
   2   8  -9    3.05    1.78
  -2  -8  -9    4.01    1.32
   2  -8  -9    4.23    1.60
  -2   8  -9    2.65    1.32
  -2   8  -9    4.14    1.44
  -4  -8  -9   -0.75    0.90
   4   8  -9   -0.15    1.50
  -4   8  -9   -0.63    1.26
   4  -8  -9    0.71    1.44
  -4  -8   9    0.27    1.10
   6   8  -9   -1.75    1.63
  -6  -8  -9    1.55    1.09
  -6   8   9    0.38    2.49
  -6  -8   9    1.55    1.46
   6  -8  -9    1.41    2.00
  -6   8  -9    3.20    2.75
  -1  -9  -9   -0.08    1.39
   1   9  -9    0.74    1.28
  -1  -9  -9    2.65    1.32
  -1   9  -9   -0.42    1.25
   1  -9  -9    0.06    1.24
  -1   9  -9   -1.07    1.11
  -3  -9  -9    0.38    1.04
   3   9  -9   -1.77    1.26
   3  -9  -9   -0.16    1.26
  -3   9  -9    0.23    1.08
  -3   9  -9    0.00    1.55
  -5   9   9   -0.58    2.08
  -5  -9  -9    0.20    1.06
  -5   9  -9   -2.18    2.30
  -5  -9   9    4.14    1.44
  -7  -9  -9   -1.12    1.12
   7   9  -9   -0.34    2.16
   7  -9  -9    1.30    2.12
  -7  -9   9   -0.72    2.40
   0 -10  -9   -0.52    1.58
   0  10  -9   -0.17    1.40
   0 -10  -9    0.28    1.23
  -2 -10  -9    3.93    1.30
   2  10  -9   -1.72    1.48
  -2  10  -9   -0.77    1.18
   2 -10  -9    0.14    1.15
  -2  10  -9    3.13    1.71
   4  10  -9    4.89    2.00
  -4  10   9   -2.12    1.48
  -4 -10  -9    2.49    1.20
   4 -10  -9    0.04    1.61
  -4 -10   9   -1.11    1.39
  -4  10  -9    2.51    1.88
  -6 -10  -9    2.19    1.17
   6  10  -9   -0.77    1.92
  -6 -10   9   -0.07    1.43
   6 -10  -9   -1.23    1.91
   1  11  -9   19.22    3.07
  -1 -11  -9   13.28    2.18
  -1 -11  -9   16.55    2.38
   1 -11  -9   13.28    2.54
  -1  11  -9   13.19    2.75
   3  11  -9   11.38    2.67
  -3 -11  -9    7.00    1.93
  -3 -11   9    6.22    0.96
   3 -11  -9    8.69    2.28
  -3  11  -9    7.21    1.84
  -5  11   9    6.96    2.63
   5  11  -9   10.97    2.76
  -5 -11  -9    8.62    2.01
   5 -11  -9    8.32    2.44
  -5 -11   9   10.42    2.07
   0 -12  -9   -0.95    1.28
   0  12  -9   -2.55    1.23
  -2 -12  -9    3.47    1.45
   2  12  -9   -0.41    1.48
   2 -12  -9   -0.53    1.44
  -4  12   9    0.11    1.39
   4  12  -9   -0.10    1.98
  -4 -12  -9    0.05    1.26
  -4 -12   9    0.70    1.20
   6  12  -9    3.66    2.43
  -6 -12  -9   -1.24    1.21
   6 -12  -9   -1.28    1.70
  -6 -12   9   -0.04    1.58
   1  13  -9    0.95    1.76
  -1 -13  -9    7.79    2.10
  -1  13  -9    3.33    2.02
   1 -13  -9    5.17    1.82
  -3 -13  -9    3.70    1.85
   3  13  -9    2.93    2.38
  -3  13  -9   -3.04    1.49
  -3 -13   9    0.72    1.25
   3 -13  -9   -1.56    1.44
  -5 -13  -9    0.21    1.50
   5  13  -9    3.49    2.21
  -5 -13   9    3.18    1.69
   5 -13  -9    4.21    2.36
   0  14  -9    3.36    1.73
   0 -14  -9    1.53    1.50
  -2 -14  -9    1.92    1.56
   2  14  -9   -3.10    1.33
  -2  14  -9    0.19    1.77
   2 -14  -9    0.37    1.58
  -4 -14  -9    6.68    1.86
  -4  14   9    0.33    1.51
   4  14  -9    0.15    2.35
  -4  14   9    2.12    1.49
  -4 -14   9    2.06    1.49
   4 -14  -9    3.38    2.18
  -4  14  -9    3.46    1.93
  -1 -15  -9    2.56    1.78
   1  15  -9    3.85    1.99
  -1  15  -9    4.56    2.00
   1 -15  -9    2.90    1.75
  -3 -15  -9    2.50    1.71
   3  15  -9    2.27    2.11
   3 -15  -9    1.49    1.89
  -3  15  -9    2.86    2.25
  -3 -15   9    2.92    1.44
   0 -16  -9   -1.51    1.36
   0  16  -9    0.31    1.79
   2  16  -9    1.51    1.98
  -2 -16  -9    3.28    2.03
  -2  16  -9    2.21    2.07
   1  17  -9    5.07    2.50
  -1 -17  -9    5.35    2.01
  -1  17  -9   10.82    3.90
  -3 -17  -9    4.72    2.19
  -3 -17   9    5.73    1.64
   3 -17  -9    0.44    1.73
   0  18  -9    1.43    2.10
   0 -18  -9   -2.00    2.51
   0   0 -10    2.59    1.22
   0   0 -10   -0.58    1.04
  -2   0 -10    7.68    1.09
   2   0 -10    7.29    1.89
  -2   0 -10    6.94    1.25
   4   0 -10    3.69    1.66
   6   0 -10    4.51    2.12
   1   1 -10    6.46    1.67
   1   1 -10    5.91    1.60
  -1  -1 -10    5.71    1.32
  -1  -1 -10    4.85    1.15
  -1   1 -10    2.91    1.06
   1  -1 -10    6.25    1.62
   1  -1 -10    5.67    1.63
  -1   1 -10    5.20    1.33
   3   1 -10    1.57    1.58
  -3  -1 -10    4.33    0.84
  -3  -1 -10    2.50    0.70
  -3   1 -10    3.37    0.83
  -3   1 -10    0.79    0.72
   3  -1 -10    1.27    1.44
   5   1 -10    9.01    2.69
   5  -1 -10    2.79    1.78
   0  -2 -10    7.06    1.57
   0   2 -10    5.96    1.52
   0  -2 -10    7.24    1.54
   0   2 -10    9.91    1.61
  -2  -2 -10   16.11    1.57
  -2  -2 -10   12.53    1.51
   2   2 -10   16.59    2.52
  -2   2 -10   12.79    1.64
  -2   2 -10    9.86    1.35
   2  -2 -10   10.83    2.07
   4   2 -10    4.72    1.84
  -4   2 -10    4.35    0.79
  -4   2 -10    4.36    0.84
   4  -2 -10    4.93    1.93
   6   2 -10   11.97    3.02
  -6   2 -10    1.63    0.93
   6  -2 -10    2.51    2.09
  -1  -3 -10   19.45    1.99
   1   3 -10   13.48    2.05
  -1  -3 -10   12.26    1.71
   1   3 -10   16.31    2.39
  -1   3 -10   16.15    1.86
   1  -3 -10   16.82    2.14
   1  -3 -10   16.14    2.34
  -1   3 -10   22.30    2.26
   3   3 -10   15.52    2.67
  -3  -3 -10   15.84    1.56
  -3  -3 -10   15.61    1.33
  -3   3 -10   17.85    1.67
   3  -3 -10   10.00    2.41
  -3   3 -10   16.86    1.61
  -5   3 -10    5.91    1.23
   0  -4 -10   10.31    1.77
   0  -4 -10    9.12    1.65
  -2  -4 -10    1.75    0.90
  -2  -4 -10    3.73    1.02
   2   4 -10    3.64    1.66
  -2   4 -10    0.58    0.98
  -2   4 -10    4.02    1.08
   2  -4 -10    2.79    1.51
  -4  -4 -10    4.38    0.83
  -4  -4 -10    3.42    0.76
   4   4 -10   10.09    2.55
   4  -4 -10    6.36    2.03
  -4   4 -10    6.36    1.22
  -4   4 -10    6.32    1.15
   6   4 -10   -2.05    1.72
   6  -4 -10    2.17    1.93
  -1  -5 -10    2.04    1.06
  -1  -5 -10    3.03    1.22
   1   5 -10    1.76    1.46
   1  -5 -10    1.90    1.39
  -1   5 -10    0.02    1.25
  -1   5 -10    2.30    1.26
   1  -5 -10    1.67    1.56
  -3  -5 -10    0.76    0.85
  -3  -5 -10   -1.85    0.81
   3   5 -10   -1.45    1.39
  -3   5 -10    3.10    1.12
  -3   5 -10    0.21    1.19
   3  -5 -10    1.63    1.56
  -5  -5 -10   -0.01    0.62
   5   5 -10    1.36    1.91
  -5   5 -10   -1.08    1.11
   0  -6 -10    6.44    2.21
   0  -6 -10    8.80    1.89
   0   6 -10    5.25    1.62
   0   6 -10    9.42    1.96
  -2  -6 -10    1.38    1.14
  -2  -6 -10    0.89    1.12
   2   6 -10    2.82    1.66
  -2   6 -10    1.92    1.28
  -2   6 -10    2.14    1.33
   2  -6 -10    2.22    1.57
  -4  -6 -10    3.63    1.04
   4   6 -10    7.07    2.35
  -4   6 -10    6.29    1.72
  -4   6 -10    1.92    1.42
   4  -6 -10    5.92    2.01
   6   6 -10    0.83    2.12
  -6  -6 -10    1.12    0.80
   6  -6 -10    0.61    1.85
  -1  -7 -10    5.32    1.69
   1   7 -10    4.44    1.97
  -1  -7 -10    8.68    1.59
  -1   7 -10    1.64    1.42
  -1   7 -10    6.92    1.78
   1  -7 -10    6.56    1.83
  -3  -7 -10    4.36    1.34
   3   7 -10    3.31    1.99
  -3  -7 -10    3.86    1.23
   3  -7 -10    4.68    1.81
  -3   7 -10   10.20    1.84
  -3   7 -10    1.61    1.37
  -5  -7 -10    2.11    0.94
   5   7 -10    4.88    2.27
   5  -7 -10    0.19    1.70
  -5   7 -10   -0.35    2.19
   0  -8 -10    7.59    2.31
   0   8 -10    9.02    2.04
   0  -8 -10    7.90    1.71
   2   8 -10    9.36    2.10
  -2  -8 -10    6.89    1.56
  -2  -8 -10    0.63    1.52
  -2   8 -10    1.52    1.68
   2  -8 -10    1.82    1.56
  -4  -8 -10    1.27    1.13
   4   8 -10    2.51    3.09
   4  -8 -10    7.66    2.32
  -4   8 -10    4.27    1.75
  -1  -9 -10    8.93    2.00
  -1  -9 -10   11.64    2.28
   1   9 -10    9.28    2.36
  -1   9 -10   12.82    2.47
   1  -9 -10    8.30    2.05
   3   9 -10    6.88    2.46
  -3  -9 -10    2.26    1.66
  -3  -9 -10    3.05    1.47
  -3   9 -10    5.02    2.07
   3  -9 -10    8.53    2.43
  -3   9 -10    4.22    2.07
  -5  -9 -10    7.87    1.50
   5   9 -10    6.99    2.57
   5  -9 -10    3.79    2.07
   0 -10 -10    0.99    1.58
   0  10 -10    1.23    1.59
  -2 -10 -10    3.34    1.68
   2  10 -10    1.27    1.80
  -2 -10 -10   -0.17    1.59
  -2  10 -10    0.88    1.58
   2 -10 -10    2.99    1.74
   4  10 -10   -4.35    1.45
  -4 -10 -10    0.31    1.20
   4 -10 -10   -1.49    1.57
  -4  10 -10    2.88    1.73
  -1 -11 -10   -0.70    1.52
   1  11 -10    0.66    1.83
  -1  11 -10   -0.10    1.59
   1 -11 -10    1.01    1.51
  -3 -11 -10   -3.37    1.21
  -3  11 -10    3.65    2.00
   3 -11 -10    1.36    1.74
   0  12 -10    2.22    1.83
   0 -12 -10    4.72    1.74
  -2 -12 -10    8.05    2.09
   2  12 -10    6.84    2.47
  -2  12 -10    6.65    2.30
   2 -12 -10    5.57    2.04
  -4 -12 -10    6.47    1.62
   4  12 -10   -0.35    2.06
   4 -12 -10   -4.07    1.53
  -4  12 -10   -2.11    1.79
  -1 -13 -10    2.15    1.85
   1 -13 -10    5.75    2.17
  -1  13 -10    3.63    1.94
  -3 -13 -10    8.54    2.20
   3  13 -10    0.08    2.18
   3 -13 -10    6.23    2.25
  -3  13 -10    0.81    2.00
   0  14 -10    2.10    1.68
   0 -14 -10    8.87    2.20
   2  14 -10    5.58    2.27
  -2 -14 -10   -2.62    1.59
  -2  14 -10    2.82    2.14
  -1 -15 -10    1.51    1.95
   1  15 -10    4.54    2.42
  -1  15 -10    1.72    2.00
   1 -15 -10    4.99    2.98
   0   0 -11   -1.60    1.07
   0   0 -11   -3.10    1.30
  -2   0 -11   -2.76    0.92
   2   0 -11   -0.19    1.55
   4   0 -11    1.77    2.06
   1   1 -11    2.67    1.57
  -1  -1 -11    2.28    1.33
  -1  -1 -11    3.78    1.44
  -1   1 -11    3.83    1.42
  -1   1 -11    2.02    1.37
   1  -1 -11    2.85    1.62
  -3  -1 -11    3.13    0.97
   3   1 -11    2.69    1.77
  -3  -1 -11    1.18    0.84
  -3   1 -11    1.32    1.05
   3  -1 -11    3.69    1.88
  -3   1 -11    1.76    0.96
   0   2 -11    5.58    1.65
   0  -2 -11    6.19    1.80
   0   2 -11   -0.36    1.64
   0  -2 -11    4.78    1.65
  -2  -2 -11   -0.10    1.09
   2   2 -11    2.13    1.78
  -2  -2 -11    0.25    1.00
  -2   2 -11    1.48    1.13
   2  -2 -11    2.25    1.67
  -2   2 -11   -1.32    1.07
   4  -2 -11    3.76    2.33
  -4   2 -11    4.10    0.89
  -1  -3 -11    2.56    1.39
   1   3 -11    3.34    1.56
  -1  -3 -11   -1.34    1.13
  -1   3 -11    1.22    1.19
  -1   3 -11    0.89    2.36
   1  -3 -11   -0.27    1.45
  -3  -3 -11    0.88    0.90
   3   3 -11   -2.42    1.46
   3  -3 -11   -0.01    1.57
  -3   3 -11   -0.48    1.01
   0   4 -11   -0.03    1.40
   0  -4 -11   -0.26    2.36
   0  -4 -11    5.38    1.54
  -2  -4 -11    4.77    1.45
   2   4 -11    2.22    1.86
  -2  -4 -11    1.17    1.17
  -2   4 -11    6.06    1.46
  -2   4 -11    8.07    1.64
   2  -4 -11    5.29    1.98
   4   4 -11    0.90    2.70
  -4   4 -11    4.03    0.99
   1   5 -11    1.97    1.84
  -1  -5 -11    4.48    1.64
  -1  -5 -11    4.02    1.51
  -1   5 -11    0.53    1.38
   1  -5 -11    5.00    1.84
  -1   5 -11    6.02    1.69
  -3  -5 -11    3.13    1.13
   3   5 -11    1.37    1.88
  -3   5 -11    3.97    1.25
   3  -5 -11   -0.81    1.62
   0  -6 -11    0.09    1.29
   0   6 -11    1.54    1.37
  -2  -6 -11   -0.60    1.28
  -2  -6 -11    2.70    1.42
   2   6 -11    2.34    1.75
  -2   6 -11    0.37    1.31
  -2   6 -11    0.94    1.86
   2  -6 -11    0.52    1.44
   4   6 -11    1.11    2.01
  -4  -6 -11    0.65    0.85
  -4   6 -11    1.26    1.24
   4  -6 -11    1.95    1.78
  -1  -7 -11    5.08    1.79
   1   7 -11    0.79    1.67
  -1  -7 -11   -1.08    1.82
   1  -7 -11   -0.32    1.47
  -1   7 -11    3.91    1.78
  -3  -7 -11   -1.26    1.11
   3   7 -11   -1.92    1.87
  -3   7 -11   -1.91    1.41
   3  -7 -11    1.26    1.75
   0  -8 -11    5.04    1.81
   0   8 -11    4.64    1.84
   2   8 -11    1.78    2.01
  -2  -8 -11    1.64    1.50
  -2   8 -11    4.37    1.77
   2  -8 -11    3.31    1.77
  -1  -9 -11   -1.27    1.44
   1   9 -11    1.49    1.70
   1  -9 -11   -2.27    1.46
  -1   9 -11   -3.32    1.53
   0  10 -11    4.63    1.82
   0 -10 -11   -0.82    1.70
   0   0   0    0.00    0.00
;
_shelx_hkl_checksum              43880
loop_
_space_group_symop_operation_xyz
'x, y, z'
'-x, -y+1/2, z+1/2'
'-x, y+1/2, -z+1/2'
'x, -y, -z'
'x+1/2, y+1/2, z'
'-x+1/2, -y+1, z+1/2'
'-x+1/2, y+1, -z+1/2'
'x+1/2, -y+1/2, -z'
'-x, -y, -z'
'x, y-1/2, -z-1/2'
'x, -y-1/2, z-1/2'
'-x, y, z'
'-x+1/2, -y+1/2, -z'
'x+1/2, y, -z-1/2'
'x+1/2, -y, z-1/2'
'-x+1/2, y+1/2, z'
loop_
_atom_site_type_symbol
_atom_site_label
_atom_site_fract_x
_atom_site_fract_y
_atom_site_fract_z
_atom_site_U_iso_or_equiv
_atom_site_adp_type
_atom_site_calc_flag
_atom_site_refinement_flags_adp
_atom_site_refinement_flags_occupancy
_atom_site_refinement_flags_posn
_atom_site_occupancy
_atom_site_disorder_assembly
_atom_site_disorder_group
C C1 0.5 0.6298(9) 0.7297(18) 0.057(5) Uani d T P S 1 . .
H H1C 0.5 0.666626 0.803827 0.085 Uiso calc U P R 1 . .
H H1D 0.411328 0.602489 0.745403 0.085 Uiso calc U P R 0.5 . .
H H1E 0.588672 0.602489 0.745403 0.085 Uiso calc U P R 0.5 . .
I I1 0.23966(10) 0.5 0.5 0.0368(2) Uani d T P S 1 . .
I I2 0.75 0.69985(5) 0.25 0.0492(3) Uani d T P S 1 . .
N N1 0.5 0.6568(7) 0.5696(15) 0.056(4) Uani d T P S 1 . .
H H1A 0.580587 0.683681 0.562763 0.067 Uiso calc U P R 0.5 . .
H H1B 0.419413 0.683681 0.562763 0.067 Uiso calc U P R 0.5 . .
Pb Pb1 0.5 0.58753(3) 0.32927(6) 0.03533(16) Uani d T P S 1 . .
loop_
_atom_site_aniso_label
_atom_site_aniso_U_11
_atom_site_aniso_U_22
_atom_site_aniso_U_33
_atom_site_aniso_U_12
_atom_site_aniso_U_13
_atom_site_aniso_U_23
C1 0.078(12) 0.065(12) 0.026(7) 0 0 -0.001(8)
I1 0.0303(4) 0.0478(6) 0.0323(5) 0 0 0.0029(4)
I2 0.0410(5) 0.0359(6) 0.0707(7) 0 0.0178(5) 0
N1 0.083(10) 0.045(9) 0.038(8) 0 0 -0.001(6)
Pb1 0.0350(3) 0.0379(3) 0.0330(3) 0 0 0.0015(3)
loop_
_atom_type_symbol
_atom_type_description
_atom_type_scat_dispersion_real
_atom_type_scat_dispersion_imag
_atom_type_scat_source
C C 0.0033 0.0016 'International Tables Vol C Tables 4.2.6.8 and 6.1.1.4'
H H 0.0000 0.0000 'International Tables Vol C Tables 4.2.6.8 and 6.1.1.4'
I I -0.4742 1.8119 'International Tables Vol C Tables 4.2.6.8 and 6.1.1.4'
N N 0.0061 0.0033 'International Tables Vol C Tables 4.2.6.8 and 6.1.1.4'
Pb Pb -3.3944 10.1111 'International Tables Vol C Tables 4.2.6.8 and 6.1.1.4'
loop_
_geom_angle_atom_site_label_1
_geom_angle_atom_site_label_2
_geom_angle_atom_site_label_3
_geom_angle_site_symmetry_1
_geom_angle_site_symmetry_3
_geom_angle
_geom_angle_publ_flag
N1 C1 H1C . . 109.5 ?
N1 C1 H1D . . 109.5 ?
H1C C1 H1D . . 109.5 ?
N1 C1 H1E . . 109.5 ?
H1C C1 H1E . . 109.5 ?
H1D C1 H1E . . 109.5 ?
Pb1 I1 Pb1 . 9_666 88.75(3) ?
Pb1 I2 Pb1 14_556 . 92.43(3) ?
C1 N1 Pb1 . . 124.8(10) ?
C1 N1 H1A . . 106.1 ?
Pb1 N1 H1A . . 106.1 ?
C1 N1 H1B . . 106.1 ?
Pb1 N1 H1B . . 106.1 ?
H1A N1 H1B . . 106.3 ?
N1 Pb1 I2 . . 77.8(2) ?
N1 Pb1 I2 . 14_456 77.8(2) ?
I2 Pb1 I2 . 14_456 87.38(3) ?
N1 Pb1 I1 . 9_666 85.7(2) ?
I2 Pb1 I1 . 9_666 88.363(16) ?
I2 Pb1 I1 14_456 9_666 163.51(2) ?
N1 Pb1 I1 . . 85.7(2) ?
I2 Pb1 I1 . . 163.51(2) ?
I2 Pb1 I1 14_456 . 88.363(16) ?
I1 Pb1 I1 9_666 . 91.25(3) ?
loop_
_geom_bond_atom_site_label_1
_geom_bond_atom_site_label_2
_geom_bond_site_symmetry_2
_geom_bond_distance
_geom_bond_publ_flag
C1 N1 . 1.458(19) ?
C1 H1C . 0.96 ?
C1 H1D . 0.96 ?
C1 H1E . 0.96 ?
I1 Pb1 . 3.2197(7) ?
I1 Pb1 9_666 3.2197(7) ?
I2 Pb1 14_556 3.1993(8) ?
I2 Pb1 . 3.1994(8) ?
N1 Pb1 . 2.452(13) ?
N1 H1A . 0.89 ?
N1 H1B . 0.89 ?
