#------------------------------------------------------------------------------
#$Date: 2020-10-04 05:54:56 +0300 (Sun, 04 Oct 2020) $
#$Revision: 257018 $
#$URL: file:///home/coder/svn-repositories/cod/cif/4/51/73/4517360.cif $
#------------------------------------------------------------------------------
#
# This file is available in the Crystallography Open Database (COD),
# http://www.crystallography.net/
#
# All data on this site have been placed in the public domain by the
# contributors.
#
data_4517360
loop_
_publ_author_name
'Ren, Xinkun'
'Chandgude, Ajay L.'
'Fasan, Rudi'
_publ_section_title
;
 Highly Stereoselective Synthesis of Fused Cyclopropane-\g-Lactams via
 Biocatalytic Iron-Catalyzed Intramolecular Cyclopropanation
;
_journal_name_full               'ACS Catalysis'
_journal_page_first              2308
_journal_page_last               2313
_journal_paper_doi               10.1021/acscatal.9b05383
_journal_year                    2020
_chemical_absolute_configuration ad
_chemical_formula_moiety         'C12 H13 N O'
_chemical_formula_sum            'C12 H13 N O'
_chemical_formula_weight         187.23
_space_group_crystal_system      monoclinic
_space_group_IT_number           4
_space_group_name_Hall           'P 2yb'
_space_group_name_H-M_alt        'P 1 21 1'
_atom_sites_solution_hydrogens   geom
_atom_sites_solution_primary     dual
_atom_sites_solution_secondary   difmap
_audit_creation_date             2019-08-22
_audit_creation_method
;
Olex2 1.3-ac4
(compiled 2019.04.23 svn.r3594 for Rigaku Oxford Diffraction, GUI svn.r5739)
;
_cell_angle_alpha                90
_cell_angle_beta                 90.739(3)
_cell_angle_gamma                90
_cell_formula_units_Z            2
_cell_length_a                   5.6803(2)
_cell_length_b                   9.2798(3)
_cell_length_c                   9.3092(3)
_cell_measurement_reflns_used    3711
_cell_measurement_temperature    100.00(10)
_cell_measurement_theta_max      77.2080
_cell_measurement_theta_min      4.7830
_cell_volume                     490.67(3)
_computing_cell_refinement       'CrysAlisPro 1.171.40.58a (Rigaku OD, 2019)'
_computing_data_collection       'CrysAlisPro 1.171.40.58a (Rigaku OD, 2019)'
_computing_data_reduction        'CrysAlisPro 1.171.40.58a (Rigaku OD, 2019)'
_computing_molecular_graphics    'Olex2 (Dolomanov et al., 2009)'
_computing_publication_material  'Olex2 (Dolomanov et al., 2009)'
_computing_structure_refinement  'ShelXL (Sheldrick, 2015b)'
_computing_structure_solution    'ShelXT (Sheldrick, 2015a)'
_diffrn_ambient_environment      N~2~
_diffrn_ambient_temperature      100.00(10)
_diffrn_detector                 'Hybrid Pixel Array Detector'
_diffrn_detector_area_resol_mean 10.0000
_diffrn_detector_type            HyPix
_diffrn_measured_fraction_theta_full 0.999
_diffrn_measured_fraction_theta_max 0.988
_diffrn_measurement_details
;
List of Runs (angles in degrees, time in seconds):

  # Type    Start    End  Width  t~exp~   \w     \q     \k     \f   Frames
--------------------------------------------------------------------------
  1  \w    -83.00 -47.00   0.50    0.10    --  -49.75 -30.00 -91.00   72
  2  \w    -75.00 -18.00   0.50    0.10    --  -49.75  98.00-102.00  114
  3  \w    -20.00   5.00   0.50    0.10    --   49.75 -30.00 -91.00   50
  4  \w     58.00  83.00   0.50    0.10    --   49.75  30.00  68.00   50
  5  \w   -143.00-118.00   0.50    0.39    --  -84.25-110.00  61.00   50
  6  \w    -72.00 -47.00   0.50    0.39    --  -84.25 110.00 157.00   50
  7  \w   -145.00-120.00   0.50    0.39    --  -84.25 -98.00 150.00   50
  8  \w     51.00  98.00   0.50    0.39    --  105.75 -98.00 150.00   94
  9  \w    108.00 158.00   0.50    0.39    --  105.75 110.00 157.00  100
 10  \w    111.00 176.00   0.50    0.39    --  105.75  30.00  68.00  130
 11  \w    122.00 147.00   0.50    0.39    --  105.75  98.00-102.00   50
 12  \w     43.00  70.00   0.50    0.10    --   49.75  57.00-180.00   54
 13  \w     43.00  80.00   0.50    0.10    --   49.75  38.00 150.00   74
 14  \w     41.00  75.00   0.50    0.10    --   49.75  57.00-150.00   68
 15  \w    -97.00 -72.00   0.50    0.39    --  -84.25 -61.00-180.00   50
 16  \w    -99.00 -72.00   0.50    0.39    --  -84.25 -58.00 165.36   54
 17  \w    -88.00 -63.00   0.50    0.39    --  -84.25 -77.00-180.00   50
 18  \w   -104.00 -75.00   0.50    0.39    --  -84.25 -61.00 150.00   58
 19  \w   -151.00-125.00   0.50    0.39    --  -84.25 -30.00 150.00   52
 20  \w     68.00  96.00   0.50    0.39    --  105.75-125.00 150.00   56
 21  \w     56.00  81.00   0.50    0.39    --  105.75 -77.00 -60.00   50
 22  \w     36.00  70.00   0.50    0.39    --  105.75 -61.00  30.00   68
 23  \w     90.00 122.00   0.50    0.39    --  105.75 -77.00 -60.00   64
 24  \w     95.00 133.00   0.50    0.39    --  105.75  61.00-180.00   76
 25  \w     94.00 125.00   0.50    0.39    --  105.75  77.00 150.00   62
 26  \w     94.00 142.00   0.50    0.39    --  105.75  61.00 150.00   96
 27  \w     90.00 130.00   0.50    0.39    --  105.75  77.00 120.00   80
 28  \w     43.00  69.00   0.50    0.39    --  105.75 -61.00-150.00   52
 29  \w     25.00  52.00   0.50    0.10    --   49.87-109.00  61.00   54
 30  \w     -3.00  24.00   0.50    0.10    --  -49.87  19.00  90.00   54
 31  \w     -5.00  20.00   0.50    0.10    --  -49.87  19.00   0.00   50
 32  \w   -112.00 -83.00   0.50    0.10    --  -49.87-125.00  30.00   58
 33  \w     -4.00  22.00   0.50    0.10    --  -49.87  19.00 120.00   52
 34  \w    -15.00  13.00   0.50    0.10    --   49.87 -19.00 150.00   56
 35  \w     56.00  81.00   0.50    0.10    --   49.87-109.00  61.00   50
 36  \w     46.00  72.00   0.50    0.10    --   49.87-125.00-180.00   52
 37  \w    -20.00   6.00   0.50    0.10    --   49.87 -19.00   0.00   52
 38  \w     37.00  67.00   0.50    0.39    --  105.75 -61.00  60.00   60
 39  \w     35.00  78.00   0.50    0.39    --  105.75-125.00-150.00   86
 40  \w     67.00 104.00   0.50    0.39    --  105.75 -94.00 -60.00   74
 41  \w     80.00 109.00   0.50    0.39    --  105.75-125.00-150.00   58
 42  \w     57.00 104.00   0.50    0.39    --  105.75 -94.00  90.00   94
 43  \w     72.00 105.00   0.50    0.39    --  105.75 -94.00-120.00   66
 44  \w    135.00 176.00   0.50    0.39    --  105.75  45.00-120.00   82
 45  \w     39.00  65.00   0.50    0.39    --  105.75-125.00-180.00   52
 46  \w     34.00  59.00   0.50    0.39    --  105.75-125.00  30.00   50
 47  \w     61.00  87.00   0.50    0.39    --  105.75 -94.00  60.00   52
 48  \w     35.00  64.00   0.50    0.39    --  105.75 -94.00 -60.00   58
 49  \w     79.00 106.00   0.50    0.39    --  105.75-125.00  30.00   54
 50  \w     35.00  64.00   0.50    0.39    --  105.75 -61.00  90.00   58
 51  \w     77.00 111.00   0.50    0.39    --  105.75-125.00-180.00   68
 52  \w     65.00 107.00   0.50    0.39    --  105.75-109.00  61.00   84
 53  \w     97.00 144.00   0.50    0.39    --  105.75  77.00-180.00   94
 54  \w     40.00  66.00   0.50    0.39    --  105.75 -61.00-120.00   52
 55  \w    141.00 166.00   0.50    0.39    --  105.75  30.00 -90.00   50
 56  \w    134.00 172.00   0.50    0.39    --  105.75  45.00   0.00   76
 57  \w     97.00 126.00   0.50    0.39    --  105.75  45.00   0.00   58
 58  \w     34.00  59.00   0.50    0.39    --  105.75 -61.00   0.00   50
 59  \w    101.00 137.00   0.50    0.39    --  105.75  30.00 -90.00   72
 60  \w     98.00 127.00   0.50    0.39    --  105.75  45.00-120.00   58
;
_diffrn_measurement_device       'four-circle diffractometer'
_diffrn_measurement_device_type  'XtaLAB Synergy, Dualflex, HyPix'
_diffrn_measurement_method       '\w scans'
_diffrn_orient_matrix_type
'CrysAlisPro convention (1999,Acta A55,543-557)'
_diffrn_orient_matrix_UB_11      -0.1085838000
_diffrn_orient_matrix_UB_12      -0.0535869000
_diffrn_orient_matrix_UB_13      -0.1428644000
_diffrn_orient_matrix_UB_21      0.0203034000
_diffrn_orient_matrix_UB_22      0.1529103000
_diffrn_orient_matrix_UB_23      -0.0628771000
_diffrn_orient_matrix_UB_31      0.2477946000
_diffrn_orient_matrix_UB_32      -0.0360347000
_diffrn_orient_matrix_UB_33      -0.0549801000
_diffrn_radiation_monochromator  mirror
_diffrn_radiation_probe          x-ray
_diffrn_radiation_type           'Cu K\a'
_diffrn_radiation_wavelength     1.54184
_diffrn_reflns_av_R_equivalents  0.0666
_diffrn_reflns_av_unetI/netI     0.0588
_diffrn_reflns_Laue_measured_fraction_full 0.999
_diffrn_reflns_Laue_measured_fraction_max 0.988
_diffrn_reflns_limit_h_max       7
_diffrn_reflns_limit_h_min       -6
_diffrn_reflns_limit_k_max       11
_diffrn_reflns_limit_k_min       -11
_diffrn_reflns_limit_l_max       11
_diffrn_reflns_limit_l_min       -11
_diffrn_reflns_number            7207
_diffrn_reflns_point_group_measured_fraction_full 0.994
_diffrn_reflns_point_group_measured_fraction_max 0.974
_diffrn_reflns_theta_full        74.504
_diffrn_reflns_theta_max         77.848
_diffrn_reflns_theta_min         4.751
_diffrn_source                   'micro-focus sealed X-ray tube'
_diffrn_source_type              'PhotonJet (Cu) X-ray Source'
_exptl_absorpt_coefficient_mu    0.638
_exptl_absorpt_correction_T_max  1.00000
_exptl_absorpt_correction_T_min  0.61067
_exptl_absorpt_correction_type   multi-scan
_exptl_absorpt_process_details
;
CrysAlisPro 1.171.40.58a (Rigaku Oxford Diffraction, 2019)
Empirical absorption correction using spherical harmonics,
 implemented in SCALE3 ABSPACK scaling algorithm.
;
_exptl_crystal_colour            colourless
_exptl_crystal_colour_primary    colourless
_exptl_crystal_density_diffrn    1.267
_exptl_crystal_description       needle
_exptl_crystal_F_000             200
_exptl_crystal_size_max          0.145
_exptl_crystal_size_mid          0.066
_exptl_crystal_size_min          0.035
_refine_diff_density_max         0.156
_refine_diff_density_min         -0.220
_refine_diff_density_rms         0.042
_refine_ls_abs_structure_details
;
 Flack x determined using 778 quotients [(I+)-(I-)]/[(I+)+(I-)]
 (Parsons, Flack and Wagner, Acta Cryst. B69 (2013) 249-259).
;
_refine_ls_abs_structure_Flack   -0.3(3)
_refine_ls_extinction_method     none
_refine_ls_goodness_of_fit_ref   1.057
_refine_ls_hydrogen_treatment    constr
_refine_ls_matrix_type           full
_refine_ls_number_parameters     128
_refine_ls_number_reflns         2033
_refine_ls_number_restraints     1
_refine_ls_restrained_S_all      1.056
_refine_ls_R_factor_all          0.0482
_refine_ls_R_factor_gt           0.0438
_refine_ls_shift/su_max          0.000
_refine_ls_shift/su_mean         0.000
_refine_ls_structure_factor_coef Fsqd
_refine_ls_weighting_details
'w=1/[\s^2^(Fo^2^)+(0.0664P)^2^+0.0396P] where P=(Fo^2^+2Fc^2^)/3'
_refine_ls_weighting_scheme      calc
_refine_ls_wR_factor_gt          0.1144
_refine_ls_wR_factor_ref         0.1183
_reflns_Friedel_coverage         0.853
_reflns_Friedel_fraction_full    0.988
_reflns_Friedel_fraction_max     0.957
_reflns_number_gt                1854
_reflns_number_total             2033
_reflns_threshold_expression     'I > 2\s(I)'
_cod_data_source_file            cs9b05383_si_002.cif
_cod_data_source_block           fasac13
_cod_depositor_comments
'Adding full bibliography for 4517359--4517360.cif.'
_cod_database_code               4517360
_shelx_shelxl_version_number     2018/3
_shelx_space_group_comment
;
The symmetry employed for this shelxl refinement is uniquely defined
by the following loop, which should always be used as a source of
symmetry information in preference to the above space-group names.
They are only intended as comments.
;
_shelx_estimated_absorpt_t_max   0.978
_shelx_estimated_absorpt_t_min   0.913
_diffrn_oxdiff_digest_frames
;
010cda9f0a4ba1ba8acc932fe7dd8e8c9f01874095a
;
_diffrn_oxdiff_digest_hkl
;
018bbef581843999c6ae73f0ec2cee76346d83
;
_reflns_odcompleteness_completeness 99.91
_reflns_odcompleteness_iscentric 1
_reflns_odcompleteness_theta     74.33
_olex2_refinement_description
;
1. Fixed Uiso
 At 1.2 times of:
  All C(H) groups, All C(H,H) groups
 At 1.5 times of:
  All C(H,H,H) groups
2.a Ternary CH refined with riding coordinates:
 C1(H1), C2(H2), C3(H3)
2.b Secondary CH2 refined with riding coordinates:
 C4(H4A,H4B)
2.c Aromatic/amide H refined with riding coordinates:
 C7(H7), C8(H8), C9(H9), C10(H10), C11(H11)
2.d Idealised Me refined as rotating group:
 C12(H12A,H12B,H12C)
;
_shelx_res_file
;
TITL fasac13_a.res in P2(1)
    fasac13.res
    created by SHELXL-2018/3 at 10:39:01 on 22-Aug-2019
REM Old TITL FASAC13 in P2(1)
REM SHELXT solution in P2(1): R1 0.101, Rweak 0.042, Alpha 0.002
REM <I/s> 0.631 for 6 systematic absences, Orientation as input
REM Flack x = -0.133 ( 0.302 ) from 801 Parsons' quotients
REM Formula found by SHELXT: C12 N O
CELL 1.54184 5.6803 9.2798 9.3092 90 90.739 90
ZERR 2 0.0002 0.0003 0.0003 0 0.003 0
LATT -1
SYMM -X,0.5+Y,-Z
SFAC C H N O
UNIT 24 26 2 2

L.S. 12
PLAN  12
SIZE 0.145 0.066 0.035
BOND $H
list 4
CONF
fmap 2
acta 149.008
REM <olex2.extras>
REM <HklSrc "%.\\FASAC13.hkl">
REM </olex2.extras>

WGHT    0.066400    0.039600
FVAR       1.63134
O1    4    0.934065    0.749862    0.590265    11.00000    0.06797    0.03053 =
         0.03897   -0.00660    0.01012   -0.02119
N1    3    0.804743    0.583923    0.424226    11.00000    0.02840    0.02218 =
         0.02678   -0.00073    0.00041   -0.00052
C1    1    0.583603    0.450146    0.671469    11.00000    0.02171    0.02213 =
         0.03010   -0.00050   -0.00127    0.00090
AFIX  13
H1    2    0.735187    0.400837    0.662054    11.00000   -1.20000
AFIX   0
C2    1    0.579420    0.607227    0.625957    11.00000    0.03657    0.02271 =
         0.03163    0.00307    0.00457    0.00617
AFIX  13
H2    2    0.481740    0.676503    0.677738    11.00000   -1.20000
AFIX   0
C3    1    0.465777    0.494290    0.533341    11.00000    0.02220    0.04428 =
         0.03015    0.00112   -0.00046   -0.00248
AFIX  13
H3    2    0.293672    0.490696    0.525425    11.00000   -1.20000
AFIX   0
C4    1    0.611232    0.484565    0.398183    11.00000    0.02825    0.04749 =
         0.02753   -0.00235   -0.00212   -0.01102
AFIX  23
H4A   2    0.668884    0.387288    0.383911    11.00000   -1.20000
H4B   2    0.519402    0.513319    0.314416    11.00000   -1.20000
AFIX   0
C5    1    0.792352    0.657692    0.548567    11.00000    0.04022    0.02012 =
         0.02832    0.00120    0.00140   -0.00069
C6    1    0.438253    0.404693    0.795296    11.00000    0.02424    0.02141 =
         0.02652   -0.00225   -0.00446   -0.00193
C7    1    0.515374    0.292445    0.883742    11.00000    0.02595    0.02477 =
         0.03206    0.00054   -0.00124    0.00119
AFIX  43
H7    2    0.655329    0.245130    0.863302    11.00000   -1.20000
AFIX   0
C8    1    0.385466    0.250589    1.001958    11.00000    0.03658    0.02669 =
         0.03220    0.00433   -0.00341    0.00109
AFIX  43
H8    2    0.439380    0.175311    1.059543    11.00000   -1.20000
AFIX   0
C9    1    0.177103    0.319174    1.035346    11.00000    0.03216    0.03176 =
         0.02612    0.00065    0.00334   -0.00445
AFIX  43
H9    2    0.091777    0.291364    1.115306    11.00000   -1.20000
AFIX   0
C10   1    0.097281    0.430533    0.947233    11.00000    0.02637    0.02781 =
         0.03489   -0.00501    0.00113   -0.00063
AFIX  43
H10   2   -0.042556    0.477562    0.968561    11.00000   -1.20000
AFIX   0
C11   1    0.224090    0.471961    0.828122    11.00000    0.02441    0.02729 =
         0.03193   -0.00078   -0.00227    0.00051
AFIX  43
H11   2    0.166773    0.545210    0.769142    11.00000   -1.20000
AFIX   0
C12   1    0.988566    0.603407    0.319865    11.00000    0.02802    0.02899 =
         0.03054    0.00309    0.00063    0.00264
AFIX 137
H12A  2    1.056021    0.511572    0.296729    11.00000   -1.50000
H12B  2    1.108495    0.665294    0.359208    11.00000   -1.50000
H12C  2    0.923161    0.646285    0.234409    11.00000   -1.50000
AFIX   0
HKLF 4




REM  fasac13_a.res in P2(1)
REM wR2 = 0.1183, GooF = S = 1.057, Restrained GooF = 1.056 for all data
REM R1 = 0.0438 for 1854 Fo > 4sig(Fo) and 0.0482 for all 2033 data
REM 128 parameters refined using 1 restraints

END

WGHT      0.0657      0.0410

REM Highest difference peak  0.156,  deepest hole -0.220,  1-sigma level  0.042
Q1    1   0.5086  0.4963  0.4532  11.00000  0.05    0.16
Q2    1   0.3300  0.4453  0.8157  11.00000  0.05    0.16
Q3    1   0.8635  0.7574  0.6801  11.00000  0.05    0.16
Q4    1   0.7478  0.1461  1.0088  11.00000  0.05    0.15
Q5    1   0.1851  0.4605  0.8993  11.00000  0.05    0.13
Q6    1   0.4155  0.1068  0.9906  11.00000  0.05    0.13
Q7    1   0.2392  0.4882  0.7010  11.00000  0.05    0.13
Q8    1   0.4791  0.2972  0.9704  11.00000  0.05    0.12
Q9    1   1.1854  0.6483  0.4062  11.00000  0.05    0.12
Q10   1   0.8646  0.1454  0.9614  11.00000  0.05    0.12
Q11   1   0.5338  0.4471  0.7534  11.00000  0.05    0.12
Q12   1   0.8756  0.5967  0.3596  11.00000  0.05    0.12
;
_shelx_res_checksum              81384
_shelx_hkl_file
;
   0 -11   0    2.34    1.49
   0 -11   0   -0.72    2.61
   0 -11   1   23.48    3.41
   0 -11  -1   18.49    3.03
   0 -11   2   24.29    4.04
   0 -11   3   13.29    2.93
   0 -11   4   38.83    4.13
   0 -10   0   20.56    4.12
   0 -10   0   22.11    5.35
   0 -10   1   48.28    6.31
   0 -10  -1   48.60    6.36
   0 -10  -2   32.83    4.86
   0 -10   2   23.62    4.29
   0 -10  -2   25.62    5.21
   0 -10   2   40.59    6.37
   0 -10  -3   95.52    8.44
   0 -10   3   98.60   10.21
   0 -10   3   95.49    8.48
   0 -10   4   29.95    5.31
   0 -10   5    1.36    2.30
   0 -10   6    3.18    1.72
   0  -9   0   -2.57    4.89
   0  -9   0   -4.41    4.43
   0  -9   1   75.50   15.98
   0  -9  -1   52.84    8.31
   0  -9   1   53.78    8.56
   0  -9   2  121.97   13.57
   0  -9   2  163.04   24.03
   0  -9  -2  125.15   12.03
   0  -9  -3  108.89    9.89
   0  -9   3   91.16    9.59
   0  -9   3  121.69   12.70
   0  -9   4   67.12    7.04
   0  -9   4   70.93    9.34
   0  -9  -5   35.91    5.19
   0  -9   5   44.10    6.82
   0  -9  -6   21.66    3.70
   0  -9   6   20.92    4.69
   0  -9   7   66.84    6.76
   0  -8   0   60.22    9.51
   0  -8   0   74.42   17.11
   0  -8   0   73.06    9.64
   0  -8  -1  264.40   20.63
   0  -8  -1  282.59   22.27
   0  -8   1  267.55   22.31
   0  -8   1  247.42   22.33
   0  -8  -1  222.78   31.70
   0  -8  -1  278.82   22.92
   0  -8   1  260.28   33.79
   0  -8   2    3.98    4.47
   0  -8  -2    5.76    4.11
   0  -8  -2    6.34    4.86
   0  -8  -2    8.70    4.30
   0  -8   2    5.43    6.68
   0  -8  -3  116.42   12.80
   0  -8  -3   94.71   11.67
   0  -8   3  111.78   12.85
   0  -8  -3  106.42   12.03
   0  -8   4   63.37    7.08
   0  -8   4   52.56    9.04
   0  -8  -4   47.23    6.16
   0  -8  -4   79.04   10.00
   0  -8  -4   57.75    8.69
   0  -8  -4   47.37    7.18
   0  -8   5   89.98   11.82
   0  -8  -5  106.29   11.54
   0  -8  -5  115.91   11.28
   0  -8  -6   30.05    5.58
   0  -8   6   23.30    5.89
   0  -8   7   17.39    4.77
   0  -8  -7   17.28    4.05
   0  -8   8   47.57    5.68
   0  -8  -8   44.92    5.15
   0  -7   0    5.40    5.23
   0  -7   0    2.25    6.06
   0  -7   0   -0.75    4.65
   0  -7   0    3.99    3.66
   0  -7   0    1.55    3.72
   0  -7   1   40.89    7.20
   0  -7  -1   47.96    8.02
   0  -7  -1   43.59    7.28
   0  -7  -1   41.02    6.45
   0  -7  -1   38.41   12.16
   0  -7   1   58.22   12.63
   0  -7   2   88.84   11.36
   0  -7  -2  109.59   11.27
   0  -7   2  101.05   17.65
   0  -7  -2  105.12   11.44
   0  -7  -2   86.71   11.61
   0  -7  -2   96.66   11.63
   0  -7   3   21.68    9.71
   0  -7   3   34.02    7.15
   0  -7  -3   40.20    7.18
   0  -7  -3   30.19    7.16
   0  -7  -4  212.74   18.08
   0  -7   4  145.42   23.63
   0  -7  -4  218.28   18.55
   0  -7   4  166.64   17.62
   0  -7  -5  166.55   14.51
   0  -7   5  175.43   17.18
   0  -7  -5  215.58   18.25
   0  -7  -5  192.17   16.52
   0  -7  -6   82.74    9.14
   0  -7   6   86.35   11.44
   0  -7  -6   78.50    9.63
   0  -7   7   80.59   10.41
   0  -7   8    1.61    3.06
   0  -7  -8    0.44    2.87
   0  -7  -9    4.38    2.07
   0  -7   9    3.32    2.40
   0  -6   0 1769.05  119.16
   0  -6   0 1921.83  107.86
   0  -6   0 1728.18  106.54
   0  -6   0 1649.21  115.33
   0  -6   1    3.26    5.06
   0  -6  -1    1.87    6.16
   0  -6   1    0.58    2.84
   0  -6  -1    0.69    3.78
   0  -6  -1    0.55    3.04
   0  -6  -2   49.14   12.20
   0  -6  -2   36.00    6.93
   0  -6  -2   30.63    5.73
   0  -6   2   25.53    9.83
   0  -6  -2   33.95    6.55
   0  -6   2   36.70    6.66
   0  -6  -2   45.85    6.33
   0  -6  -3  273.78   21.69
   0  -6  -3  300.00   21.76
   0  -6   3  267.87   22.05
   0  -6  -3  220.05   33.95
   0  -6  -3  257.38   21.14
   0  -6  -4  172.59   14.65
   0  -6  -4  181.03   16.05
   0  -6  -4  172.56   16.28
   0  -6   4  164.00   16.25
   0  -6  -4  169.67   29.79
   0  -6  -5  151.89   15.76
   0  -6  -5  210.93   18.26
   0  -6  -5  151.04   28.32
   0  -6  -5  195.04   15.33
   0  -6  -5  176.09   15.69
   0  -6   5  186.34   17.80
   0  -6  -6   49.55    7.61
   0  -6  -6   36.27   14.30
   0  -6  -6   48.73    7.44
   0  -6   6   51.22    9.17
   0  -6   7    0.79    3.71
   0  -6  -7    0.61    3.23
   0  -6  -8    3.80    3.39
   0  -6   8   10.36    4.69
   0  -6   9    8.70    3.95
   0  -6  -9   22.89    4.17
   0  -6  10   53.49    5.67
   0  -5   0    1.21    5.33
   0  -5   0    0.48    3.32
   0  -5   1  247.29   24.60
   0  -5  -1  214.52   17.56
   0  -5  -1  222.77   24.58
   0  -5  -1  196.20   21.92
   0  -5   1  253.21   18.07
   0  -5  -2  114.46   17.09
   0  -5   3   63.92    8.38
   0  -5  -3   75.54   17.31
   0  -5  -3   50.92    7.36
   0  -5  -3   78.94    8.32
   0  -5  -4  105.80   10.08
   0  -5   4   85.32   12.08
   0  -5  -4  110.47    9.90
   0  -5  -4  104.87   11.10
   0  -5  -4  104.37   20.90
   0  -5   5    7.40    4.71
   0  -5  -5   16.53    4.44
   0  -5  -5    8.57    9.44
   0  -5  -5   13.76    4.10
   0  -5   6  729.33   50.48
   0  -5  -6  715.04   46.44
   0  -5  -6  732.51   47.14
   0  -5   7  284.55   25.18
   0  -5  -7  256.22   38.40
   0  -5  -7  265.60   21.70
   0  -5  -7  329.91   23.93
   0  -5  -8   46.89    7.71
   0  -5  -8   47.90    7.43
   0  -5  -9   22.79    4.66
   0  -5   9   26.59    6.03
   0  -5  10    8.52    3.35
   0  -4   0  504.16   32.14
   0  -4   0  493.05   37.28
   0  -4  -1   43.26    8.44
   0  -4  -1   43.25   12.01
   0  -4  -1   47.45    9.83
   0  -4  -1   46.62    6.18
   0  -4   1   51.58    6.22
   0  -4  -2  527.85   31.29
   0  -4  -2  411.68   29.03
   0  -4  -2  511.39   38.76
   0  -4  -3   59.26   14.31
   0  -4  -3   71.07    8.22
   0  -4  -4   40.31    6.38
   0  -4  -5   38.19    5.72
   0  -4  -5   29.38    6.23
   0  -4  -5   43.68    6.53
   0  -4   5   28.71    6.61
   0  -4   6   59.78    9.67
   0  -4  -6   52.64    5.85
   0  -4  -6   58.88    7.77
   0  -4  -6   64.03    8.56
   0  -4   7  198.54   20.84
   0  -4  -7  212.75   15.87
   0  -4  -7  219.36   17.99
   0  -4  -7  232.70   19.35
   0  -4  -8  106.41   21.78
   0  -4  -8  138.12   18.42
   0  -4  -8  136.75   12.81
   0  -4  -8  130.68   13.93
   0  -4   8  128.21   14.95
   0  -4  -8  109.25   10.17
   0  -4  -9   21.45    4.96
   0  -4  -9   14.84    3.22
   0  -4 -10   33.60    4.49
   0  -4  11    4.73    2.03
   0  -4 -11    2.26    1.92
   0  -3   0    3.45    3.94
   0  -3  -1 1893.87  112.47
   0  -3  -1 1780.43  110.78
   0  -3  -2  597.65   41.84
   0  -3  -2  561.81   37.40
   0  -3  -3  238.87   17.63
   0  -3  -3  242.76   17.39
   0  -3  -4  117.23   10.37
   0  -3  -5  177.82   14.21
   0  -3  -5  186.13   15.39
   0  -3  -5  160.55   13.65
   0  -3  -5  178.64   14.57
   0  -3   6   58.67    9.24
   0  -3  -6   61.79    8.04
   0  -3  -6   48.60    7.09
   0  -3  -6   53.64    7.10
   0  -3  -6   60.34    7.87
   0  -3  -7  633.45   41.98
   0  -3  -7  728.49   45.55
   0  -3   7  666.28   47.91
   0  -3  -7  754.75   44.71
   0  -3  -7  603.39   43.04
   0  -3  -7  727.41   46.16
   0  -3  -8   24.96    5.44
   0  -3  -8   31.34    5.14
   0  -3  -8   30.18    5.41
   0  -3  -8   33.43    7.82
   0  -3  -8   31.13    5.94
   0  -3   8   27.14    7.51
   0  -3  -9  201.30   15.42
   0  -3   9  187.14   19.04
   0  -3  -9  221.98   16.98
   0  -3 -10   97.69    8.38
   0  -3 -10   99.27    8.59
   0  -3 -11   37.28    5.38
   0  -2   0  753.65   49.12
   0  -2   0  711.30   45.88
   0  -2  -1 6320.21  352.09
   0  -2  -1 5932.70  354.20
   0  -2  -2  818.40   49.50
   0  -2  -3  153.16   13.17
   0  -2   3  158.61   17.54
   0  -2  -4   86.37    8.67
   0  -2   4  104.13   15.20
   0  -2  -5   23.14    5.00
   0  -2   5   26.24    9.70
   0  -2  -6  111.49   11.16
   0  -2  -6  121.77   11.38
   0  -2  -6  139.60   12.03
   0  -2   6  118.75   20.74
   0  -2   7  199.79   30.89
   0  -2  -7  267.28   19.97
   0  -2  -7  225.60   18.91
   0  -2  -8  159.22   13.49
   0  -2  -8  195.80   16.31
   0  -2   8  149.16   17.93
   0  -2   8  194.41   30.76
   0  -2  -8  163.80   14.40
   0  -2  -8  136.83   27.42
   0  -2  -8  166.24   15.07
   0  -2   9   65.17   10.70
   0  -2  -9   73.78    8.52
   0  -2  -9   71.37    7.88
   0  -2  -9   55.02    7.10
   0  -2 -10   14.61    3.28
   0  -2  10   12.51    4.64
   0  -2 -11   19.15    2.86
   0  -2 -11   13.61    4.17
   0  -1   0    0.37    2.62
   0  -1  -1 1188.98   69.48
   0  -1  -2 2425.62  140.63
   0  -1   3  849.65   58.50
   0  -1   4  196.13   21.14
   0  -1   4  200.89   23.09
   0  -1  -5  245.82   17.53
   0  -1  -5  204.66   16.29
   0  -1   5  275.70   27.93
   0  -1   6  124.95   20.35
   0  -1   6   79.38   10.69
   0  -1  -6   78.91    9.09
   0  -1  -6  108.85   10.29
   0  -1  -6   94.83    9.87
   0  -1  -6   98.78   10.06
   0  -1   7  261.77   25.42
   0  -1   7  348.80   40.09
   0  -1  -7  325.61   24.24
   0  -1  -7  319.98   24.84
   0  -1  -7  357.61   24.91
   0  -1   8  315.91   40.71
   0  -1  -8  319.64   24.30
   0  -1  -8  299.46   23.78
   0  -1  -8  299.25   21.71
   0  -1  -8  257.90   39.42
   0  -1  -9   72.75   18.91
   0  -1   9   92.17   21.36
   0  -1  -9   90.45   10.40
   0  -1  10  104.46   12.35
   0  -1 -10   94.77    9.90
   0  -1 -11    2.67    3.05
   0  -1 -11    1.47    1.92
   0   0  -1 1365.42   80.87
   0   0  -2 2385.76  142.22
   0   0   3  774.79   53.09
   0   0   4  353.10   32.01
   0   0   5 1011.91   69.48
   0   0  -5  877.78   54.66
   0   0  -6    3.02    2.72
   0   0  -6    1.59    3.08
   0   0  -6   12.71    8.83
   0   0  -6    1.59    3.13
   0   0   6    1.50    4.20
   0   0   6   11.04    8.74
   0   0  -6    1.65    2.77
   0   0   7   85.35   19.15
   0   0  -7   86.07   10.03
   0   0  -7   67.68    8.89
   0   0   7   63.12   10.94
   0   0  -7   93.75   20.78
   0   0  -7   87.53   10.02
   0   0  -8  156.13   14.67
   0   0   8  103.19   14.84
   0   0  -8  122.29   11.09
   0   0  -8  119.24   13.45
   0   0   8  148.93   26.35
   0   0  -8   89.00   24.49
   0   0  -9   37.38    7.16
   0   0   9   36.84   15.28
   0   0  -9   27.97    5.22
   0   0   9   29.45    8.20
   0   0  -9   39.48   13.20
   0   0 -10   13.04    3.48
   0   0 -10   12.91    4.25
   0   0 -10   13.90    5.50
   0   0 -11   21.71    4.65
   0   0 -11   25.70    3.69
   0   1   0   -0.53    1.84
   0   1  -1 1254.50   76.01
   0   1  -1 1258.43   76.18
   0   1  -2 2392.60  143.31
   0   1  -3  709.70   53.74
   0   1  -3  792.16   54.94
   0   1  -4  160.19   21.36
   0   1   5  233.50   27.30
   0   1   6   86.06   17.74
   0   1   7  291.49   25.76
   0   1  -7  284.84   21.73
   0   1   7  316.70   37.60
   0   1  -7  228.00   36.69
   0   1   8  294.53   27.06
   0   1  -8  254.97   21.39
   0   1   8  341.70   43.26
   0   1  -8  288.15   20.52
   0   1  -8  290.99   41.53
   0   1  -9  104.88   11.93
   0   1  -9   84.79   21.44
   0   1   9   84.96   22.21
   0   1   9  104.96   14.57
   0   1  -9  103.89    9.98
   0   1 -10  101.21    9.38
   0   1 -10  109.59   11.40
   0   1 -10   90.06   11.14
   0   1 -11    0.34    2.14
   0   1 -11    4.75    1.89
   0   1  11    2.69    2.57
   0   2   0  686.24   44.42
   0   2  -1 5987.20  339.29
   0   2  -2  773.59   54.37
   0   2  -2  787.90   55.07
   0   2  -3  144.44   18.91
   0   2  -3  164.46   19.75
   0   2  -4   72.12   15.23
   0   2  -4   74.75   15.55
   0   2  -5   21.19   10.79
   0   2  -5   37.36   12.41
   0   2  -6  134.48   12.42
   0   2  -6  107.55   11.22
   0   2  -6  115.13   11.77
   0   2   6  121.83   21.11
   0   2   7  283.31   35.11
   0   2  -7  226.30   19.10
   0   2  -7  207.57   19.10
   0   2  -7  260.67   20.48
   0   2  -7  217.54   18.59
   0   2  -8  198.04   16.92
   0   2   8  222.59   21.46
   0   2  -8  149.45   12.97
   0   2  -8  131.10   13.87
   0   2  -8  148.45   14.57
   0   2  -8  162.71   16.40
   0   2  -9   55.15    9.18
   0   2  -9   78.80   10.10
   0   2   9   58.15   18.78
   0   2  -9   66.47    7.46
   0   2   9   66.26   12.28
   0   2 -10    9.09    4.40
   0   2 -10   16.94    3.53
   0   2 -11   16.90    2.79
   0   2  11   16.57    4.14
   0   3   0   -1.67    5.59
   0   3  -1 1640.27   95.70
   0   3  -1 1905.98  104.60
   0   3  -2  648.98   50.05
   0   3  -3  256.50   28.26
   0   3  -4  124.95   21.97
   0   3  -5  210.95   15.54
   0   3  -5  149.38   26.53
   0   3  -5  153.83   14.21
   0   3  -6   52.91    7.53
   0   3  -6   41.70    7.08
   0   3  -6   46.47    7.13
   0   3  -6   49.01   16.66
   0   3   7  682.94   62.96
   0   3  -7  607.20   42.37
   0   3  -7  534.53   41.27
   0   3  -7  672.74   42.60
   0   3  -7  629.55   38.77
   0   3   8   21.37    8.96
   0   3  -8   21.39    6.04
   0   3  -8   20.24    5.96
   0   3  -8   31.13    4.71
   0   3  -8   27.62    6.92
   0   3  -9  235.53   18.52
   0   3  -9  188.63   14.68
   0   3  -9  181.42   16.76
   0   3   9  175.86   21.06
   0   3 -10  111.27   11.07
   0   3 -10   96.54    8.62
   0   3  10  113.82   13.51
   0   3 -11   19.72    2.45
   0   4   0  538.29   42.02
   0   4  -1   59.81   11.14
   0   4   1   52.63   10.81
   0   4  -2  451.10   28.60
   0   4  -3  106.30   19.63
   0   4  -4   44.74    7.30
   0   4  -4   20.05   12.51
   0   4  -5   28.37    5.15
   0   4  -5   38.80   15.96
   0   4  -5   21.26    5.96
   0   4  -6   46.61    5.38
   0   4  -6   59.29    9.13
   0   4  -6   59.34    8.02
   0   4  -7  200.25   19.28
   0   4  -7  175.42   34.48
   0   4  -7  205.52   15.48
   0   4   7  215.04   33.63
   0   4  -7  253.06   19.77
   0   4  -8  117.99   12.80
   0   4  -8  113.50    9.89
   0   4  -8  114.23   13.34
   0   4  -9    7.97    4.42
   0   4  -9    7.61    4.56
   0   4   9   12.37    7.94
   0   4  -9   13.08    2.96
   0   4  10   58.69    8.90
   0   4 -10   39.29    4.04
   0   5   0    1.56    5.68
   0   5   1  209.83   24.23
   0   5   2  113.67   17.84
   0   5  -3   59.82    8.60
   0   5  -3   61.40   16.94
   0   5  -4  121.80   24.64
   0   5  -5   19.12   12.62
   0   5  -5   14.64    4.15
   0   5  -5    3.34    5.47
   0   5  -6  660.48   43.85
   0   5  -6  665.08   71.68
   0   5  -6  641.04   45.93
   0   5  -7  222.18   41.23
   0   5  -7  343.72   24.68
   0   5  -7  273.63   25.25
   0   5  -8   73.14    9.35
   0   5  -8   55.91    9.36
   0   5   9   35.06    8.61
   0   5  -9   18.90    3.77
   0   5 -10    5.67    1.65
   0   5  10    7.15    4.40
   0   6   0 1871.75  125.20
   0   6   0 1831.49  111.38
   0   6  -1   -2.82    4.51
   0   6   1    6.16    7.14
   0   6   1   -4.13    3.71
   0   6  -1   -0.72    4.53
   0   6   2   45.68    7.69
   0   6  -2   38.12    7.77
   0   6  -2   56.01   16.67
   0   6   2   28.40   10.98
   0   6  -2   40.05    7.91
   0   6  -3  345.81   41.93
   0   6  -3  306.36   24.82
   0   6   3  293.47   34.40
   0   6   3  272.83   22.20
   0   6  -4  213.26   20.48
   0   6  -4  188.23   32.10
   0   6   4  245.11   31.48
   0   6   5  179.20   27.84
   0   6  -5  159.48   33.55
   0   6  -6   26.38   15.50
   0   6  -6   55.12   10.20
   0   6  -7   -3.59    5.66
   0   6  -7    4.45    5.15
   0   6  -7   -4.18    9.18
   0   6   7   -2.97    4.61
   0   6  -8    7.95    5.22
   0   6  -8    5.53    3.95
   0   6   9    5.56    5.46
   0   6  10   39.95    5.68
   0   7   0    5.87    4.70
   0   7   0    1.81    2.73
   0   7  -1   51.72    9.36
   0   7   1   54.68    9.18
   0   7   1   47.23   13.15
   0   7  -2  122.51   25.95
   0   7  -2   96.98   13.33
   0   7   2  134.92   22.56
   0   7   3   32.21    6.44
   0   7  -3   32.49    8.89
   0   7  -3   22.98    7.14
   0   7   3   32.62   12.79
   0   7  -4  196.08   20.28
   0   7   4  161.69   27.38
   0   7  -4  181.89   33.21
   0   7  -5  209.32   20.68
   0   7  -5  187.38   36.00
   0   7  -5  178.15   18.84
   0   7   5  200.18   30.18
   0   7  -6   75.94   21.24
   0   7   6   94.17   18.59
   0   7  -6   79.00   11.43
   0   7  -7   75.92   10.12
   0   7  -8   -0.43    2.88
   0   7  -9    3.65    1.63
   0   7   9    3.61    3.16
   0   8   0   66.15   10.93
   0   8   0   68.78    8.91
   0   8   1  239.63   33.32
   0   8  -1  270.50   24.15
   0   8   1  275.92   23.68
   0   8  -1  311.16   41.91
   0   8  -1  261.13   21.92
   0   8   2   14.11    9.31
   0   8   2   10.10    4.99
   0   8  -2    3.82    8.41
   0   8  -2    0.99    5.67
   0   8  -3  121.19   15.38
   0   8  -3  127.12   27.31
   0   8   3  120.08   12.79
   0   8   3  124.97   23.53
   0   8   4   53.34   15.41
   0   8  -5  115.62   14.25
   0   8  -6   34.27    7.47
   0   8  -7    7.26    3.76
   0   8  -8   39.83    5.06
   0   8   8   42.92    6.93
   0   9   0   10.81    6.86
   0   9   0    2.24    3.42
   0   9   0   -2.69    5.83
   0   9  -1   56.34    8.24
   0   9   1   57.25    8.95
   0   9  -1   48.75    9.86
   0   9  -2  113.49   12.96
   0   9   2  132.99   13.41
   0   9  -2  135.39   15.59
   0   9  -3   93.33   11.81
   0   9  -3  110.95   13.98
   0   9   3  107.40   11.07
   0   9  -4   66.97   10.51
   0   9  -4   48.12    8.48
   0   9  -5   48.20    7.58
   0   9  -6   19.30    5.25
   0   9  -6   20.07    4.64
   0   9  -7   46.05    5.58
   0  10   0   15.85    5.46
   0  10  -1   55.74    7.05
   0  10   1   65.95    8.44
   0  10  -2   36.46    5.72
   0  10  -2   36.47    7.50
   0  10   2   28.57    5.49
   0  10  -3   82.97    9.81
   0  10  -3  147.57   13.53
   0  10  -4   28.98    5.22
   0  10  -4   31.15    6.62
   0  10  -5    1.37    2.33
   0  10  -6    3.17    1.60
   0  11   0    0.36    2.42
   0  11   1   19.68    3.43
   0  11  -1   18.63    4.10
   0  11  -2   15.06    3.86
   0  11  -3   10.00    3.04
   0  11  -4   27.55    3.70
  -1 -11   3    4.61    1.85
   1 -11  -2  238.42   16.01
   1 -11  -1   28.89    4.61
   1 -11   0   20.50    4.52
   1 -11   1   50.80    6.73
   1 -11   3   13.38    2.39
   1 -10  -5   71.13    6.97
  -1 -10   5   81.59    7.47
  -1 -10   4  105.09    9.88
   1 -10  -3   71.26    7.79
  -1 -10   3   71.48    8.18
  -1 -10   3   52.89    6.01
   1 -10  -3   68.99    6.46
   1 -10  -2   17.77    3.70
   1 -10  -2   21.76    5.42
  -1 -10   2   29.03    5.51
   1 -10  -1   68.13    9.59
   1 -10  -1   61.03    7.13
  -1 -10   1   66.69    8.25
  -1 -10   0   60.51    7.73
   1 -10   0   48.03    6.34
   1 -10   0   60.51    7.78
   1 -10   0   53.41    8.08
   1 -10   1   50.47    7.22
   1 -10   1   48.56    7.75
   1 -10   1   44.26    6.03
   1 -10   2  107.97   10.32
   1 -10   2   88.58   10.29
   1 -10   2   90.46    8.73
   1 -10   3  175.99   13.53
   1 -10   3  143.37   11.61
  -1 -10  -3  138.00   11.26
   1 -10   3  156.95   13.60
   1 -10   4    4.58    3.10
   1 -10   4    7.44    2.77
   1 -10   5    0.27    2.01
  -1  -9   7   -0.24    1.67
  -1  -9   6   52.98    6.56
   1  -9  -6   47.26    5.87
  -1  -9   5   22.81    5.18
  -1  -9   4   18.52    5.11
   1  -9  -4   21.61    5.09
  -1  -9   3  158.35   14.97
   1  -9  -3  157.36   12.75
   1  -9  -3  135.95   14.62
   1  -9  -2   92.43   12.10
   1  -9  -2   78.47    8.85
  -1  -9   2  103.37   11.36
   1  -9  -1  153.02   15.94
  -1  -9   1  147.79   14.44
  -1  -9   1  153.18   22.64
   1  -9  -1  148.98   14.26
   1  -9  -1  122.05   12.28
   1  -9   0    6.51    4.13
  -1  -9   0    2.72    3.67
   1  -9   0   -0.92    5.15
   1  -9   0   -2.13    4.14
   1  -9   0    2.10    3.06
  -1  -9   0    4.79    5.27
  -1  -9   0   -0.50    2.51
   1  -9   0   12.43    6.11
  -1  -9  -1    4.56    3.78
   1  -9   1   13.69    4.83
   1  -9   1    3.71    4.46
   1  -9   1    3.12    2.94
  -1  -9  -1    8.63    4.20
   1  -9   1   17.62    7.83
   1  -9   1    8.59    5.79
  -1  -9  -2  146.29   13.63
   1  -9   2  108.10   11.51
  -1  -9  -2  150.47   14.38
   1  -9   2  162.33   14.79
  -1  -9  -3   -0.64    3.79
   1  -9   3    1.33    4.06
   1  -9   3    3.08    2.65
   1  -9   4    0.59    3.30
  -1  -9  -4    0.62    3.91
   1  -9   4    2.77    1.91
  -1  -9  -4    1.79    3.34
  -1  -9  -4    1.46    2.27
   1  -9   5    1.48    3.01
  -1  -9  -5    3.15    2.27
  -1  -9  -5   -0.50    3.34
  -1  -9  -6   15.57    3.13
   1  -9   6   17.27    3.87
   1  -9   7   16.87    2.97
  -1  -9  -7   12.11    2.41
  -1  -8   8   23.27    3.82
   1  -8  -7    4.17    2.65
  -1  -8   7    7.53    3.28
   1  -8  -7    0.78    2.59
  -1  -8   6   48.84    7.50
   1  -8  -6   36.98    6.08
  -1  -8   5   37.27    7.31
   1  -8  -5   37.62    6.03
  -1  -8   4  272.00   21.83
   1  -8  -4  247.76   18.99
   1  -8  -4  228.48   20.31
  -1  -8   4  204.98   28.23
   1  -8  -4  238.28   17.56
   1  -8  -3  145.19   13.10
   1  -8  -3  167.19   13.53
  -1  -8   3  168.77   15.92
   1  -8  -3  147.99   15.97
   1  -8  -3  153.22   22.47
  -1  -8   3  134.20   22.41
   1  -8  -2  181.94   18.53
  -1  -8   2  170.16   26.45
   1  -8  -2  180.95   16.29
  -1  -8   2  165.12   16.10
   1  -8  -2  151.23   14.02
  -1  -8   2  188.55   26.17
   1  -8  -1   43.80    6.50
   1  -8  -1   42.16    7.42
   1  -8  -1   39.50   11.70
  -1  -8   1   35.13   12.51
  -1  -8   1   31.43    6.13
  -1  -8   1   47.10   14.05
  -1  -8   1   39.30    7.46
   1  -8  -1   29.05    8.51
   1  -8   0   28.02    6.56
  -1  -8   0   22.23    9.94
   1  -8   0   23.39    7.44
   1  -8   0   27.95   10.95
  -1  -8   0   40.64    6.96
   1  -8   0   28.67    5.40
  -1  -8   0   35.82    6.25
  -1  -8   0   32.04    7.64
   1  -8   1  167.31   26.41
  -1  -8  -1  189.39   16.29
   1  -8   1  161.84   14.55
  -1  -8  -1  165.06   16.01
   1  -8   1  181.61   16.80
  -1  -8  -1  173.86   25.41
  -1  -8  -1  173.29   17.19
   1  -8   2  152.01   15.34
   1  -8   2  184.34   27.41
  -1  -8  -2  147.00   14.66
   1  -8   2  149.54   14.35
   1  -8   2  131.19   12.80
  -1  -8  -2  132.76   15.21
  -1  -8  -2  190.64   16.14
   1  -8   3   29.69    6.91
   1  -8   3   30.36    8.73
  -1  -8  -3   23.91    5.02
  -1  -8  -3   28.78    6.66
   1  -8   3   23.11    5.17
   1  -8   3   24.88    4.92
  -1  -8  -4  160.44   15.42
  -1  -8  -4  138.01   12.80
   1  -8   4  141.22   12.03
  -1  -8  -4  127.54   13.84
   1  -8   4  138.58   14.56
  -1  -8  -5   37.83    7.26
  -1  -8  -5   55.53    6.98
   1  -8   5   43.07    7.54
  -1  -8  -5   41.85    7.94
   1  -8   6   31.99    6.10
  -1  -8  -6   36.02    6.18
   1  -8   7   29.21    5.32
  -1  -8  -7   42.04    5.65
   1  -8   8   14.80    2.92
  -1  -7   9   62.96    6.21
  -1  -7   8   -1.95    2.98
   1  -7  -8    0.63    2.26
  -1  -7   7   56.20    8.46
   1  -7  -7   55.15    7.81
   1  -7  -7   59.70    7.98
   1  -7  -6   81.42    9.60
  -1  -7   6   45.55    8.46
   1  -7  -5   51.50    7.69
  -1  -7   5   42.38   12.31
  -1  -7   5   44.01    8.63
   1  -7  -5   48.08    7.00
   1  -7  -5   45.67    7.90
  -1  -7   4  128.43   23.39
   1  -7  -4  112.98   10.33
  -1  -7   4  131.60   14.15
   1  -7  -4  107.09   16.37
   1  -7  -4  141.99   13.16
   1  -7  -4  122.19   12.31
   1  -7  -4  131.17   14.08
  -1  -7   3   78.98   10.71
   1  -7  -3   76.37    9.83
   1  -7  -3   82.02    8.46
   1  -7  -3   72.43   11.89
   1  -7  -3   78.20   10.95
   1  -7  -3  103.85    9.93
  -1  -7   3   61.00   16.62
  -1  -7   2   49.78   14.83
   1  -7  -2   55.23    8.39
   1  -7  -2   60.64    7.74
   1  -7  -2   63.22    7.26
   1  -7  -2   60.49   10.52
  -1  -7   2   50.99    8.36
   1  -7  -2   55.18    8.41
  -1  -7   1   73.04    9.34
  -1  -7   1   61.39   14.56
  -1  -7   1   68.10   16.08
   1  -7  -1   59.36   10.37
   1  -7  -1   64.16   14.81
  -1  -7   1   68.85    9.67
   1  -7  -1   51.12    7.93
   1  -7   0   32.46    6.17
   1  -7   0   22.17    5.78
  -1  -7   0   26.74    5.87
   1  -7   0   29.21   10.60
  -1  -7   0   30.40    7.07
  -1  -7   0   35.57   11.57
  -1  -7   0   34.15   11.84
  -1  -7  -1  252.59   21.44
   1  -7   1  249.90   31.96
   1  -7   1  283.05   22.40
   1  -7   1  280.19   21.99
  -1  -7  -1  278.72   32.38
  -1  -7  -1  324.63   22.76
  -1  -7  -1  252.83   22.70
  -1  -7  -2   38.10    6.71
   1  -7   2   34.23    6.47
  -1  -7  -2   58.95    8.07
  -1  -7  -2   34.33    7.22
   1  -7   2   39.66    7.24
  -1  -7  -3   72.72    8.99
   1  -7   3   77.78   10.34
   1  -7   3   70.88    8.12
  -1  -7  -3   73.47    9.98
   1  -7   3   77.76    9.62
   1  -7   4  246.52   22.26
  -1  -7  -4  237.73   36.80
  -1  -7  -4  267.79   21.27
   1  -7   4  278.27   21.70
   1  -7   4  272.55   29.40
  -1  -7  -4  260.27   22.56
  -1  -7  -4  283.98   20.19
   1  -7   4  251.94   19.40
  -1  -7  -4  330.53   24.18
   1  -7   5  137.78   14.75
  -1  -7  -5  138.67   13.78
  -1  -7  -5  152.21   12.94
  -1  -7  -5  133.91   14.49
  -1  -7  -6   19.55    4.68
   1  -7   6   17.19    5.44
  -1  -7  -6   15.65    4.78
  -1  -7  -6   20.95    5.24
  -1  -7  -7   98.97    9.85
  -1  -7  -7   65.97    8.90
   1  -7   7   84.41   10.02
  -1  -7  -8   72.35    7.67
   1  -7   8   63.15    7.94
  -1  -7  -9   31.96    3.86
   1  -7   9   23.30    3.80
  -1  -6   9   22.37    4.73
  -1  -6   8  160.11   15.00
   1  -6  -8  142.29   13.54
   1  -6  -8  165.06   14.08
  -1  -6   7   13.36    5.77
   1  -6  -7   13.03    4.86
   1  -6  -6   71.56    9.69
  -1  -6   6   73.31   10.75
   1  -6  -5  388.94   27.19
   1  -6  -5  348.55   25.59
  -1  -6   5  361.11   28.18
   1  -6  -5  319.00   26.86
   1  -6  -4  248.43   18.11
   1  -6  -4  269.86   22.25
   1  -6  -4  237.83   20.00
  -1  -6   4  273.47   22.33
   1  -6  -4  305.40   21.30
   1  -6  -4  244.24   26.06
   1  -6  -4  262.87   20.71
   1  -6  -3   56.57    7.88
   1  -6  -3   51.83    9.75
  -1  -6   3   42.74    7.69
   1  -6  -3   60.20    7.51
   1  -6  -3   48.84    6.05
   1  -6  -3   54.04    7.07
   1  -6  -3   64.21    8.14
   1  -6  -2  108.12   10.65
   1  -6  -2  120.46   11.46
   1  -6  -2   99.15   12.75
  -1  -6   2  105.52   11.38
   1  -6  -2   98.00   10.52
   1  -6  -2  109.14    9.99
  -1  -6   2   99.84   18.74
  -1  -6   1  437.48   30.20
  -1  -6   1  407.60   40.77
   1  -6  -1  409.89   30.10
   1  -6  -1  375.53   38.46
   1  -6  -1  416.23   29.65
   1  -6  -1  445.41   30.39
  -1  -6   1  474.88   31.24
  -1  -6   0  114.70   18.42
  -1  -6   0  112.83   11.12
  -1  -6   0   79.62   16.57
  -1  -6   0  124.03   12.42
   1  -6   0  103.77   10.85
   1  -6   0  106.56   10.79
   1  -6   0  113.59   18.04
  -1  -6  -1  311.97   34.07
  -1  -6  -1  341.26   29.14
   1  -6   1  321.99   23.99
  -1  -6  -1  355.24   25.57
   1  -6   1  307.04   23.93
  -1  -6  -1  362.88   34.85
  -1  -6  -1  318.93   23.93
   1  -6   1  319.87   27.54
   1  -6   2  131.29   12.85
  -1  -6  -2  117.88   12.34
  -1  -6  -2  133.00   16.26
  -1  -6  -2  168.33   13.98
   1  -6   2  127.57   16.03
   1  -6   2  128.99   13.18
  -1  -6  -2  143.27   25.61
  -1  -6  -3   51.07    7.81
   1  -6   3   37.59    7.20
  -1  -6  -3   51.66    8.76
   1  -6   3   47.65    6.01
  -1  -6  -3   45.96   16.70
   1  -6   3   48.91    9.99
  -1  -6  -4  106.13   11.13
   1  -6   4  113.60   16.44
  -1  -6  -4  108.27   10.27
   1  -6   4   80.60   11.15
  -1  -6  -4   87.07   21.95
   1  -6   4   89.50    8.80
  -1  -6  -5   85.95   10.05
  -1  -6  -5   63.86    8.75
   1  -6   5   78.04   12.72
   1  -6   5   77.61   10.46
  -1  -6  -5   94.08   11.36
  -1  -6  -6  104.21   11.70
  -1  -6  -6  113.73   11.60
  -1  -6  -6   96.55   12.74
   1  -6   6   95.22   12.18
   1  -6   6  112.37   14.95
  -1  -6  -7  104.25   11.59
   1  -6   7   81.93   11.06
  -1  -6  -7  107.66   10.99
   1  -6   8   43.99    7.45
  -1  -6  -8   52.17    7.49
  -1  -6  -9   38.60    5.07
   1  -6   9   29.01    5.55
  -1  -5  10    8.34    2.91
   1  -5 -10   -0.97    2.23
   1  -5  -9   81.89    8.89
  -1  -5   9   95.12   10.51
   1  -5  -8   12.55    4.36
   1  -5  -8   11.72    4.39
   1  -5  -7   44.03    8.25
   1  -5  -7   51.48    8.19
   1  -5  -6  154.92   26.60
   1  -5  -6  173.56   15.94
   1  -5  -6  161.08   15.93
   1  -5  -6  176.72   15.44
   1  -5  -5  299.84   22.19
   1  -5  -5  302.93   37.13
   1  -5  -5  298.79   23.88
   1  -5  -5  292.69   21.75
   1  -5  -4   75.23    9.02
   1  -5  -4   85.25   10.39
   1  -5  -4  101.90   19.67
   1  -5  -4   76.79    6.98
   1  -5  -4   74.09    8.40
   1  -5  -4   64.07   11.14
   1  -5  -3   59.41   14.93
   1  -5  -3   37.33    6.21
   1  -5  -3   37.30    5.85
   1  -5  -3   37.36    5.84
  -1  -5   3   40.83    6.78
   1  -5  -3   41.19    7.90
   1  -5  -2  479.13   44.05
   1  -5  -2  530.87   35.72
  -1  -5   2  602.61   36.98
  -1  -5   1   87.29    9.47
   1  -5  -1   78.25    8.91
   1  -5  -1  116.30   16.01
  -1  -5   1  111.56   17.64
  -1  -5   0  315.46   31.87
  -1  -5   0  313.31   23.88
  -1  -5   0  361.29   25.29
  -1  -5  -1  784.54   59.74
   1  -5   1  706.54   53.22
  -1  -5  -1  884.68   52.41
  -1  -5  -1  832.85   66.69
  -1  -5  -1  807.54   61.68
  -1  -5  -2  854.82   69.05
  -1  -5  -2  831.38   57.51
  -1  -5  -2  883.79   63.17
   1  -5   2  762.76   57.06
  -1  -5  -3   59.68   11.00
  -1  -5  -3   70.97   16.73
   1  -5   3   75.60    9.03
  -1  -5  -3   75.94    9.84
   1  -5   3   68.26   10.63
   1  -5   4   28.03    3.98
  -1  -5  -4   33.24   12.63
   1  -5   4   22.38    7.08
  -1  -5  -4   23.70    5.37
  -1  -5  -4   23.02    5.35
  -1  -5  -4   24.78    6.11
   1  -5   4   22.04    7.52
   1  -5   5  176.30   18.54
  -1  -5  -5  159.34   15.66
  -1  -5  -5  164.05   14.34
  -1  -5  -5  151.85   15.91
  -1  -5  -5  150.43   14.52
  -1  -5  -6   94.67    9.82
   1  -5   6   82.89   13.50
  -1  -5  -6  100.50   12.18
  -1  -5  -6   93.13   11.25
  -1  -5  -6   97.71   10.76
  -1  -5  -7   35.14   14.04
   1  -5   7   24.06    8.17
  -1  -5  -7   32.96    7.11
  -1  -5  -7   36.74    6.71
  -1  -5  -8   21.66    5.68
   1  -5   8   29.23    7.87
  -1  -5  -9   86.80    8.84
   1  -5   9   80.59    9.85
   1  -5  10   47.30    6.14
  -1  -5 -10   44.47    4.64
  -1  -4  10   62.21    7.82
   1  -4  -9  227.72   16.96
   1  -4  -9  193.79   14.70
   1  -4  -8    5.58    4.03
   1  -4  -8    2.27    2.43
   1  -4  -8    0.69    4.06
   1  -4  -7   69.63   10.19
   1  -4  -7   84.43   10.26
   1  -4  -7   76.38    7.95
   1  -4  -7  101.80   19.43
   1  -4  -6  506.04   33.69
   1  -4  -6  456.39   30.17
   1  -4  -6  433.21   39.50
   1  -4  -6  480.37   34.04
   1  -4  -6  442.03   47.47
   1  -4  -6  489.92   33.34
   1  -4  -5  244.50   31.68
   1  -4  -5  287.67   20.59
   1  -4  -5  248.72   18.90
   1  -4  -5  253.23   21.01
   1  -4  -5  307.02   26.95
   1  -4  -5  267.00   17.92
   1  -4  -4  219.85   21.33
   1  -4  -4  225.70   17.22
   1  -4  -4  232.42   28.57
   1  -4  -4  230.93   16.37
   1  -4  -4  183.14   19.38
   1  -4  -4  213.89   14.57
   1  -4  -3   74.67    9.74
   1  -4  -3   74.45    7.51
   1  -4  -3   72.86    6.42
   1  -4  -3   78.49   15.79
   1  -4  -2  327.82   31.88
   1  -4  -2  281.31   20.07
   1  -4  -2  275.75   26.80
  -1  -4   2  334.79   21.19
   1  -4  -2  273.23   21.27
  -1  -4   1  202.32   15.40
   1  -4  -1  174.54   13.96
   1  -4  -1  187.19   19.46
  -1  -4   1  183.95   14.50
   1  -4   0  217.58   18.80
   1  -4   0  248.28   17.82
  -1  -4  -1  285.92   30.87
  -1  -4  -1  287.02   26.66
   1  -4   1  255.33   22.34
  -1  -4  -1  325.87   21.83
  -1  -4  -2 1580.77   90.30
  -1  -4  -2 1489.63   97.36
  -1  -4  -2 1352.14  101.81
  -1  -4  -2 1424.96   94.31
  -1  -4  -3   84.91   12.56
  -1  -4  -3   97.21   10.17
   1  -4   3   75.90    7.01
  -1  -4  -4  206.39   16.13
   1  -4   4  183.87   18.03
  -1  -4  -4  202.96   20.07
   1  -4   4  187.80   19.26
   1  -4   4  177.21   13.27
  -1  -4  -4  191.23   16.40
  -1  -4  -4  212.34   17.95
  -1  -4  -4  184.00   15.54
  -1  -4  -5  164.57   17.42
  -1  -4  -5  163.23   13.74
   1  -4   5  146.88   16.88
  -1  -4  -5  144.35   14.06
  -1  -4  -5  168.73   14.91
  -1  -4  -5  144.44   14.47
   1  -4   6  155.16   17.22
  -1  -4  -6  161.22   15.17
  -1  -4  -6  116.69   13.29
  -1  -4  -6  121.71   13.65
  -1  -4  -6  150.44   13.77
  -1  -4  -6  144.77   13.01
  -1  -4  -7   11.40    5.32
  -1  -4  -7   11.00    4.17
  -1  -4  -7   16.78    5.15
   1  -4   7    3.45    5.68
  -1  -4  -8  173.96   15.89
  -1  -4  -8  154.98   12.84
  -1  -4  -8  185.05   15.13
   1  -4   8  178.45   19.62
  -1  -4  -9    9.19    2.55
   1  -4   9   11.04    5.74
  -1  -4  -9    6.08    3.32
   1  -4  10   64.71    8.14
  -1  -4 -10   61.15    5.90
   1  -4  10   46.08    7.38
  -1  -3  11   76.95    7.35
   1  -3 -10    1.11    1.73
   1  -3  -9   17.69    5.20
   1  -3  -9   14.57    3.55
   1  -3  -9   22.59    4.82
   1  -3  -8   18.45    6.84
   1  -3  -8   10.04    5.45
   1  -3  -8   19.78    4.34
   1  -3  -8   24.76    5.37
   1  -3  -7  140.74   13.48
   1  -3  -7  169.56   22.13
   1  -3  -7  148.06   11.91
   1  -3  -7  123.97   21.86
   1  -3  -7  150.12   14.72
   1  -3  -7  120.86   13.68
   1  -3  -6  153.41   20.91
   1  -3  -6  208.55   16.79
   1  -3  -6  191.23   13.98
   1  -3  -6  176.25   15.95
   1  -3  -6  166.32   16.08
   1  -3  -6  178.81   15.63
   1  -3  -5  105.31   10.38
   1  -3  -4   70.75   14.00
   1  -3  -4   77.95   11.42
   1  -3  -4   81.28    9.64
   1  -3  -3  460.60   28.62
   1  -3  -3  503.30   34.83
   1  -3  -3  558.70   41.94
   1  -3  -2  409.64   28.52
   1  -3  -2  385.86   33.82
   1  -3  -1  266.92   21.61
   1  -3  -1  233.42   17.59
   1  -3   0  205.23   15.57
  -1  -3   0  284.22   24.60
  -1  -3  -1 1751.76  116.05
  -1  -3  -1 1741.86  107.10
  -1  -3  -1 2019.05  107.76
  -1  -3  -1 1709.43  111.71
  -1  -3  -2  403.04   27.00
  -1  -3  -2  399.08   26.79
  -1  -3  -2  373.22   30.42
  -1  -3  -2  418.60   27.34
  -1  -3  -3 4551.72  227.03
   1  -3   3 3641.85  223.12
  -1  -3  -3 4215.05  232.66
   1  -3   3 3987.91  229.62
  -1  -3  -4  129.46   12.57
  -1  -3  -4  113.33   14.90
  -1  -3  -4  113.60   11.56
  -1  -3  -4  145.50   13.23
   1  -3   4  139.77   13.88
  -1  -3  -5    9.93    3.95
  -1  -3  -5    6.13    3.10
  -1  -3  -5    6.07    4.28
   1  -3   5    5.66    4.29
  -1  -3  -5    7.21    3.88
  -1  -3  -5   17.20    5.90
  -1  -3  -6  114.48   12.97
  -1  -3  -6  111.37   11.20
  -1  -3  -6  127.63   12.73
   1  -3   6   89.92   13.22
  -1  -3  -6  102.09   10.98
  -1  -3  -7  151.05   13.99
   1  -3   7  126.83   16.54
  -1  -3  -7  144.52   13.35
  -1  -3  -8  365.80   27.34
  -1  -3  -8  403.96   30.03
  -1  -3  -8  415.30   28.69
   1  -3   8  353.43   32.37
  -1  -3  -9   21.74    3.92
  -1  -3  -9   21.50    5.21
  -1  -3  -9   21.71    4.55
   1  -3   9   21.17    7.27
  -1  -3  -9   19.78    4.58
  -1  -3  -9   21.09    6.15
  -1  -3 -10   58.73    5.81
   1  -3  10   71.09    9.76
  -1  -3 -11    9.42    2.95
   1  -3  11   14.68    3.37
   1  -2 -11    1.61    3.13
   1  -2 -11    6.60    1.89
   1  -2 -10    6.10    2.76
   1  -2 -10    8.72    5.01
   1  -2  -9  222.91   17.04
   1  -2  -9  220.77   19.08
   1  -2  -8  134.01   21.69
   1  -2  -8  183.18   14.02
   1  -2  -8  156.65   14.25
   1  -2  -8  169.38   14.43
   1  -2  -7   16.16    3.81
   1  -2  -7   23.08    4.75
   1  -2  -7   17.81    5.82
   1  -2  -7   13.01    5.81
   1  -2  -7    2.64    7.18
   1  -2  -7   22.49    5.00
   1  -2  -6   36.26    4.92
   1  -2  -6   47.62    7.12
   1  -2  -6   40.58    6.65
  -1  -2   6   34.80   12.15
   1  -2  -6   32.01    6.69
   1  -2  -6   39.30    5.95
   1  -2  -6   40.20    5.78
   1  -2  -6   37.01    5.85
  -1  -2   5  684.33   55.90
   1  -2  -4  929.11   58.53
  -1  -2   4 1056.55   69.54
   1  -2  -3  673.14   45.01
  -1  -2   3  797.77   52.02
   1  -2  -2  382.67   29.22
   1  -2  -2  360.19   26.19
   1  -2  -1 1347.59   83.34
   1  -2  -1 1330.71   80.28
   1  -2  -1 1335.88   81.17
  -1  -2   0 1376.86   86.17
  -1  -2  -1 9407.89  543.17
  -1  -2  -1 9658.05  545.86
   1  -2   2  774.41   51.14
  -1  -2  -2  860.74   53.72
   1  -2   3 1138.45   79.99
  -1  -2  -3 1380.22   74.75
  -1  -2  -3 1241.89   74.22
   1  -2   3 1162.47   75.35
  -1  -2  -3 1147.48   78.62
   1  -2   4  238.87   24.57
  -1  -2  -4  257.31   18.54
  -1  -2  -4  213.39   18.00
   1  -2   4  219.56   17.39
  -1  -2  -4  218.57   18.10
  -1  -2  -4  232.29   22.10
  -1  -2  -5    2.62    2.63
  -1  -2  -5    0.63    4.11
   1  -2   5    3.47    5.39
  -1  -2  -5   -2.61    5.55
  -1  -2  -5    5.89    3.24
  -1  -2  -5    5.42    4.49
  -1  -2  -5    3.59    4.42
  -1  -2  -6  112.58   12.94
  -1  -2  -6  109.58   11.72
  -1  -2  -6  106.87   10.99
  -1  -2  -6  128.89   11.79
  -1  -2  -6  112.04   11.59
  -1  -2  -6  106.62   10.69
   1  -2   6  101.87   18.80
  -1  -2  -6  109.15   12.35
  -1  -2  -7   50.23    8.15
  -1  -2  -7   51.18    7.62
   1  -2   7   41.14   14.46
  -1  -2  -7   57.05    9.19
  -1  -2  -7   55.60    8.27
  -1  -2  -7   64.47    8.65
   1  -2   8  202.91   22.11
  -1  -2  -8  215.84   18.88
  -1  -2  -8  197.08   17.77
  -1  -2  -8  210.32   18.61
  -1  -2  -8  222.24   19.63
  -1  -2  -9  109.13    9.61
  -1  -2  -9  104.56   11.62
  -1  -2  -9   90.78    9.41
  -1  -2  -9   99.42   10.83
   1  -2   9   96.96   14.36
  -1  -2 -10  167.52   12.89
   1  -2  10  172.96   17.95
  -1  -2 -10  174.96   13.78
   1  -2  11   28.13    4.63
  -1  -2 -11   22.90    4.41
  -1  -2 -11   31.39    3.42
   1  -1 -11    3.98    3.38
   1  -1 -11    5.78    2.13
   1  -1 -10   64.69    9.64
   1  -1 -10   58.80    7.23
   1  -1  -9   59.63    8.32
   1  -1  -9   64.78   13.42
   1  -1  -9   59.61    8.82
  -1  -1   9   51.89   14.23
   1  -1  -8  124.07   11.61
   1  -1  -8  157.57   25.73
   1  -1  -8  128.99   13.10
   1  -1  -8  141.13   21.79
  -1  -1   8  107.21   23.95
   1  -1  -7  482.93   31.13
   1  -1  -7  415.16   28.67
   1  -1  -7  410.16   29.20
  -1  -1   7  486.63   48.20
   1  -1  -7  385.67   44.43
   1  -1  -7  437.05   32.05
   1  -1  -6  331.88   25.24
   1  -1  -6  353.32   24.80
  -1  -1   6  410.78   40.24
   1  -1  -6  350.71   26.06
   1  -1  -6  315.40   23.41
   1  -1  -6  411.21   25.60
   1  -1  -6  241.95   32.96
   1  -1  -6  345.54   23.18
  -1  -1   5  234.43   27.14
  -1  -1   4 1143.47   77.41
   1  -1  -3  275.61   18.90
  -1  -1   3  267.11   23.58
  -1  -1   2  580.83   37.74
   1  -1  -2  503.62   36.28
   1  -1  -2  573.73   35.31
   1  -1  -1  319.55   22.56
   1  -1  -1  345.51   22.88
   1  -1  -1  335.81   23.22
   1  -1   0 3731.57  203.24
   1  -1   0 3331.84  202.71
  -1  -1  -1 8292.66  475.48
   1  -1   1 8411.30  474.07
   1  -1   1 8174.62  477.23
   1  -1   2 3584.99  209.94
   1  -1   2 3429.21  206.75
   1  -1   2 3814.39  207.76
   1  -1   3 1082.45   65.52
  -1  -1  -3 1078.08   70.04
   1  -1   3 1201.89   75.38
   1  -1   3 1066.39   64.74
   1  -1   3 1020.22   69.51
   1  -1   4  292.72   30.64
  -1  -1  -4  289.34   21.18
  -1  -1  -4  307.14   26.70
   1  -1   4  256.10   26.15
  -1  -1  -4  297.57   21.16
   1  -1   5  622.39   53.05
  -1  -1  -5  561.32   44.48
   1  -1   5  499.70   45.24
  -1  -1  -5  540.06   36.75
  -1  -1  -5  579.12   37.96
  -1  -1  -6   79.82   10.29
  -1  -1  -6   73.34    8.62
   1  -1   6   69.79   10.55
  -1  -1  -6   79.86    9.64
  -1  -1  -6   76.78    8.98
  -1  -1  -6   73.18    8.97
  -1  -1  -6   70.12    9.12
  -1  -1  -7   23.58    6.22
  -1  -1  -7   16.86    5.10
  -1  -1  -7   10.16    4.49
   1  -1   7   27.34   11.66
   1  -1   7   14.51    6.49
  -1  -1  -7   12.84    5.10
  -1  -1  -7   10.72    4.77
  -1  -1  -7   13.33    4.88
  -1  -1  -8  236.51   21.10
   1  -1   8  299.45   38.94
  -1  -1  -8  259.38   22.27
  -1  -1  -8  286.37   22.75
   1  -1   9   19.42   10.19
  -1  -1  -9   33.29   12.30
  -1  -1  -9   27.77    6.24
  -1  -1  -9   31.70    7.17
   1  -1  10   24.88    6.98
  -1  -1 -10   16.95    4.41
  -1  -1 -11   46.48    4.51
  -1  -1 -11   36.81    4.59
   1  -1  11   31.88    6.22
  -1  -1 -11   35.27    5.09
   1   0 -11   36.66    5.75
   1   0 -11   29.29    3.92
   1   0 -10   10.38    3.32
   1   0 -10    6.85    3.52
   1   0 -10   14.32    5.42
  -1   0   9   12.31    6.77
   1   0  -9    2.04    3.89
   1   0  -9    5.48    4.46
   1   0  -9   13.12    5.89
   1   0  -9    1.87    2.82
   1   0  -8  379.87   27.92
   1   0  -8  368.44   38.63
  -1   0   8  407.74   46.34
  -1   0   8  311.82   28.08
   1   0  -8  373.31   28.42
   1   0  -8  369.91   25.50
   1   0  -8  396.70   45.86
   1   0  -7   91.72   10.40
  -1   0   7  112.73   22.30
   1   0  -7   68.09   17.87
  -1   0   7   99.27   12.07
   1   0  -7   93.47    9.17
   1   0  -6  289.04   21.05
   1   0  -6  273.52   21.93
   1   0  -6  247.60   32.10
   1   0  -6  263.59   18.89
   1   0  -5    3.60    6.26
   1   0  -4  796.54   58.39
   1   0  -3  280.75   24.69
   1   0  -2   44.58    7.39
   1   0  -2   39.82    4.71
   1   0  -2   40.30    7.21
   1   0  -2   36.66    6.22
   1   0  -1   65.86    6.40
   1   0  -1   63.98    6.34
   1   0   0  836.19   47.90
  -1   0   0  750.35   47.18
   1   0   1  176.77   13.96
   1   0   1  200.78   13.70
  -1   0  -1  171.41   14.25
  -1   0  -2  410.61   29.62
   1   0   2  425.56   27.03
   1   0   3   30.45    8.64
   1   0   4  369.43   36.06
  -1   0  -4  381.93   32.15
   1   0   5    2.21    8.06
  -1   0  -5    3.66    3.70
  -1   0  -6   60.52    7.77
   1   0   6   56.29   17.11
  -1   0  -6   81.90    9.96
  -1   0  -6   87.78    9.43
  -1   0  -6   65.86    8.05
   1   0   6   62.16   10.30
  -1   0  -7   10.50    4.11
  -1   0  -7   14.51    4.75
   1   0   7   14.04    9.78
   1   0   7    3.26    5.11
  -1   0  -7   14.84    5.08
  -1   0  -7   14.19    5.03
   1   0   7   27.19   13.99
  -1   0  -7   12.95    5.23
  -1   0  -7   23.60   11.74
  -1   0  -8   93.43   11.75
   1   0   8   75.04   20.34
   1   0   8  104.40   15.29
   1   0   9  323.61   41.61
  -1   0  -9  340.04   26.19
   1   0  10  109.19   14.73
  -1   0 -10  126.57   11.95
  -1   0 -10  105.98    9.79
  -1   0 -11  103.16    9.03
   1   0  11   89.30   10.86
  -1   0 -11  102.83    8.20
   1   1 -11    3.97    3.13
   1   1 -11    7.54    2.27
   1   1 -10   84.75   10.75
   1   1 -10   83.50    8.22
   1   1  -9   57.67    7.28
  -1   1   9   77.30   17.34
   1   1  -9   65.62   10.10
   1   1  -9   75.05   14.37
   1   1  -9   56.52    8.78
   1   1  -9   65.77    9.18
  -1   1   9   56.88    9.42
   1   1  -8  160.37   15.00
  -1   1   8  170.86   28.18
  -1   1   8  134.01   15.68
   1   1  -8  147.69   15.64
   1   1  -8  127.03   14.29
   1   1  -8  120.78   11.87
   1   1  -8  156.19   23.18
   1   1  -7  440.77   31.15
   1   1  -7  395.53   27.74
  -1   1   7  417.51   32.16
   1   1  -7  446.81   30.67
   1   1  -7  365.17   45.44
   1   1  -6  370.50   25.33
   1   1  -6  346.55   25.25
   1   1  -6  322.47   38.21
   1   1  -6  318.35   22.57
  -1   1   5  212.04   22.08
   1   1  -5  236.04   28.15
   1   1  -4 1111.60   75.04
   1   1  -4 1000.99   72.18
  -1   1   4  966.18   65.61
   1   1  -3  285.63   26.50
   1   1  -3  281.99   26.06
   1   1  -3  257.86   19.93
   1   1  -2  592.24   39.86
   1   1  -2  523.40   36.46
   1   1  -1  338.45   23.65
  -1   1   0 3387.43  195.15
   1   1   0 3624.04  197.97
  -1   1   0 3311.80  196.15
   1   1   0 3467.97  196.25
   1   1   0 3453.07  197.49
  -1   1  -1 9040.39  516.20
  -1   1  -2 3593.47  217.31
  -1   1  -2 3772.36  216.17
  -1   1  -3 1034.46   73.68
  -1   1  -3 1119.23   71.61
  -1   1  -4  216.25   26.86
   1   1   5  506.06   49.02
   1   1   6   70.24   18.65
   1   1   6   73.10   11.21
  -1   1  -6   68.34    8.12
  -1   1  -6   77.23    9.12
  -1   1  -6   82.50    9.29
  -1   1  -6   69.11    8.59
  -1   1  -6   67.48   18.22
   1   1   7   27.91   12.76
  -1   1  -7   20.50    5.91
  -1   1  -7   21.42    5.38
   1   1   7   16.00    7.40
  -1   1  -7   17.41    5.67
  -1   1  -7    6.82   10.64
  -1   1  -8  271.88   21.95
   1   1   8  234.86   36.03
   1   1   8  284.53   41.34
  -1   1  -8  178.62   34.52
   1   1   8  239.62   25.13
   1   1   9   36.72   12.33
   1   1   9   56.97   11.24
  -1   1  -9   45.00    8.29
  -1   1 -10   12.29    4.27
  -1   1 -10   16.32    3.65
  -1   1 -11   35.22    5.23
   1   1  11   49.56    7.76
  -1   1 -11   43.64    4.65
   1   2 -11    7.18    1.92
   1   2 -11    6.06    2.25
   1   2 -10    9.52    2.93
   1   2 -10    4.29    4.12
   1   2  -9  228.91   20.30
  -1   2   9  212.11   20.69
   1   2  -9  206.04   18.36
   1   2  -9  204.39   16.15
   1   2  -8  160.59   17.20
   1   2  -8  160.40   23.41
   1   2  -8  162.95   16.07
   1   2  -8  158.46   13.42
  -1   2   8  158.43   17.85
   1   2  -7   15.48    3.84
   1   2  -7   20.77    5.64
   1   2  -7   13.94    5.28
   1   2  -7   19.27    5.90
   1   2  -6   46.26    7.72
   1   2  -6   52.77    7.49
   1   2  -6   39.62    6.61
   1   2  -6   33.80    4.83
  -1   2   5  580.26   45.73
   1   2  -5  582.50   53.98
   1   2  -4  899.97   57.79
   1   2  -4 1089.76   73.45
   1   2  -3  774.99   57.82
   1   2  -2  420.66   33.47
   1   2  -2  385.58   28.13
   1   2  -1 1388.93   83.03
   1   2   0 1244.23   74.20
  -1   2   0 1175.85   74.54
   1   2   0 1245.99   74.81
  -1   2  -1 9999.00  550.41
  -1   2  -1 9242.33  550.59
  -1   2  -2  854.70   58.38
  -1   2  -3 1197.50   82.27
  -1   2  -3 1170.03   81.11
  -1   2  -4  224.24   28.10
  -1   2  -4  214.78   26.33
  -1   2  -5    2.39    7.44
  -1   2  -5   -2.34    6.31
  -1   2  -6  104.38   11.73
   1   2   6  147.74   26.03
  -1   2  -6  139.95   12.95
  -1   2  -6   99.64   21.21
   1   2   7   47.92   17.84
  -1   2  -7   48.44    8.12
  -1   2  -7   49.20    8.31
  -1   2  -7   45.58    7.08
  -1   2  -7   34.95   16.04
   1   2   7   36.82    9.39
   1   2   8  217.61   35.62
  -1   2  -8  202.26   18.46
  -1   2  -8  153.19   31.43
   1   2   8  166.93   21.64
  -1   2  -8  208.89   18.60
   1   2   9  102.24   15.32
  -1   2  -9  125.58   12.54
  -1   2  -9   98.40    9.25
   1   2  10  200.90   20.17
  -1   2 -10  194.51   14.36
  -1   2 -10  191.05   16.50
   1   2  11   35.37    6.60
  -1   2 -11   30.90    4.71
  -1   2 -11   30.36    3.49
   1   3 -11   82.41    6.98
   1   3 -10    1.10    1.90
  -1   3  10    6.87    3.56
   1   3  -9   23.97    4.09
  -1   3   9   11.29    5.75
   1   3  -9   11.74    5.32
   1   3  -8   16.70    4.03
   1   3  -8   15.39    6.40
   1   3  -8   18.66    6.03
   1   3  -8   28.99    8.31
   1   3  -8   33.38    6.82
   1   3  -7  150.71   20.96
   1   3  -7  140.21   11.62
   1   3  -7  126.44   15.04
   1   3  -7  135.63   14.39
   1   3  -7  140.47   14.19
   1   3  -7  139.97   14.08
   1   3  -6  180.39   15.71
   1   3  -6  178.77   17.04
   1   3  -6  184.34   21.58
   1   3  -6  170.74   31.78
   1   3  -6  165.93   15.51
   1   3  -6  178.80   13.25
   1   3  -6  152.05   15.39
   1   3  -5   92.20    9.63
   1   3  -5   88.20    9.93
   1   3  -5   89.28   10.86
   1   3  -5   85.46   13.42
   1   3  -5   95.14   21.30
   1   3  -4   77.20   17.40
   1   3  -4   80.84   11.57
   1   3  -4   77.31    8.94
   1   3  -3  485.86   35.26
   1   3  -2  404.80   28.78
   1   3  -1  233.68   18.81
  -1   3   1  266.78   22.63
   1   3  -1  255.10   18.29
  -1   3   0  206.38   20.09
   1   3   0  270.56   21.72
   1   3   1 1786.33  110.47
  -1   3  -2  357.12   31.58
  -1   3  -3 4318.61  261.41
  -1   3  -4  130.65   21.59
  -1   3  -4  123.87   20.54
  -1   3  -5    6.78    3.78
  -1   3  -5    2.72    9.91
  -1   3  -5   10.70    3.65
  -1   3  -5    2.57    6.94
  -1   3  -6  109.55   22.80
  -1   3  -6  108.15   24.61
  -1   3  -6  103.33   11.27
  -1   3  -6  104.81   11.60
  -1   3  -7  142.45   14.93
   1   3   7  153.45   30.63
  -1   3  -7  174.07   15.86
   1   3   8  449.30   53.67
   1   3   8  426.44   35.98
  -1   3  -8  400.28   29.93
  -1   3  -8  361.48   29.88
  -1   3  -9   22.32    4.03
  -1   3  -9   18.71    5.68
   1   3   9   27.94    9.14
  -1   3  -9   20.94    5.52
  -1   3 -10   66.55    7.96
   1   3  10   64.16   10.49
  -1   3 -10   55.97    5.80
   1   3  11   12.87    4.09
  -1   4  10   60.98    7.80
   1   4 -10   47.42    5.89
  -1   4   9  234.63   20.77
   1   4  -9  188.54   14.18
   1   4  -8    1.83    2.31
   1   4  -7   82.16    8.03
   1   4  -7   93.25   23.08
   1   4  -7   76.53   11.14
   1   4  -7   80.99   10.71
   1   4  -7   89.23   11.31
   1   4  -7  101.44   15.60
   1   4  -6  498.85   33.90
   1   4  -6  450.90   33.54
   1   4  -6  483.72   34.48
   1   4  -6  510.46   35.20
   1   4  -6  439.26   39.42
   1   4  -6  445.60   29.97
   1   4  -5  290.79   22.47
   1   4  -5  275.71   21.08
   1   4  -5  238.15   20.93
   1   4  -5  274.46   22.44
   1   4  -5  264.36   25.81
   1   4  -5  320.49   40.41
   1   4  -4  220.23   18.41
   1   4  -4  239.99   19.38
   1   4  -4  239.13   22.12
   1   4  -3   97.64   11.50
   1   4  -2  275.91   20.67
   1   4  -1  177.76   15.53
  -1   4   1  191.70   20.52
  -1   4   0  256.51   24.80
   1   4   0  264.11   24.90
   1   4   1  261.49   25.57
  -1   4  -2 1435.46   97.88
  -1   4  -3   81.00   16.09
  -1   4  -4  151.03   25.37
  -1   4  -5  129.72   25.96
  -1   4  -5  138.15   13.14
  -1   4  -5  162.66   13.94
  -1   4  -6  116.47   26.57
  -1   4  -6  150.11   14.18
   1   4   7    4.16   11.21
  -1   4  -7   13.33    5.10
   1   4   8  201.95   32.31
   1   4   8  203.25   21.84
  -1   4  -8  199.55   16.35
  -1   4  -8  124.09   15.63
  -1   4  -8  143.36   12.10
  -1   4  -9    7.26    2.27
  -1   4  -9    5.13    4.36
   1   4   9   12.47    7.38
  -1   4  -9    8.75    4.08
  -1   4 -10   72.99    7.82
   1   4  10   60.41   10.39
   1   5 -10    5.22    1.69
  -1   5  10    2.10    2.19
   1   5  -9   80.84    8.35
  -1   5   9   81.88   11.50
   1   5  -8   11.66    4.00
   1   5  -7   48.42   18.92
   1   5  -7   34.62    6.51
   1   5  -6  176.92   33.67
   1   5  -6  200.50   18.36
   1   5  -6  160.40   15.88
   1   5  -5  234.03   39.41
   1   5  -5  314.33   24.84
   1   5  -5  278.30   22.70
   1   5  -4   75.10    8.29
   1   5  -4   68.17    9.53
   1   5  -4   77.46   10.61
  -1   5   3   34.57   11.14
   1   5  -3   35.29    6.58
  -1   5   2  560.61   47.02
   1   5  -2  541.87   37.97
   1   5  -1   75.99    9.52
  -1   5   1   77.50   14.07
  -1   5   0  315.75   30.01
   1   5   0  283.58   24.36
   1   5   0  270.68   28.52
   1   5   1  812.76   61.53
  -1   5  -2  870.39   70.02
   1   5   2  927.66   68.53
  -1   5  -3   54.30   14.93
   1   5   3   70.37    9.06
   1   5   3   69.02   14.94
   1   5   4   16.79    5.19
  -1   5  -5  116.24   26.94
  -1   5  -5  136.12   12.74
  -1   5  -6  110.49   27.24
  -1   5  -6   90.83   10.49
  -1   5  -7   38.82    8.65
  -1   5  -7   29.37    6.27
  -1   5  -8   26.44    5.70
  -1   5  -8   23.68    7.15
  -1   5  -9   67.47    7.99
  -1   5  -9   74.04    9.30
   1   5   9   88.66   13.06
   1   5  10   75.86    9.64
   1   6  -9   13.61    2.54
  -1   6   9   21.65    5.25
   1   6  -8  114.56   10.74
   1   6  -8  102.84    9.82
   1   6  -7    4.95    3.14
   1   6  -7    3.62    3.93
   1   6  -6   62.12    9.32
   1   6  -6   67.85   22.14
  -1   6   6   56.46   15.76
   1   6  -6   64.47    8.29
  -1   6   5  424.72   42.77
   1   6  -5  369.88   50.40
   1   6  -5  347.93   24.83
   1   6  -5  318.38   26.70
   1   6  -4  224.78   18.31
   1   6  -4  274.79   21.97
  -1   6   4  232.59   30.35
   1   6  -3   87.93   22.46
   1   6  -3   55.29    9.08
  -1   6   3   62.37   15.18
  -1   6   2  121.30   19.92
   1   6  -2   97.80   12.40
   1   6  -1  425.49   30.84
   1   6  -1  395.47   28.94
  -1   6   1  370.04   28.46
  -1   6   1  467.92   41.52
   1   6   0  143.87   13.90
   1   6   0  110.46   11.51
   1   6   0   98.91   17.84
   1   6   0  119.69   14.14
  -1   6   0   96.84   17.43
  -1   6   0   98.00   11.39
  -1   6  -1  337.92   26.30
   1   6   1  359.02   36.51
   1   6   1  360.76   27.54
   1   6   1  353.49   25.66
  -1   6  -2  125.37   13.95
   1   6   2  124.59   12.34
   1   6   2  141.73   14.10
  -1   6  -2  142.40   23.55
   1   6   2  141.49   21.91
  -1   6  -3   75.45   17.88
   1   6   3   48.81    8.22
   1   6   3   58.76   15.50
  -1   6  -3   48.30    9.17
   1   6   4  119.74   22.08
   1   6   4  103.57   12.28
  -1   6  -4   88.02   12.88
  -1   6  -5   67.39   20.92
  -1   6  -5   86.95   12.89
   1   6   5   71.61   19.36
   1   6   6  109.25   23.91
  -1   6  -6   64.42   21.65
  -1   6  -6   72.22   12.29
  -1   6  -7   86.31    9.34
  -1   6  -8   43.19    8.21
  -1   6  -9   28.02    4.70
   1   6  10   23.40    4.07
  -1   7   9   76.79    7.90
   1   7  -8    1.11    2.48
   1   7  -7   38.85    6.64
   1   7  -7   49.66    7.12
   1   7  -6   67.27    9.38
   1   7  -5   30.68   16.87
  -1   7   5   52.61   14.67
   1   7  -5   45.47    8.46
  -1   7   4  139.96   23.59
   1   7  -4  113.95   14.05
   1   7  -4   94.81   25.25
   1   7  -3   70.81   10.96
  -1   7   3   83.42   17.98
  -1   7   2   68.28   16.03
   1   7  -2   51.10    8.52
   1   7  -2   68.49   20.72
  -1   7   1   68.52   16.20
   1   7  -1   80.83   10.26
   1   7  -1   72.36   11.35
  -1   7   1   65.54    9.38
   1   7   0   25.54    7.33
  -1   7   0   21.58    6.18
   1   7   0   20.96    5.52
  -1   7  -1  250.62   33.87
   1   7   1  223.91   24.85
  -1   7  -1  285.96   22.61
   1   7   1  266.81   21.17
  -1   7  -1  259.37   22.57
   1   7   1  253.91   32.56
   1   7   2   49.50   14.47
  -1   7  -2   44.61   15.48
   1   7   2   32.81    6.59
  -1   7  -2   33.97    8.13
   1   7   2   34.99    7.86
  -1   7  -2   52.96    9.11
  -1   7  -3   84.70   11.94
   1   7   3   56.75    9.89
  -1   7  -3   56.33   16.93
   1   7   3   83.61   18.77
  -1   7  -4  264.01   41.70
  -1   7  -4  300.84   26.49
   1   7   4  338.44   40.99
  -1   7  -5  119.50   28.18
  -1   7  -5  176.42   18.85
   1   7   5  175.60   28.37
  -1   7  -6   12.42    7.08
  -1   7  -7   72.66    9.96
   1   7   8   73.18   10.49
  -1   7  -8   53.28    8.23
  -1   7  -8   64.63    7.93
  -1   7  -9   20.94    3.14
   1   8  -8   19.30    3.08
   1   8  -8   11.85    2.38
   1   8  -7    6.53    3.23
   1   8  -6   46.03    7.51
   1   8  -6   39.86    7.43
   1   8  -5   39.44    8.01
   1   8  -4  239.83   40.74
   1   8  -4  269.49   23.76
   1   8  -4  275.00   23.11
  -1   8   4  274.57   33.73
   1   8  -3  139.31   30.61
  -1   8   3  168.96   25.97
   1   8  -3  167.47   16.64
   1   8  -2  163.36   32.53
   1   8  -2  170.02   16.99
  -1   8   2  171.80   26.14
   1   8  -1   34.30    7.52
  -1   8   1   48.05    8.14
   1   8  -1   28.95    8.40
  -1   8   0    9.25    8.47
  -1   8   0   37.13    7.83
   1   8   0   34.30    6.82
   1   8   0   33.68    8.45
  -1   8  -1  146.88   26.96
  -1   8  -1  166.02   17.43
   1   8   1  197.09   18.49
   1   8   1  158.38   15.30
  -1   8  -2  123.15   23.30
  -1   8  -2  147.93   16.74
   1   8   2  156.24   14.24
   1   8   2  151.97   16.21
   1   8   2  179.53   27.35
  -1   8  -3   22.03    7.39
   1   8   3   20.05   10.97
  -1   8  -3   26.14    7.91
   1   8   3   17.61    6.16
   1   8   4  161.59   21.38
  -1   8  -4  107.97   24.53
  -1   8  -4  131.82   16.10
  -1   8  -4  153.28   17.09
   1   8   4  137.49   23.20
  -1   8  -5   39.53    8.99
  -1   8  -5   54.47   10.12
  -1   8  -6   28.83    7.28
  -1   8  -7   28.19    5.77
  -1   8  -8    8.20    2.52
   1   8   8   10.00    3.84
   1   9  -7   -0.25    1.61
   1   9  -5   22.53    5.31
   1   9  -5   19.36    5.61
   1   9  -4   12.11    5.45
   1   9  -4   17.87    5.55
   1   9  -3  171.61   16.49
   1   9  -2   78.93   10.41
   1   9  -2   93.24   12.91
   1   9  -1  155.35   15.38
   1   9  -1  197.67   32.32
   1   9   0    3.89    3.98
   1   9   0    6.18    4.76
  -1   9   0    3.91    4.39
   1   9   1    4.53    3.63
  -1   9  -1   -1.69    5.57
   1   9   1    2.54    4.55
  -1   9  -2  150.01   15.40
   1   9   2  144.67   14.42
   1   9   3    1.41    3.63
  -1   9  -3   -0.61    3.38
  -1   9  -3   -1.69    5.58
  -1   9  -4    0.78    4.83
  -1   9  -5    5.95    4.77
  -1   9  -6   14.66    3.89
  -1   9  -7   16.69    3.28
   1   9   7   13.91    3.32
  -1   9  -7   11.82    2.76
   1  10  -6   78.39    6.54
   1  10  -5   79.96    7.59
   1  10  -5   64.52    7.14
   1  10  -4  102.06   10.00
   1  10  -3   74.01    8.67
   1  10  -2   16.65    5.17
   1  10  -2   18.26    4.83
   1  10  -1   50.06    7.03
   1  10  -1   60.49    9.00
  -1  10   0   42.44    6.80
   1  10   0   51.48    6.56
   1  10   0   57.61    8.58
   1  10   1   56.57    8.09
  -1  10  -1   42.30    7.46
   1  10   2   94.75   10.43
  -1  10  -2   91.31   10.71
  -1  10  -3  142.93   12.00
  -1  10  -3  170.39   14.87
  -1  10  -4   17.97    4.59
  -1  10  -4    6.84    2.66
  -1  10  -5    5.57    2.21
  -1  10  -5    5.65    3.14
   1  11  -3    1.31    1.39
   1  11  -2  342.42   23.34
   1  11  -1   30.84    5.01
   1  11   0   20.36    4.18
  -1  11  -1   28.05    3.88
  -1  11  -2    6.38    2.18
  -1  11  -3    4.86    1.96
   2 -11  -1   50.66    5.72
   2 -11   0   43.03    5.40
   2 -11   1   20.20    3.81
   2 -10  -5   20.52    3.35
   2 -10  -4    9.50    2.92
  -2 -10   4   17.99    2.70
  -2 -10   3  102.96    8.83
   2 -10  -3  111.60   10.45
  -2 -10   2   10.63    3.22
   2 -10  -2   10.56    4.61
   2 -10  -1   20.93    5.78
   2 -10   0   84.69   10.83
   2 -10   0  115.50   12.18
   2 -10   1   20.95    6.00
   2 -10   1   19.91    5.67
   2 -10   2   54.06    8.11
  -2 -10  -2   64.85    7.02
   2 -10   2   57.35    6.31
  -2 -10  -3   -1.45    2.38
   2 -10   3    0.49    3.43
   2 -10   3   -0.28    1.82
   2 -10   4    9.85    3.47
  -2  -9   6   33.65    4.00
   2  -9  -6   52.61    5.77
  -2  -9   5   54.66    6.14
   2  -9  -5   50.15    6.72
  -2  -9   4  266.49   19.65
   2  -9  -4  270.25   20.94
  -2  -9   3   24.90    5.10
   2  -9  -3   22.57    6.53
   2  -9  -2  307.48   24.45
  -2  -9   2  259.66   20.44
   2  -9  -2  250.42   19.54
   2  -9  -2  288.65   23.57
   2  -9  -1  233.10   19.07
  -2  -9   1  252.96   19.48
   2  -9  -1  295.66   24.27
  -2  -9   1  250.65   19.83
   2  -9  -1  289.16   23.92
   2  -9   0   14.80    6.69
  -2  -9   0    8.93    4.22
   2  -9   0    3.97    3.10
   2  -9   0    9.70    3.67
  -2  -9   0    3.76    3.14
   2  -9   1   52.55    7.02
   2  -9   1   67.75    8.28
   2  -9   1   60.12   10.82
  -2  -9  -1   50.14    8.29
  -2  -9  -1   59.23    8.26
  -2  -9  -2    0.62    3.28
   2  -9   2    1.11    3.04
   2  -9   2    0.45    2.05
   2  -9   2    0.94    5.18
  -2  -9  -2   -1.98    3.55
  -2  -9  -3   93.49   10.52
   2  -9   3   75.86    8.98
  -2  -9  -3   90.67   10.40
  -2  -9  -4   62.58    7.98
  -2  -9  -4   44.35    7.07
   2  -9   4   47.26    6.44
  -2  -9  -5    6.16    3.47
   2  -9   5    5.86    2.53
  -2  -9  -6    2.50    1.70
   2  -8  -7   13.41    3.58
  -2  -8   7    9.86    2.49
   2  -8  -6   16.83    4.27
   2  -8  -6   26.89    5.45
  -2  -8   6   13.09    3.67
  -2  -8   5   64.09    8.22
   2  -8  -4   65.07    9.99
  -2  -8   4   62.43    8.33
   2  -8  -3  136.12   15.26
  -2  -8   3  144.06   20.94
  -2  -8   3  135.62   13.38
   2  -8  -3  129.07   11.90
   2  -8  -3  130.42   12.42
   2  -8  -2   86.43   12.94
  -2  -8   2   94.67   16.41
   2  -8  -2   88.21   16.58
  -2  -8   2  118.14   20.24
  -2  -8   2   77.10    9.60
   2  -8  -2   59.08    8.01
   2  -8  -2   69.72   11.55
  -2  -8   1  384.57   39.38
  -2  -8   1  346.51   41.50
  -2  -8   1  374.55   27.44
   2  -8  -1  403.18   32.51
   2  -8  -1  394.01   27.49
   2  -8  -1  315.04   37.38
   2  -8  -1  349.86   26.28
   2  -8   0   75.53    8.84
  -2  -8   0   68.73    9.06
   2  -8   0   58.94   14.45
   2  -8   0   78.20    9.49
   2  -8   0   66.23   12.06
  -2  -8   0   65.25   14.90
   2  -8   0   71.54   15.09
  -2  -8   0   75.18   10.20
   2  -8   1  193.85   18.14
   2  -8   1  174.40   16.03
   2  -8   1  187.16   26.11
   2  -8   1  182.27   17.12
  -2  -8  -1  212.91   17.35
   2  -8   1  193.62   26.49
  -2  -8  -1  234.85   18.97
  -2  -8  -1  212.61   18.93
  -2  -8  -2  165.47   15.13
   2  -8   2   99.76   19.07
   2  -8   2  111.45   11.72
   2  -8   2  128.91   13.25
  -2  -8  -2  133.95   14.26
   2  -8   2  128.20   13.70
   2  -8   2  130.21   20.51
  -2  -8  -3  131.88   13.50
  -2  -8  -3  128.57   12.20
   2  -8   3   98.53   10.52
   2  -8   3  110.90   11.97
  -2  -8  -3  111.76   13.08
   2  -8   3  109.54   12.33
  -2  -8  -4   35.83    6.25
   2  -8   4   21.18    5.37
  -2  -8  -4   24.14    6.09
   2  -8   4   29.62    6.14
   2  -8   5   47.77    6.88
   2  -8   5   47.58    7.18
  -2  -8  -5   55.09    7.40
  -2  -8  -6    2.07    2.56
   2  -8   6    5.35    2.76
  -2  -8  -6    2.87    2.86
  -2  -8  -6    3.89    4.05
  -2  -8  -7    8.66    2.65
  -2  -8  -7    9.45    2.89
  -2  -7   8   13.99    2.83
   2  -7  -8   12.35    3.71
   2  -7  -7   53.99    7.10
   2  -7  -7   62.88    8.22
  -2  -7   7   65.04    7.58
  -2  -7   6   61.31    8.32
   2  -7  -6   65.51    9.29
   2  -7  -5  187.81   18.10
  -2  -7   5  154.96   16.01
   2  -7  -5  211.93   16.92
  -2  -7   5  229.19   31.76
  -2  -7   4   -6.04   10.50
   2  -7  -4    7.78    5.78
   2  -7  -4    9.95    4.47
  -2  -7   4    6.04    3.76
   2  -7  -4    3.10    4.42
   2  -7  -4    3.55    3.32
   2  -7  -3  604.05   44.05
  -2  -7   3  582.76   39.67
  -2  -7   3  587.31   58.24
   2  -7  -3  559.83   39.01
   2  -7  -3  565.54   41.67
   2  -7  -3  562.98   37.51
   2  -7  -3  612.52   38.64
   2  -7  -3  564.00   49.86
   2  -7  -2   86.33   10.17
  -2  -7   2   98.29   20.64
   2  -7  -2  100.30   13.93
   2  -7  -2  107.56   13.39
  -2  -7   2   92.73   10.55
   2  -7  -2  102.61   18.11
  -2  -7   2   71.99   15.82
   2  -7  -2   83.64    9.21
  -2  -7   1  255.30   20.39
   2  -7  -1  223.13   18.86
   2  -7  -1  283.61   22.26
  -2  -7   1  258.39   30.56
   2  -7  -1  221.90   19.48
   2  -7  -1  270.83   24.35
  -2  -7   1  258.53   33.76
  -2  -7   1  290.48   21.90
   2  -7  -1  240.63   29.99
   2  -7  -1  261.58   20.23
   2  -7   0  208.26   26.80
  -2  -7   0  219.45   30.26
   2  -7   0  225.82   19.64
  -2  -7   0  215.54   27.24
   2  -7   0  208.17   17.63
   2  -7   0  167.58   24.82
  -2  -7   0  212.87   17.82
   2  -7   0  197.18   16.67
  -2  -7   0  224.52   19.45
   2  -7   1  120.11   13.03
  -2  -7  -1  111.45   17.14
   2  -7   1  110.69   11.79
  -2  -7  -1   93.87   11.20
   2  -7   1  131.59   20.64
  -2  -7  -1  109.66   12.96
   2  -7   1  127.48   19.91
   2  -7   1   98.29   10.35
   2  -7   2  149.41   15.31
  -2  -7  -2  132.47   18.44
   2  -7   2  116.31   20.21
  -2  -7  -2  176.47   15.94
   2  -7   2  130.26   12.57
   2  -7   2  138.67   14.03
   2  -7   2  145.86   22.61
  -2  -7  -2  150.87   15.31
   2  -7   3   82.58   10.67
   2  -7   3   93.95    9.53
   2  -7   3   94.86   11.60
   2  -7   3   83.40   16.53
  -2  -7  -4   61.93    8.84
  -2  -7  -4   66.54    8.12
   2  -7   4   53.64    8.53
   2  -7   4   63.74    9.29
   2  -7   5   60.15    8.86
  -2  -7  -5   97.55   11.42
  -2  -7  -5   68.88    8.62
  -2  -7  -5   69.98    9.41
   2  -7   5   69.55    9.24
   2  -7   6   75.48    9.35
  -2  -7  -6   84.76    9.06
  -2  -7  -6   75.52    9.54
  -2  -7  -6   89.08   11.02
   2  -7   6   80.65    9.26
   2  -7   7    2.53    2.51
  -2  -7  -7    3.89    3.30
  -2  -7  -7    3.43    2.55
   2  -7   7    0.92    2.67
  -2  -7  -7   -0.53    3.14
  -2  -7  -8   10.61    2.92
  -2  -7  -8   15.85    3.30
  -2  -6   9   28.89    3.65
  -2  -6   8   82.44    8.75
   2  -6  -8   83.73    9.51
   2  -6  -7   48.63    8.14
   2  -6  -7   45.17    7.88
  -2  -6   7   54.62    7.76
  -2  -6   6   18.37    5.10
   2  -6  -6   14.04    5.12
   2  -6  -6   16.04    6.17
   2  -6  -5    6.83    5.07
   2  -6  -5    9.35    4.43
   2  -6  -5    8.40    5.83
  -2  -6   5    9.08    4.37
   2  -6  -4  161.35   15.83
   2  -6  -4  150.04   17.08
  -2  -6   4  160.63   15.50
   2  -6  -4  188.92   15.84
   2  -6  -4  196.49   22.23
   2  -6  -3  173.07   13.70
   2  -6  -3  165.77   14.59
  -2  -6   3  150.62   14.80
   2  -6  -3  167.36   17.00
   2  -6  -3  161.26   15.38
   2  -6  -3  203.03   19.46
   2  -6  -3  178.76   22.58
   2  -6  -2   19.42    4.17
   2  -6  -2   11.46    4.19
   2  -6  -2    9.23    7.09
   2  -6  -2   12.70    3.49
   2  -6  -2   21.69    4.63
  -2  -6   2   20.71    4.82
   2  -6  -2   20.08    6.95
   2  -6  -1  113.57   12.20
   2  -6  -1   96.99   10.12
  -2  -6   1  125.68   12.27
   2  -6  -1  120.96   17.79
   2  -6  -1   86.90    9.48
  -2  -6   1  121.35   11.27
  -2  -6   1   92.02   16.99
   2  -6   0  202.10   24.82
  -2  -6   0  233.98   17.45
   2  -6   0  213.59   18.53
   2  -6   0  181.58   15.74
  -2  -6   0  198.13   24.92
   2  -6   0  200.20   16.66
   2  -6   0  180.26   24.70
  -2  -6   0  227.65   18.74
  -2  -6   0  246.54   20.47
   2  -6   1   95.39   11.56
   2  -6   1  118.75   18.44
  -2  -6  -1  104.79   17.23
   2  -6   1  103.40   10.02
   2  -6   1  103.81   10.90
  -2  -6  -1  115.44   10.97
   2  -6   1  108.31   18.20
  -2  -6  -1  121.46   13.78
   2  -6   2  105.58    9.90
  -2  -6  -2   97.70   10.44
  -2  -6  -2   90.07   12.19
   2  -6   2  112.43   11.66
  -2  -6  -2   69.36   18.76
  -2  -6  -2  130.40   18.77
   2  -6   2  113.22   18.02
  -2  -6  -3  413.16   28.03
  -2  -6  -3  343.25   34.75
   2  -6   3  344.50   26.74
   2  -6   3  331.89   24.44
   2  -6   3  361.85   36.12
  -2  -6  -3  350.49   43.74
  -2  -6  -4   20.73   12.10
   2  -6   4   29.26    8.16
   2  -6   4   22.93    5.81
  -2  -6  -4   29.32    7.27
  -2  -6  -4   27.50    6.62
   2  -6   5  328.44   28.10
   2  -6   5  385.65   33.82
  -2  -6  -5  417.25   28.35
  -2  -6  -5  405.75   29.24
  -2  -6  -5  385.93   30.99
  -2  -6  -5  417.28   30.15
  -2  -6  -6   24.28    6.54
  -2  -6  -6   10.64    6.90
  -2  -6  -6   31.48    5.19
  -2  -6  -6   27.78    5.74
   2  -6   6   33.81    9.08
   2  -6   6   21.31    5.64
  -2  -6  -6   31.56    7.45
  -2  -6  -7    7.71    4.49
  -2  -6  -7    7.62    4.17
   2  -6   7    9.10    4.24
  -2  -6  -8   -1.52    3.19
   2  -6   8    0.46    2.75
  -2  -6  -9   35.95    4.41
  -2  -5   9   39.90    5.42
   2  -5  -8  157.90   15.28
  -2  -5   8  184.79   15.55
   2  -5  -8  185.55   16.49
  -2  -5   7   74.38    9.50
   2  -5  -7   69.06    9.42
   2  -5  -7   65.62    9.96
   2  -5  -7   61.13    9.84
  -2  -5   6  167.97   16.25
   2  -5  -6  182.92   18.23
   2  -5  -5   64.12    8.72
   2  -5  -5   55.73    9.70
  -2  -5   5   64.53    9.14
   2  -5  -5   74.21   10.23
   2  -5  -4  207.58   19.34
  -2  -5   4  190.09   16.98
   2  -5  -4  211.35   18.06
   2  -5  -4  206.34   17.18
   2  -5  -4  201.94   22.53
   2  -5  -3   63.40    9.40
   2  -5  -3   57.76    7.39
   2  -5  -3   55.19   11.33
  -2  -5   3   55.94    7.44
   2  -5  -3   58.54    8.36
   2  -5  -3   52.24    6.14
   2  -5  -2    0.86    2.11
  -2  -5   2    2.26    7.44
   2  -5  -2   -1.53    4.11
   2  -5  -2    1.45    2.04
   2  -5  -2   -0.44    2.15
  -2  -5   2    0.49    2.58
  -2  -5   2    0.49    2.64
   2  -5  -1  345.06   25.92
   2  -5  -1  322.60   31.19
  -2  -5   1  400.97   26.07
  -2  -5   1  405.89   39.07
  -2  -5   1  426.74   27.84
   2  -5  -1  311.38   23.64
   2  -5   0  239.29   19.55
  -2  -5   0  269.19   30.20
   2  -5   0  235.37   24.87
   2  -5   0  254.53   17.90
  -2  -5   0  264.49   26.44
   2  -5   0  240.45   26.12
  -2  -5   0  239.48   20.16
  -2  -5  -1  113.23   20.20
  -2  -5  -1   98.36   17.89
   2  -5   1   77.38   13.74
   2  -5   1   82.10    8.07
  -2  -5  -1   73.74    9.99
  -2  -5  -1   75.05   13.40
  -2  -5  -2  129.27   22.54
   2  -5   2  107.11   10.95
  -2  -5  -2  102.41   10.42
  -2  -5  -2  134.89   18.54
   2  -5   2  117.01   10.17
   2  -5   2  137.40   18.29
  -2  -5  -2  132.68   13.55
  -2  -5  -3  176.52   28.75
  -2  -5  -3  183.55   17.14
   2  -5   3  155.66   13.04
  -2  -5  -3  182.43   23.01
   2  -5   3  163.73   20.95
   2  -5   3  161.54   14.78
   2  -5   3  169.06   18.49
  -2  -5  -4 1468.72   81.75
   2  -5   4 1256.27   88.67
  -2  -5  -4 1259.56   82.14
   2  -5   4 1194.89   80.02
   2  -5   4 1362.30   86.14
  -2  -5  -4 1338.21   91.00
  -2  -5  -4 1198.12  101.35
  -2  -5  -5   69.78    9.74
  -2  -5  -5   61.50   19.92
  -2  -5  -5   90.96   10.88
   2  -5   5   60.10    9.09
  -2  -5  -5   82.35   11.54
   2  -5   5   66.36   12.18
  -2  -5  -6  101.07   23.08
  -2  -5  -6  104.03   12.64
   2  -5   6   73.48   13.60
  -2  -5  -6  113.97   13.28
  -2  -5  -6  118.25   11.85
   2  -5   6   74.52   10.54
   2  -5   7    3.53    5.80
  -2  -5  -7    7.60    3.74
  -2  -5  -7    6.29    4.01
  -2  -5  -7    8.45    4.64
   2  -5   7    3.47    3.75
  -2  -5  -7    4.49    3.81
   2  -5   8    1.02    5.47
   2  -5   8    0.60    3.23
  -2  -5  -8    3.89    3.67
   2  -5   9   49.53    6.54
  -2  -5  -9   53.07    6.12
   2  -4 -10    6.38    2.60
   2  -4 -10   11.11    3.23
  -2  -4  10    8.44    2.38
   2  -4  -9   31.39    6.16
  -2  -4   9   23.91    5.02
   2  -4  -8  106.50   12.32
   2  -4  -8   98.20   12.33
   2  -4  -8   97.14    8.92
   2  -4  -7  150.02   14.92
   2  -4  -7  149.32   15.48
   2  -4  -7  152.68   16.35
   2  -4  -7  147.19   12.28
   2  -4  -6  114.08   13.51
   2  -4  -6  143.14   18.91
   2  -4  -6  125.11   12.98
   2  -4  -6  154.57   15.77
   2  -4  -6  114.24   10.41
   2  -4  -5   55.69    8.75
   2  -4  -5   51.58    5.81
   2  -4  -5   51.49    8.86
   2  -4  -4  137.30   13.98
   2  -4  -4  148.77   17.15
   2  -4  -4  151.00   14.89
   2  -4  -4  154.45   13.54
   2  -4  -3  346.60   28.24
   2  -4  -3  324.28   22.94
   2  -4  -3  303.04   24.50
   2  -4  -3  319.28   23.92
   2  -4  -3  376.12   27.02
   2  -4  -3  314.38   21.32
   2  -4  -3  306.39   28.50
   2  -4  -2   32.85    8.25
   2  -4  -2   31.28    4.34
  -2  -4   2   27.19    4.74
  -2  -4   2   46.28    6.43
   2  -4  -2   47.71    7.79
  -2  -4   1  115.61   18.08
   2  -4  -1   78.80    7.75
  -2  -4   1  100.92    9.23
  -2  -4   1   99.75    9.95
   2  -4  -1   98.30   13.02
  -2  -4   0  157.17   13.18
  -2  -4   0  156.48   20.94
  -2  -4   0  171.00   17.67
   2  -4   0  137.92   15.90
   2  -4   0  126.74   17.00
  -2  -4   0  136.10   12.82
   2  -4   0  128.25   10.66
  -2  -4  -1  641.62   39.90
  -2  -4  -1  542.92   49.73
   2  -4   1  544.05   36.80
  -2  -4  -1  640.61   39.91
   2  -4   1  586.40   45.62
  -2  -4  -1  568.68   43.94
  -2  -4  -1  606.07   49.69
  -2  -4  -1  663.35   39.77
  -2  -4  -2 2156.76  153.53
  -2  -4  -2 2655.28  141.27
  -2  -4  -2 2745.28  152.12
   2  -4   2 2360.33  147.68
   2  -4   2 2268.33  137.27
   2  -4   2 2218.85  136.05
  -2  -4  -2 2801.08  141.44
  -2  -4  -3  589.31   47.84
  -2  -4  -3  560.46   39.29
   2  -4   3  544.32   35.89
  -2  -4  -3  661.17   40.76
   2  -4   3  575.98   45.18
   2  -4   4  810.95   59.67
   2  -4   4  741.31   56.43
  -2  -4  -4  887.27   53.91
  -2  -4  -4  878.24   64.77
  -2  -4  -4  780.85   54.24
  -2  -4  -4  916.22   56.48
  -2  -4  -5  112.08   13.56
  -2  -4  -5  117.35   12.13
  -2  -4  -5   96.12   16.76
  -2  -4  -5   89.59   12.21
   2  -4   5   85.10   13.52
  -2  -4  -6  172.60   18.74
  -2  -4  -6  208.99   18.18
  -2  -4  -6  187.25   17.72
   2  -4   6  154.99   19.88
  -2  -4  -6  197.43   18.22
   2  -4   7  299.92   28.36
  -2  -4  -7  315.30   24.78
  -2  -4  -7  278.37   21.93
  -2  -4  -7  300.41   24.41
  -2  -4  -7  325.55   23.75
  -2  -4  -7  267.54   23.12
  -2  -4  -8   15.00    4.79
  -2  -4  -8   14.05    5.43
   2  -4   8    3.52    6.08
  -2  -4  -9   14.08    5.14
   2  -4   9   22.42    7.44
   2  -4   9   27.30    5.41
  -2  -4  -9   24.46    4.69
   2  -4  10    1.04    2.97
   2  -3 -10    0.22    1.46
   2  -3 -10    3.41    2.86
  -2  -3  10    6.35    2.49
   2  -3 -10    6.49    1.91
   2  -3 -10   -1.38    3.35
   2  -3  -9    2.18    2.56
   2  -3  -9    5.49    5.00
   2  -3  -8  268.52   29.26
   2  -3  -8  247.76   18.39
   2  -3  -8  244.23   21.54
   2  -3  -8  230.90   21.50
   2  -3  -7  177.96   24.94
   2  -3  -7  239.45   19.03
   2  -3  -7  223.72   20.93
   2  -3  -7  206.55   19.58
   2  -3  -7  219.87   16.83
   2  -3  -6  252.18   27.76
   2  -3  -6  221.49   19.67
   2  -3  -6  221.24   20.60
   2  -3  -6  234.93   18.90
   2  -3  -6  222.34   16.87
   2  -3  -5  146.23   19.14
   2  -3  -5  132.20   11.26
   2  -3  -5  155.26   13.37
   2  -3  -5  146.32   14.43
   2  -3  -4  309.38   25.44
   2  -3  -4  314.57   28.54
   2  -3  -4  280.73   21.22
   2  -3  -4  305.83   22.50
   2  -3  -4  282.02   22.89
   2  -3  -3   40.48    8.04
   2  -3  -2  858.21   55.89
   2  -3  -2  785.82   48.58
  -2  -3   2  839.88   50.05
   2  -3  -2  829.77   56.27
   2  -3  -1  725.10   45.51
   2  -3  -1  763.75   50.73
   2  -3  -1  760.50   44.83
  -2  -3   1  825.57   47.68
   2  -3  -1  780.43   51.40
  -2  -3   0  102.43   14.82
  -2  -3   0  133.46   17.15
   2  -3   0   97.30    8.35
  -2  -3   0  103.08   12.14
   2  -3   0  113.37   11.97
   2  -3   0  122.86   14.30
  -2  -3   0  110.16    9.74
  -2  -3   0  109.16   10.07
  -2  -3  -1    8.92    3.97
   2  -3   1    5.41    1.81
  -2  -3  -1    1.38    5.29
  -2  -3  -1    8.29    3.63
  -2  -3  -1    8.24    7.71
   2  -3   1   21.41    5.94
   2  -3   1    8.07    2.23
  -2  -3  -1    6.43    3.91
  -2  -3  -2  629.70   40.16
  -2  -3  -2  663.68   48.52
   2  -3   2  569.54   37.58
   2  -3   2  578.27   44.97
  -2  -3  -2  692.87   40.91
  -2  -3  -2  638.64   40.61
   2  -3   3  633.40   48.36
  -2  -3  -3  667.69   51.90
  -2  -3  -3  686.13   44.05
  -2  -3  -3  674.57   44.49
  -2  -3  -3  666.00   44.20
  -2  -3  -4    7.73    4.95
  -2  -3  -4    8.38    6.90
  -2  -3  -4    8.72    3.80
   2  -3   4    3.11    3.04
  -2  -3  -5   82.91   15.57
  -2  -3  -5   61.15    8.93
  -2  -3  -5   77.60    9.13
   2  -3   5   50.17   10.40
  -2  -3  -5   94.23   11.93
  -2  -3  -5   93.92   11.87
  -2  -3  -6   62.91   10.55
  -2  -3  -6   64.22   10.84
   2  -3   6   47.05   10.35
  -2  -3  -6   79.01    9.69
  -2  -3  -6   65.86    9.00
  -2  -3  -6   67.44   14.74
  -2  -3  -6   61.89    9.30
  -2  -3  -6   64.29    9.48
  -2  -3  -7   18.35    6.44
   2  -3   7   18.59    8.39
  -2  -3  -7   24.79    6.46
  -2  -3  -7   26.27    6.96
  -2  -3  -7   19.38    5.49
  -2  -3  -7   36.67    6.97
  -2  -3  -8   20.68    5.48
   2  -3   8   21.35    8.39
  -2  -3  -8   31.32    7.12
  -2  -3  -8   25.29    6.34
  -2  -3  -8   23.06    6.29
  -2  -3  -9   50.37    5.82
  -2  -3  -9   48.81    8.26
  -2  -3  -9   70.42    8.38
   2  -3   9   62.11   11.66
  -2  -3  -9   57.08    6.91
   2  -3  10   28.40    7.11
  -2  -3 -10   26.81    3.22
   2  -3  10   18.27    4.20
   2  -2 -11   24.03    2.90
   2  -2 -11   42.39    4.91
   2  -2 -10   81.62    9.17
   2  -2 -10   92.28   10.11
   2  -2 -10   86.99    7.88
   2  -2  -9   43.06    8.31
   2  -2  -9   45.73    8.21
   2  -2  -9   49.04    6.24
   2  -2  -8   42.47   11.80
   2  -2  -8   43.28    8.95
   2  -2  -8   47.19    6.57
   2  -2  -7  175.95   24.81
   2  -2  -7  183.79   18.00
   2  -2  -7  204.43   19.46
   2  -2  -7  187.44   16.38
   2  -2  -7  189.18   15.27
   2  -2  -6   16.82    3.82
   2  -2  -6    7.23    3.97
   2  -2  -6   11.17    5.02
   2  -2  -6    7.63    6.66
   2  -2  -6   16.30    5.98
   2  -2  -5  122.02   17.91
   2  -2  -5  131.42   11.87
   2  -2  -5  121.20   12.44
   2  -2  -5  120.79   13.22
   2  -2  -5  138.57   10.82
   2  -2  -5  102.51   15.31
   2  -2  -4  152.04   16.19
   2  -2  -4  164.52   19.49
   2  -2  -4  127.31   15.12
   2  -2  -3  329.06   26.70
   2  -2  -3  353.87   29.45
   2  -2  -2  155.67   15.48
   2  -2  -1  429.98   26.30
   2  -2  -1  444.90   32.61
  -2  -2   0   68.53    9.80
  -2  -2   0   53.00    6.67
  -2  -2   0   40.31    8.89
   2  -2   0   51.10    6.41
   2  -2   0   56.50    5.16
   2  -2   0   67.19    9.34
  -2  -2  -1  322.25   26.04
   2  -2   1  261.20   17.12
   2  -2   1  281.36   23.42
  -2  -2  -2  375.90   32.55
   2  -2   2  406.96   30.84
  -2  -2  -3 1177.59   71.04
   2  -2   3 1108.38   74.05
  -2  -2  -4  804.79   53.16
  -2  -2  -4  868.87   62.53
   2  -2   4  749.41   54.01
  -2  -2  -4  877.39   53.95
  -2  -2  -5   34.59    7.99
  -2  -2  -5   46.42   11.78
  -2  -2  -5   41.95    6.33
  -2  -2  -5   41.38    6.74
  -2  -2  -5   48.80    8.95
  -2  -2  -6  494.34   36.14
  -2  -2  -6  461.11   44.55
  -2  -2  -6  450.48   32.42
  -2  -2  -6  465.68   33.33
  -2  -2  -6  453.25   32.59
  -2  -2  -6  502.60   35.95
  -2  -2  -6  472.65   35.54
  -2  -2  -7   66.69   10.54
  -2  -2  -7   76.64   10.34
  -2  -2  -7   78.95   10.19
  -2  -2  -7   52.10   10.69
  -2  -2  -7   76.13   10.54
  -2  -2  -7   59.79    8.78
   2  -2   7   67.76   12.19
  -2  -2  -8   23.80    6.28
  -2  -2  -8   27.37    6.58
  -2  -2  -8   37.77    7.31
  -2  -2  -8   36.80    7.76
   2  -2   8   32.53    9.22
  -2  -2  -8   36.83    7.32
  -2  -2  -9   56.21    8.70
  -2  -2  -9   60.49    8.70
  -2  -2  -9   49.62    7.48
   2  -2   9   40.23   10.74
  -2  -2 -10    0.35    2.52
  -2  -2 -10    2.83    2.00
  -2  -2 -10    1.33    2.85
   2  -2  10    4.31    5.02
   2  -1 -11    8.84    2.01
   2  -1 -10    4.99    3.39
   2  -1  -9   29.61    6.96
   2  -1  -8  240.91   22.27
   2  -1  -8  294.82   33.71
  -2  -1   7  255.79   32.25
   2  -1  -7  298.56   32.39
   2  -1  -7  239.16   22.52
   2  -1  -7  231.38   18.35
   2  -1  -6  275.76   32.22
   2  -1  -6  310.86   22.95
   2  -1  -6  309.28   24.85
  -2  -1   6  300.97   34.15
   2  -1  -6  320.03   25.94
   2  -1  -6  348.27   22.69
   2  -1  -5  170.68   14.01
   2  -1  -5  180.71   15.13
   2  -1  -5  161.21   14.92
   2  -1  -5  177.29   16.14
   2  -1  -5  178.95   13.31
   2  -1  -5  134.30   19.03
  -2  -1   4  360.51   30.56
   2  -1  -4  349.24   25.60
   2  -1  -4  288.06   27.69
  -2  -1   3 2024.25  127.10
   2  -1  -3 2150.31  125.76
   2  -1  -2  979.13   62.55
   2  -1  -1  124.11   13.69
   2  -1  -1  104.52   12.68
   2  -1   0 1211.54   74.04
  -2  -1   0 1152.12   74.53
   2  -1   0 1161.95   74.66
   2  -1   1  614.56   42.86
   2  -1   1  562.20   39.72
  -2  -1  -1  581.37   40.28
   2  -1   1  542.62   39.35
   2  -1   2   81.69   13.56
  -2  -1  -2   88.22   12.54
   2  -1   2   95.58   11.14
   2  -1   2   89.60   10.50
   2  -1   3   84.69   15.93
   2  -1   3  116.30   12.40
   2  -1   3  109.86   12.07
  -2  -1  -3   93.45   14.16
   2  -1   3   99.93   12.90
   2  -1   4  480.09   37.17
   2  -1   4  491.21   40.88
   2  -1   5  149.93   25.20
   2  -1   5  129.66   15.14
  -2  -1  -5  126.59   12.37
  -2  -1  -5  177.05   22.58
   2  -1   5  124.63   18.79
  -2  -1  -5  158.66   14.89
  -2  -1  -6   30.92    7.69
   2  -1   6   37.42   11.98
  -2  -1  -6   26.24   10.34
  -2  -1  -6   28.77    6.05
  -2  -1  -6   29.19    6.06
  -2  -1  -6   38.05    7.45
  -2  -1  -7   12.86    5.81
  -2  -1  -7   23.79    7.32
  -2  -1  -7   19.46    5.69
  -2  -1  -7   12.57    4.82
   2  -1   7   18.76   10.25
  -2  -1  -7   24.92    6.70
  -2  -1  -8   37.89    7.53
  -2  -1  -8   45.96    8.93
  -2  -1  -8   43.04    7.56
  -2  -1  -8   41.37    8.05
  -2  -1  -8   42.51    7.86
  -2  -1  -8   26.88   14.19
   2  -1   9  182.92   21.13
  -2  -1  -9  164.23   15.86
  -2  -1 -10   79.59    9.05
  -2  -1 -10  108.31   10.40
  -2  -1 -10   90.73    8.07
   2  -1  10   88.72   12.94
   2  -1  11  129.89   12.38
  -2  -1 -11  135.68    9.33
   2   0 -11    5.30    1.79
   2   0 -11    1.89    1.36
   2   0 -10   43.99    7.20
   2   0 -10   48.77    8.08
   2   0 -10   59.67    6.32
   2   0  -9   16.18    4.22
   2   0  -9   19.20    6.61
   2   0  -9   11.92    5.80
  -2   0   8   46.68   14.24
   2   0  -8   74.74   10.98
   2   0  -8   79.26   16.49
   2   0  -8   74.72    8.37
   2   0  -7  103.69   18.93
  -2   0   7  125.19   21.45
   2   0  -7  127.72   15.34
   2   0  -7  122.72   11.40
  -2   0   6   14.14    7.39
   2   0  -6   11.73    3.60
   2   0  -6   24.80    8.67
   2   0  -6    7.36    5.05
   2   0  -5    1.74    2.17
   2   0  -5    2.31    3.29
  -2   0   5   -1.58    3.48
   2   0  -5    0.68    3.66
   2   0  -5   -1.57    5.18
   2   0  -4  975.28   67.93
   2   0  -3  575.36   42.84
   2   0  -2  410.50   32.22
   2   0  -2  449.53   30.21
   2   0  -2  427.55   32.44
  -2   0   2  389.29   27.89
   2   0  -1   87.64   11.40
   2   0  -1   90.99   10.41
   2   0   0 1388.14   84.80
   2   0   0 1423.19   86.89
  -2   0   0 1308.51   83.46
   2   0   0 1592.15   86.60
   2   0   0 1303.13   86.37
   2   0   1    1.99    3.57
   2   0   1    5.31    4.13
   2   0   1    4.46    4.33
   2   0   2   14.66    7.14
   2   0   2   13.59    4.22
   2   0   2   14.54    5.15
  -2   0  -2   18.75    6.77
   2   0   2   10.22    3.77
   2   0   3  135.84   19.52
   2   0   3  143.69   15.01
  -2   0  -3  124.26   16.13
   2   0   3   98.60   11.60
   2   0   4  148.25   16.56
   2   0   5  521.62   52.29
   2   0   5  530.73   40.36
  -2   0  -5  606.25   48.07
   2   0   5  456.94   36.31
   2   0   5  485.28   43.57
  -2   0  -5  524.80   33.35
  -2   0  -5  493.24   33.48
   2   0   6   -3.45    9.30
  -2   0  -6    0.64    3.61
   2   0   6    9.47    4.21
  -2   0  -6    4.62    3.42
   2   0   6    2.24    6.03
  -2   0  -6    2.66    3.15
  -2   0  -6    0.72    4.32
   2   0   7    4.06   11.86
  -2   0  -7   23.68    7.06
  -2   0  -7   31.61    6.37
   2   0   7   20.54    7.95
   2   0   7   16.38    8.58
  -2   0  -7   18.76    5.55
  -2   0  -7   18.81    5.92
  -2   0  -7   32.91    6.88
  -2   0  -8    2.86    3.52
  -2   0  -8    2.46    4.32
  -2   0  -8    2.10    4.01
   2   0   8   11.89    6.54
  -2   0  -8    3.20    4.73
  -2   0  -8    7.16    4.35
  -2   0  -8    3.77    8.28
  -2   0  -9   53.15    8.90
  -2   0  -9   63.38    9.26
  -2   0 -10   67.38    8.15
   2   0  10   74.62   11.64
  -2   0 -10   59.06    6.37
   2   0  11  121.01   12.38
  -2   0 -11  112.03    9.49
  -2   0 -11  131.17    8.88
   2   1 -11    9.69    2.03
   2   1 -11   11.97    2.23
   2   1 -10    2.66    2.07
   2   1 -10    1.85    4.02
   2   1 -10    1.00    3.34
   2   1  -9   36.71    5.65
   2   1  -9   40.25    7.70
   2   1  -9   47.37    8.86
   2   1  -8  231.72   29.84
   2   1  -8  240.41   22.85
   2   1  -8  276.08   22.97
  -2   1   8  244.88   32.30
   2   1  -8  246.57   19.11
   2   1  -7  240.39   29.19
  -2   1   7  212.03   29.80
   2   1  -7  235.40   21.79
   2   1  -7  244.70   21.67
   2   1  -7  236.64   18.16
   2   1  -6  340.49   34.16
   2   1  -6  359.89   25.88
   2   1  -6  314.88   25.62
   2   1  -6  327.60   26.47
   2   1  -6  288.80   21.87
   2   1  -5  187.98   22.76
   2   1  -5  182.34   16.78
   2   1  -5  175.95   13.54
   2   1  -4  326.52   32.13
   2   1  -4  326.36   30.20
   2   1  -3 2107.91  135.31
   2   1  -3 2207.51  135.23
   2   1  -3 2237.18  134.20
   2   1  -2 1035.48   64.18
   2   1  -2  979.08   62.74
   2   1  -2  985.50   64.55
   2   1  -2  853.13   63.32
  -2   1   1   83.20    7.45
   2   1  -1  116.15   11.75
   2   1  -1  101.86   12.61
   2   1   0 1174.64   74.42
  -2   1  -1  556.88   37.81
  -2   1  -2   92.73   13.10
  -2   1  -3  139.32   17.70
   2   1   3  125.92   15.92
   2   1   4  640.22   46.61
  -2   1  -4  568.65   49.10
   2   1   5  127.42   24.24
   2   1   5  129.85   17.38
   2   1   5  115.14   13.83
  -2   1  -6   36.80    6.70
   2   1   6   32.76   15.08
   2   1   6   24.14    7.62
  -2   1  -6   40.88    6.19
   2   1   6   30.69    9.41
  -2   1  -6   36.98    5.82
  -2   1  -6   11.70   10.34
   2   1   7   16.76   13.06
   2   1   7   15.62    5.81
  -2   1  -7   28.69    7.54
  -2   1  -7   17.13    4.90
   2   1   7   31.04   12.05
  -2   1  -7   17.06    4.78
  -2   1  -7   17.27    5.92
  -2   1  -7   13.78   12.01
  -2   1  -7   13.61    5.18
   2   1   8   34.95   16.07
  -2   1  -8   36.54    7.08
  -2   1  -8   34.91    7.46
   2   1   8   32.57    9.85
   2   1   8   54.11   14.18
  -2   1  -8   43.41    7.91
  -2   1  -8   48.14    8.46
  -2   1  -8   18.35   13.55
  -2   1  -9  193.01   17.44
  -2   1  -9  176.88   17.03
   2   1  10   94.79   13.03
  -2   1 -10   82.61    7.80
  -2   1 -11  134.14    9.40
   2   1  11  137.33   12.97
   2   2 -11   37.96    3.78
   2   2 -11   52.10    4.59
   2   2 -10   87.42    7.80
   2   2  -9   31.53    7.12
   2   2  -9   47.20    8.62
   2   2  -9   46.26    5.88
   2   2  -8   44.90   11.56
   2   2  -8   53.33    9.45
  -2   2   8   44.50   12.14
   2   2  -8   38.86    8.43
   2   2  -8   47.02    6.34
   2   2  -7  172.80   24.00
   2   2  -7  191.24   18.71
   2   2  -7  199.74   18.62
   2   2  -7  180.45   14.88
   2   2  -6   11.46    3.31
   2   2  -6   19.15    5.96
   2   2  -6    6.00    5.05
   2   2  -6   11.15    7.10
   2   2  -5  191.43   26.15
   2   2  -5  153.36   14.86
   2   2  -5  130.13   13.56
   2   2  -5  168.04   20.38
   2   2  -5  131.71   11.28
   2   2  -4  203.90   25.45
   2   2  -4  204.65   22.06
   2   2  -4  184.37   19.47
   2   2  -3  390.70   34.61
   2   2  -3  366.94   33.81
   2   2  -3  346.90   30.36
   2   2  -3  336.90   29.46
   2   2  -2  133.53   17.39
  -2   2   1  508.08   30.85
  -2   2   1  398.95   30.41
   2   2  -1  451.64   27.49
   2   2  -1  460.04   34.02
   2   2   0   57.51    9.08
  -2   2   0   69.79    8.60
  -2   2   0   49.87    5.97
   2   2   1  319.49   25.13
  -2   2  -1  252.86   21.84
  -2   2  -1  313.11   25.03
   2   2   1  297.21   21.90
   2   2   1  285.74   18.24
   2   2   2  401.03   30.82
  -2   2  -2  339.03   29.27
  -2   2  -2  416.81   32.03
  -2   2  -2  312.77   28.58
  -2   2  -3  889.97   68.14
  -2   2  -3  929.23   68.64
  -2   2  -4  611.28   51.14
  -2   2  -5   42.90    6.46
   2   2   5   37.21    8.12
  -2   2  -5   42.03   12.52
   2   2   6  547.00   60.50
  -2   2  -6  511.19   33.10
   2   2   6  403.84   35.49
  -2   2  -6  352.29   45.51
   2   2   7  122.36   29.12
   2   2   7   69.49   14.75
   2   2   7   47.10   11.28
  -2   2  -7   76.60   10.55
  -2   2  -7  101.24   11.53
  -2   2  -7   63.97   18.23
   2   2   8   17.68    9.91
   2   2   8   37.95    9.53
  -2   2  -8   32.24    6.83
  -2   2  -8   45.42    8.30
  -2   2  -8   31.12    7.10
  -2   2  -8   39.00   13.07
   2   2   8   48.12   13.36
   2   2   9   67.25   12.05
  -2   2  -9   67.34    9.35
  -2   2  -9   61.29    9.09
  -2   2 -10   -0.80    2.14
  -2   2 -10    2.36    3.07
   2   2  11   28.68    5.24
  -2   2 -11   26.28    3.62
   2   3 -10    4.39    1.89
   2   3 -10    0.35    2.34
   2   3  -9    5.20    2.45
   2   3  -9    2.54    3.22
   2   3  -8  235.85   27.51
   2   3  -8  250.53   21.57
   2   3  -8  258.29   22.43
   2   3  -8  223.63   17.42
   2   3  -7  194.11   24.92
   2   3  -7  203.30   19.92
   2   3  -7  192.24   18.49
   2   3  -7  190.63   15.16
   2   3  -6  158.67   28.21
   2   3  -6  169.73   23.13
   2   3  -6  170.76   14.93
   2   3  -6  166.76   17.36
   2   3  -6  207.43   19.29
   2   3  -6  211.03   14.89
   2   3  -5  181.22   26.13
   2   3  -5  129.84   18.56
   2   3  -5  159.23   15.38
   2   3  -5  121.77   10.70
   2   3  -4  312.51   35.21
   2   3  -4  331.16   30.17
   2   3  -4  360.67   25.21
   2   3  -4  283.02   23.17
   2   3  -4  290.03   27.34
   2   3  -3   32.53   10.25
   2   3  -2  898.04   66.82
   2   3  -2  877.69   59.77
  -2   3   1  758.05   53.87
   2   3  -1  832.28   47.81
   2   3  -1  775.68   54.15
  -2   3   0  106.47   10.71
   2   3   0  130.28   14.10
  -2   3   0  109.91   12.28
   2   3   0  108.66   12.19
   2   3   1    4.83    1.73
   2   3   1    3.15    4.63
   2   3   1    5.19    4.36
   2   3   2  632.20   46.48
  -2   3  -2  588.72   46.97
  -2   3  -3  567.78   46.85
  -2   3  -3  531.45   45.28
  -2   3  -4    6.43    7.07
  -2   3  -4   -1.96    5.70
  -2   3  -5   74.53    8.81
  -2   3  -5   63.11   15.86
   2   3   6   45.33   20.11
   2   3   6   47.84   10.23
  -2   3  -6   83.86   10.00
  -2   3  -6   77.97    9.72
  -2   3  -6   61.28   16.80
   2   3   7   13.59   10.06
  -2   3  -7   28.03    6.83
   2   3   7   17.68    8.53
   2   3   7   30.71    8.86
  -2   3  -7   28.59    6.25
  -2   3  -8   22.37    6.11
  -2   3  -8   25.16    6.31
  -2   3  -9   52.67    8.67
  -2   3  -9   54.67    8.04
  -2   3 -10   35.60    5.21
  -2   3 -10   24.51    3.33
   2   4 -10   17.18    3.20
   2   4  -9   31.52    5.44
   2   4  -9   31.14    3.97
   2   4  -8   93.81    8.72
   2   4  -8  101.52   10.60
   2   4  -7  154.01   14.04
   2   4  -7  116.02   12.22
   2   4  -7  150.59   15.73
   2   4  -7  164.38   12.27
   2   4  -6  107.35   11.48
   2   4  -6   99.07   23.01
   2   4  -6  124.90   17.64
   2   4  -6  108.56   13.34
   2   4  -6  123.98   10.27
   2   4  -5   57.88   17.29
   2   4  -5   47.17    7.09
   2   4  -4  150.13   24.62
   2   4  -4  117.15   11.88
   2   4  -4  149.68   14.00
   2   4  -4  145.41   12.75
   2   4  -4  125.69   16.59
   2   4  -3  366.19   39.31
   2   4  -3  340.90   24.60
   2   4  -3  297.70   22.64
   2   4  -3  307.38   23.41
   2   4  -3  373.59   29.16
  -2   4   2   27.86    8.36
   2   4  -2   42.42    7.87
  -2   4   1   91.28   13.22
  -2   4   0  138.58   14.95
  -2   4   0  119.72   15.53
   2   4   0  139.94   16.11
   2   4   0  141.93   16.30
  -2   4  -1  545.93   43.18
   2   4   1  603.64   45.41
   2   4   1  630.24   45.64
   2   4   2 2615.51  158.20
   2   4   2 2427.76  156.30
  -2   4  -3  571.56   49.62
   2   4   3  523.73   36.83
  -2   4  -4  757.73   65.12
  -2   4  -5   79.24   20.23
  -2   4  -5  110.79   11.25
  -2   4  -6  200.66   17.06
  -2   4  -6  175.98   16.29
   2   4   7  295.01   46.09
   2   4   7  308.92   34.94
  -2   4  -7  285.96   22.84
   2   4   7  255.04   26.37
   2   4   8   10.41    7.33
  -2   4  -8   13.00    4.86
  -2   4  -9   17.81    2.92
  -2   4  -9   20.84    5.45
  -2   4  -9   19.86    4.53
   2   4   9   16.94    7.24
  -2   4 -10    2.18    1.97
   2   5 -10   45.67    4.47
   2   5 -10   50.32    4.45
   2   5  -9   50.98    6.02
   2   5  -8  164.55   14.28
   2   5  -7   55.02    7.81
   2   5  -7   55.00    7.59
   2   5  -6  172.59   32.25
   2   5  -6  184.27   16.49
   2   5  -6  191.94   16.68
  -2   5   5   78.98   17.02
   2   5  -5   73.69    9.31
   2   5  -5   51.96    8.08
   2   5  -5   60.53    8.44
   2   5  -4  180.04   32.05
   2   5  -4  213.38   17.69
  -2   5   4  191.45   25.79
   2   5  -4  180.12   16.35
   2   5  -4  199.72   17.34
   2   5  -3   84.71   19.71
   2   5  -3   65.65    8.89
  -2   5   3   75.53   14.81
   2   5  -3   58.81    7.58
   2   5  -3   59.20    8.65
  -2   5   2    1.68    4.89
   2   5  -2   -1.32    3.98
   2   5  -2    3.23    2.78
   2   5  -1  368.97   27.04
   2   5  -1  374.91   24.76
   2   5  -1  336.15   25.92
  -2   5   1  322.51   32.38
   2   5   0  259.40   25.22
   2   5   0  257.07   20.36
  -2   5  -1   79.87   13.78
   2   5   1   78.73   13.20
   2   5   1   75.39   13.61
   2   5   1   87.59    9.87
   2   5   2  137.87   19.02
   2   5   2  141.86   19.58
   2   5   2  128.39   12.93
   2   5   2  125.98   13.43
  -2   5  -3  146.43   24.84
   2   5   3  159.01   15.99
   2   5   3  196.58   24.66
  -2   5  -4 1082.55   92.91
   2   5   4 1347.71   92.91
   2   5   5   66.67   17.01
  -2   5  -5   53.81   17.38
  -2   5  -6   88.06   10.09
   2   5   7    1.14    6.16
  -2   5  -7    3.32    3.22
   2   5   8    1.03    5.18
  -2   5  -8   -1.85    3.13
  -2   5  -8   -0.77    4.79
   2   5   9   50.56    8.86
  -2   5  -9   46.02    5.52
  -2   5  -9   46.00    7.09
   2   6  -9   34.98    4.10
   2   6  -8   79.70    8.13
   2   6  -7   54.91    7.25
   2   6  -7   41.77    6.60
   2   6  -6   17.79    8.76
   2   6  -6    9.77    4.28
   2   6  -6    6.78    3.87
   2   6  -6   10.39    4.34
   2   6  -5    7.52   10.15
   2   6  -5   13.18    5.11
  -2   6   5   16.53    6.90
   2   6  -5   11.92    4.26
   2   6  -5   13.63    5.10
   2   6  -4  161.13   31.91
   2   6  -4  167.14   16.20
  -2   6   4  158.93   24.46
   2   6  -4  161.75   14.66
   2   6  -4  165.98   16.05
   2   6  -3  201.13   33.67
   2   6  -3  185.82   17.63
  -2   6   3  190.15   25.68
   2   6  -3  175.70   15.25
   2   6  -2   20.09    6.72
   2   6  -2   17.07   13.55
   2   6  -2   14.17    3.77
   2   6  -2   10.23    5.02
  -2   6   2   20.39    8.72
   2   6  -1  122.32   13.72
   2   6  -1  113.41   12.57
   2   6  -1   96.17   10.14
  -2   6   1  123.77   19.01
   2   6   0  213.83   23.69
   2   6   0  247.78   20.37
   2   6   0  238.03   17.77
   2   6   1  125.57   17.44
   2   6   1  103.42   17.84
   2   6   1  114.37   12.52
   2   6   1  116.37   13.47
   2   6   2   94.26   16.42
  -2   6  -2  107.20   12.63
   2   6   2  110.44   12.28
   2   6   2  100.56   17.82
   2   6   2  114.27   13.02
   2   6   2  107.40   10.61
   2   6   3  391.39   37.52
  -2   6  -3  326.17   41.04
   2   6   3  348.40   38.32
   2   6   3  364.56   28.90
  -2   6  -3  335.97   28.28
   2   6   4   28.73   10.38
  -2   6  -4    9.29    9.71
  -2   6  -4   24.48    7.91
   2   6   4   27.68   10.42
  -2   6  -5  328.35   43.63
  -2   6  -5  371.51   31.28
   2   6   5  388.79   42.99
   2   6   6   63.87   13.91
  -2   6  -6   25.82    8.11
  -2   6  -7   15.96    7.06
   2   6   7    9.14    5.83
   2   6   8   -1.65    4.81
  -2   6  -9   33.82    5.48
   2   6   9   34.94    6.05
  -2   6  -9   25.80    4.18
  -2   7   8   12.57    3.64
   2   7  -7   64.30    6.80
   2   7  -7   65.65    7.59
   2   7  -6   60.09    7.35
   2   7  -6   64.03    8.46
   2   7  -5  170.77   16.29
   2   7  -5  177.66   15.06
   2   7  -5  189.73   16.92
   2   7  -4   15.74   11.44
   2   7  -4    0.79    4.36
   2   7  -4    5.37    4.55
   2   7  -4    2.04    2.98
  -2   7   4   18.71    7.27
   2   7  -3  553.66   63.30
   2   7  -3  611.26   42.32
  -2   7   3  547.20   52.69
   2   7  -2  100.95   24.71
   2   7  -2   94.34   12.89
  -2   7   2   89.55   18.26
   2   7  -2  102.17   12.13
   2   7  -2   88.93    9.86
   2   7  -1  258.18   22.15
   2   7  -1  254.15   19.22
  -2   7   0  181.66   17.46
   2   7   0  236.72   19.67
   2   7   1  120.58   17.70
  -2   7  -1  124.60   13.72
   2   7   1  127.74   13.77
   2   7   1  112.85   14.21
   2   7   2  135.53   19.97
  -2   7  -2  133.15   14.73
   2   7   2  149.10   23.28
   2   7   2  149.09   14.75
   2   7   2  132.48   15.50
   2   7   3   59.40   14.39
  -2   7  -3   52.12   15.70
  -2   7  -3   88.13   11.90
   2   7   3   92.39   12.56
   2   7   3   92.11   18.07
   2   7   4   56.76   13.66
   2   7   4   57.23   13.82
  -2   7  -4   53.56   10.17
  -2   7  -5   77.27   11.82
  -2   7  -6   74.65   11.18
   2   7   7   10.15    5.16
  -2   7  -7    1.35    4.59
   2   7   8    7.94    3.67
  -2   7  -8   11.46    3.64
   2   8  -7   10.53    2.90
   2   8  -7   13.19    2.90
   2   8  -6   24.98    4.87
   2   8  -6   16.01    4.06
   2   8  -5   68.72    8.90
   2   8  -5   69.82    8.03
   2   8  -4   61.26    9.29
   2   8  -4   58.14    6.78
   2   8  -4   59.70    7.55
   2   8  -3  193.65   32.09
   2   8  -3  158.58   16.21
   2   8  -3  162.88   15.90
   2   8  -3  131.72   12.65
   2   8  -2  103.46   24.39
   2   8  -2   90.85   11.49
   2   8  -2   75.72    8.49
   2   8  -1  420.53   53.60
   2   8  -1  413.47   31.54
   2   8   0   87.82   12.15
  -2   8   0   63.56    9.58
   2   8   0   82.15   10.98
  -2   8  -1  172.27   17.63
   2   8   1  213.86   19.84
   2   8   1  201.82   18.25
  -2   8  -2  117.24   13.37
  -2   8  -2  103.52   13.46
  -2   8  -3  123.91   14.08
  -2   8  -3  111.13   14.04
   2   8   3  145.68   15.46
  -2   8  -4   38.14    7.53
   2   8   4   20.31    4.59
  -2   8  -4   22.93    6.81
  -2   8  -5   61.78    9.45
  -2   8  -5   43.33    8.36
  -2   8  -6    2.49    4.32
   2   8   6   -0.63    3.58
  -2   8  -6    2.94    4.08
   2   9  -6   41.23    5.16
   2   9  -5   47.05    5.92
   2   9  -5   48.16    4.94
   2   9  -4  224.45   18.63
   2   9  -4  253.06   19.44
   2   9  -3   36.42    6.87
   2   9  -3   37.41    6.97
   2   9  -2  279.14   23.05
   2   9  -2  275.67   22.49
   2   9  -1  266.42   21.96
   2   9   0   19.01    6.40
   2   9   0    9.38    4.35
  -2   9  -1   46.55    8.00
   2   9   1   74.01   10.70
  -2   9  -2   -4.07    4.47
   2   9   2    3.95    4.76
  -2   9  -3   58.39    9.03
  -2   9  -4   36.67    6.96
   2   9   4   43.17    5.34
  -2   9  -5    5.41    3.48
  -2   9  -6    8.27    3.02
  -2   9  -6    2.88    1.99
   2  10  -4   13.85    3.28
   2  10  -4   22.82    4.10
   2  10  -3  113.91   10.70
   2  10  -3  108.04    9.09
   2  10  -3  134.21   11.14
   2  10  -2    7.95    4.07
   2  10  -2   10.65    3.00
   2  10  -2    9.37    3.96
   2  10  -1   15.69    4.33
   2  10   0   95.51   10.68
   2  10   1   17.26    5.07
  -2  10  -2   46.26    6.28
   2  10   2   58.16    6.50
  -2  10  -3    2.60    2.70
   2  10   3   -1.44    2.01
  -2  10  -4   13.91    3.14
  -2  10  -5    9.23    2.40
   2  11  -1   47.17    4.81
   2  11   0   39.31    4.49
   2  11   1   15.36    2.76
   3 -10  -3   37.65    4.57
   3 -10  -3   26.26    4.51
   3 -10  -2   32.50    5.27
   3 -10  -1  107.22   10.43
  -3 -10   0   31.52    4.20
   3 -10   0   41.21    6.33
   3 -10   1    3.82    3.25
   3 -10   1    7.94    3.70
  -3 -10  -1    8.25    2.57
  -3 -10  -2   62.77    6.11
   3 -10   2   53.23    6.68
   3 -10   2   45.16    6.11
   3 -10   3    6.84    3.02
  -3 -10  -3   11.54    2.68
   3  -9  -5    6.42    2.99
   3  -9  -4   -0.47    3.39
   3  -9  -3   29.04    6.27
  -3  -9   2   87.60    9.18
   3  -9  -2  102.25   11.65
  -3  -9   1   17.99    4.49
   3  -9  -1   18.09    6.71
   3  -9  -1   13.71    6.17
   3  -9   0   16.30    6.61
  -3  -9   0   19.12    5.09
  -3  -9  -1   29.29    5.63
   3  -9   1   20.34    6.73
   3  -9   1   21.11    6.57
  -3  -9  -2   40.81    6.39
   3  -9   2   42.65    8.39
  -3  -9  -2   41.47    5.49
   3  -9   2   25.17    6.36
  -3  -9  -2   31.61    5.56
   3  -9   3    9.68    5.27
  -3  -9  -3    5.55    3.04
   3  -9   3    1.53    4.01
  -3  -9  -3    4.85    3.21
  -3  -9  -3    6.52    3.17
   3  -9   4   56.30    8.08
  -3  -9  -4   58.56    6.91
   3  -9   5   12.29    3.86
  -3  -9  -5   17.30    3.32
   3  -8  -7   13.26    2.91
   3  -8  -6   27.56    5.01
   3  -8  -6   35.97    4.17
   3  -8  -6   20.70    4.61
   3  -8  -5   41.45    5.06
   3  -8  -5   44.07    7.53
   3  -8  -4   57.36    8.96
   3  -8  -3  113.26   13.54
   3  -8  -3  112.84   11.47
   3  -8  -2   52.79    7.76
   3  -8  -2   57.85    9.98
   3  -8  -2   55.22   10.73
   3  -8  -1  106.84   14.05
   3  -8  -1   79.33    9.91
   3  -8   0  159.84   17.92
   3  -8   0  142.44   16.33
   3  -8   0  128.32   13.11
  -3  -8   0  144.26   13.63
   3  -8   1  133.63   14.22
  -3  -8  -1  144.21   14.43
   3  -8   1  136.87   16.93
  -3  -8  -1  117.49   12.92
   3  -8   2    0.72    3.87
  -3  -8  -2    8.07    4.50
   3  -8   3    8.97    4.52
  -3  -8  -3    7.97    3.72
  -3  -8  -3    1.97    3.70
  -3  -8  -4   26.03    5.08
  -3  -8  -4   18.06    5.54
  -3  -8  -4   11.49    4.52
   3  -8   4   16.26    4.64
  -3  -8  -5   17.85    4.50
  -3  -8  -5   12.34    3.77
   3  -8   5   12.59    3.72
  -3  -8  -5    6.68    3.45
   3  -8   6   45.57    5.23
  -3  -8  -6   52.92    5.90
   3  -7  -8    6.71    1.84
   3  -7  -7    4.08    3.08
   3  -7  -7    3.86    2.83
   3  -7  -6   26.57    5.87
   3  -7  -6   38.99    6.96
   3  -7  -5  175.84   17.08
   3  -7  -4   94.43   13.02
   3  -7  -4  119.97   12.39
  -3  -7   3   48.67   13.49
   3  -7  -3   32.55    8.71
   3  -7  -3   28.47    7.17
   3  -7  -3   39.46    9.66
   3  -7  -2   98.45   11.23
  -3  -7   2  111.54   21.84
   3  -7  -2   72.53    8.37
   3  -7  -2   83.58   12.73
   3  -7  -2   99.35   17.10
   3  -7  -1   36.00    7.63
   3  -7  -1   31.30    6.91
   3  -7  -1   24.44   10.22
  -3  -7   1   36.89   13.71
  -3  -7   1   30.74    5.87
   3  -7   0  690.78   45.44
  -3  -7   0  620.08   59.83
  -3  -7   0  604.15   42.60
   3  -7   0  625.14   56.22
  -3  -7  -1   49.02   11.52
   3  -7   1   32.88   10.81
   3  -7   1   57.59    9.47
  -3  -7  -1   42.67    7.77
   3  -7   2  102.37   12.42
  -3  -7  -2  107.73   12.25
  -3  -7  -2  111.38   17.50
   3  -7   2   87.52   17.06
  -3  -7  -2   77.21   10.72
  -3  -7  -2   99.42   13.24
   3  -7   3  118.80   17.58
   3  -7   3   95.38   12.55
  -3  -7  -3   90.31   13.49
  -3  -7  -4  133.69   13.82
  -3  -7  -4  121.84   12.78
   3  -7   4   97.22   12.31
   3  -7   5  306.89   25.37
  -3  -7  -5  370.87   26.66
  -3  -7  -5  354.11   25.81
  -3  -7  -5  349.64   24.51
   3  -7   6   88.29    9.79
  -3  -7  -6  109.58   10.71
  -3  -7  -6   97.19    9.27
  -3  -7  -6   83.52    9.73
   3  -7   7   11.53    3.25
  -3  -7  -7   15.85    3.97
  -3  -7  -7   17.11    3.19
  -3  -7  -8    3.95    1.51
   3  -6  -8   18.19    3.96
   3  -6  -7   20.02    5.36
   3  -6  -7   16.23    5.30
   3  -6  -6   16.68    5.76
   3  -6  -6   28.53    6.94
  -3  -6   5  106.99   20.48
   3  -6  -5   85.40   11.20
  -3  -6   4    2.97    8.02
   3  -6  -4   10.36    5.73
   3  -6  -4   11.80    6.57
   3  -6  -4   17.68    5.89
   3  -6  -3  351.76   34.12
  -3  -6   3  351.61   40.88
   3  -6  -3  311.86   27.63
   3  -6  -3  288.53   26.11
   3  -6  -3  312.41   24.93
   3  -6  -2  215.08   27.82
  -3  -6   2  264.12   34.97
   3  -6  -2  247.61   23.38
   3  -6  -2  235.72   20.46
  -3  -6   1   46.80   14.96
   3  -6  -1   27.93    8.09
   3  -6  -1   42.92    9.17
   3  -6  -1   40.34   11.13
  -3  -6   1   35.08    6.24
  -3  -6   0  141.69   24.06
   3  -6   0  115.18   19.85
  -3  -6   0  148.75   13.86
  -3  -6   0  128.62   14.90
   3  -6   1  214.94   20.12
  -3  -6  -1  214.50   28.26
  -3  -6  -1  199.26   20.14
   3  -6   1  252.44   29.48
   3  -6   2  712.71   57.46
  -3  -6  -2  708.87   59.08
  -3  -6  -2  635.02   47.22
   3  -6   3  169.98   22.96
  -3  -6  -3  121.92   24.28
  -3  -6  -3  182.11   16.68
  -3  -6  -3  163.36   24.34
  -3  -6  -3  155.79   17.55
  -3  -6  -4  157.93   29.27
  -3  -6  -4  243.16   20.21
  -3  -6  -5  175.00   16.36
  -3  -6  -5  147.98   16.71
  -3  -6  -6  198.70   17.24
  -3  -6  -6  186.51   15.92
  -3  -6  -6  169.71   17.44
  -3  -6  -7   57.55    7.18
   3  -6   8    5.02    2.56
  -3  -6  -8    7.60    2.59
   3  -5  -9    0.65    2.30
   3  -5  -9    0.76    1.69
   3  -5  -8   40.08    6.98
   3  -5  -7   31.70    7.06
   3  -5  -7   30.67    7.31
   3  -5  -6  187.75   17.29
   3  -5  -6  162.12   17.78
   3  -5  -5   87.52   11.90
   3  -5  -4  251.07   26.61
  -3  -5   4  271.01   36.02
   3  -5  -4  237.28   22.39
   3  -5  -4  257.20   21.72
  -3  -5   3   99.74   21.11
   3  -5  -3   95.05   12.96
   3  -5  -3  138.55   15.36
   3  -5  -3  109.79   12.60
   3  -5  -3  102.42   16.78
   3  -5  -2  313.44   34.44
   3  -5  -2  406.17   28.67
  -3  -5   2  363.33   41.55
   3  -5  -2  356.56   29.83
   3  -5  -1  104.26   12.27
  -3  -5   1  132.20   22.47
   3  -5  -1  108.90   13.81
   3  -5  -1  110.97   13.60
   3  -5  -1  106.96    9.86
  -3  -5   1  115.07   10.95
  -3  -5   1  115.26   12.63
   3  -5   0  113.96   12.52
  -3  -5   0  111.99   20.94
   3  -5   0   98.77   17.67
   3  -5   0  102.25    9.28
  -3  -5   0  125.51   13.22
   3  -5   1  206.60   25.22
  -3  -5  -1  174.02   17.34
  -3  -5  -1  180.09   26.89
  -3  -5  -2  160.90   15.87
   3  -5   2  164.76   21.81
  -3  -5  -2  116.54   21.95
  -3  -5  -2  170.09   24.15
  -3  -5  -2  117.56   14.41
  -3  -5  -3  386.85   28.46
  -3  -5  -3  278.43   37.72
   3  -5   3  295.40   32.73
   3  -5   3  326.87   29.84
  -3  -5  -3  346.40   37.04
  -3  -5  -3  286.12   26.08
  -3  -5  -4  158.01   17.55
  -3  -5  -4   98.29   23.66
  -3  -5  -4  169.06   24.73
   3  -5   4  143.27   19.76
  -3  -5  -4  169.36   16.09
  -3  -5  -5  143.79   17.12
  -3  -5  -5  137.51   27.11
  -3  -5  -5  144.90   21.03
  -3  -5  -5  183.91   16.29
  -3  -5  -5  139.85   15.43
  -3  -5  -5  129.42   15.93
  -3  -5  -6   68.35    9.76
   3  -5   6   79.49   13.36
  -3  -5  -6   76.31   10.13
  -3  -5  -6   69.95    9.34
  -3  -5  -6   62.84   10.18
  -3  -5  -7   87.94   10.50
   3  -5   7   66.42   12.17
  -3  -5  -7   87.56    9.24
  -3  -5  -7   51.58    8.67
  -3  -5  -8   32.76    5.83
  -3  -5  -8   24.11    4.40
  -3  -5  -9    5.47    2.63
  -3  -5  -9    2.23    1.41
   3  -4  -9   35.54    4.81
   3  -4  -9   36.26    5.99
   3  -4  -8   25.33    6.71
   3  -4  -7  143.36   13.98
   3  -4  -7  142.03   12.22
   3  -4  -7  143.79   15.41
   3  -4  -7  174.95   17.16
   3  -4  -6  117.89   10.92
   3  -4  -6  111.98   12.18
   3  -4  -6  134.94   15.93
   3  -4  -6  151.12   19.09
   3  -4  -5  197.42   15.88
   3  -4  -5  224.88   19.84
   3  -4  -5  215.25   20.55
   3  -4  -5  209.63   24.50
   3  -4  -4    4.29    4.72
   3  -4  -4    5.36    2.46
   3  -4  -4    6.02    5.17
   3  -4  -4    4.21    3.79
   3  -4  -4    6.28    4.88
   3  -4  -3   67.86   10.34
  -3  -4   3   67.18   16.34
   3  -4  -3   52.67    8.61
   3  -4  -3   65.46    6.81
   3  -4  -3   65.20   12.31
   3  -4  -3   69.55   12.60
   3  -4  -2  322.74   31.50
   3  -4  -2  342.15   21.46
   3  -4  -2  322.25   23.89
   3  -4  -2  331.93   25.93
   3  -4  -2  261.42   20.57
   3  -4  -2  332.98   22.21
  -3  -4   2  364.66   37.88
   3  -4  -2  295.75   24.55
   3  -4  -2  321.18   21.99
   3  -4  -1   80.75    7.33
   3  -4  -1   68.05    8.71
  -3  -4   1   53.70   14.10
   3  -4  -1   72.45    9.69
   3  -4  -1   66.14    6.37
   3  -4  -1   57.74    6.83
  -3  -4   1   83.64    9.45
   3  -4  -1   69.05    7.22
  -3  -4   0   97.07   10.23
   3  -4   0   88.33    7.88
   3  -4   0   85.34    7.91
   3  -4   0   77.26    7.00
  -3  -4   0  108.00   18.27
   3  -4   0   74.67   14.01
   3  -4   0   64.89    7.32
  -3  -4   0  101.89   10.81
  -3  -4   0   81.94    9.57
  -3  -4  -1  127.88   12.97
   3  -4   1  136.01   18.96
   3  -4   1  116.31   10.07
  -3  -4  -1   97.11   17.51
  -3  -4  -1  160.09   22.53
   3  -4   1  116.34    9.94
   3  -4   1  120.59    9.57
  -3  -4  -1  138.36   13.28
  -3  -4  -2   94.20   11.87
  -3  -4  -2   90.59   10.66
  -3  -4  -2   89.17   17.11
  -3  -4  -2   98.30   17.29
   3  -4   2   84.64   15.57
   3  -4   2   78.56   12.53
  -3  -4  -2   88.13   11.26
   3  -4   2   85.30    7.97
  -3  -4  -3  266.41   20.98
  -3  -4  -3  181.18   28.34
   3  -4   3  212.68   25.03
   3  -4   3  229.77   23.17
  -3  -4  -3  239.46   29.43
  -3  -4  -3  241.11   20.96
   3  -4   3  208.66   16.03
  -3  -4  -3  215.93   20.63
  -3  -4  -4  163.37   18.31
  -3  -4  -4  167.08   17.63
  -3  -4  -4  224.13   28.20
   3  -4   4  150.07   20.63
   3  -4   4  167.21   19.74
  -3  -4  -4  169.03   16.16
  -3  -4  -4  200.58   27.32
   3  -4   4  174.36   13.67
  -3  -4  -4  172.26   18.63
  -3  -4  -5  401.58   32.85
  -3  -4  -5  432.38   43.29
  -3  -4  -5  419.64   30.04
  -3  -4  -5  389.17   30.20
  -3  -4  -5  364.99   31.19
   3  -4   5  379.44   26.73
  -3  -4  -5  448.79   33.69
   3  -4   6   33.94    5.39
  -3  -4  -6   51.85   10.29
  -3  -4  -6   56.11   12.52
  -3  -4  -6   31.12    6.95
  -3  -4  -6   51.01    7.76
  -3  -4  -6   30.94    6.99
  -3  -4  -6   43.73    8.66
   3  -4   7   16.32    3.41
   3  -4   7   13.56    8.04
  -3  -4  -7   14.10    5.64
  -3  -4  -7    8.57    4.53
  -3  -4  -7   12.47    4.89
  -3  -4  -7    9.52    4.82
   3  -4   8   35.91    9.15
  -3  -4  -8   29.24    5.79
  -3  -4  -8   33.43    5.94
  -3  -4  -8   26.28    6.29
   3  -4   9   20.83    6.38
  -3  -4  -9   13.16    3.94
  -3  -4  -9   13.54    3.22
   3  -3 -10    2.72    2.43
   3  -3  -9   18.32    3.60
   3  -3  -9   17.63    4.89
   3  -3  -9   11.38    4.19
   3  -3  -9   15.02    3.16
   3  -3  -8   10.95    4.73
   3  -3  -8    7.37    6.06
   3  -3  -7  259.04   22.02
   3  -3  -7  262.46   22.90
   3  -3  -7  287.87   24.51
   3  -3  -7  259.98   19.41
   3  -3  -7  254.82   29.31
   3  -3  -6  116.51   19.38
   3  -3  -6  150.24   14.51
   3  -3  -6  127.92   15.78
   3  -3  -6  136.91   11.97
   3  -3  -5  248.95   20.16
   3  -3  -5  254.67   21.24
   3  -3  -5  228.65   22.27
   3  -3  -5  248.33   18.17
   3  -3  -5  233.63   27.75
   3  -3  -4  172.15   19.30
   3  -3  -4  158.68   13.02
   3  -3  -4  184.56   14.07
   3  -3  -4  176.81   22.05
   3  -3  -3   51.92    5.50
   3  -3  -3   49.23    8.18
   3  -3  -3   45.41    5.90
   3  -3  -3   45.27    5.84
   3  -3  -3   49.91    6.07
   3  -3  -3   47.28    9.85
   3  -3  -3   52.96   11.12
  -3  -3   2   87.55   16.86
   3  -3  -2   97.78    8.52
   3  -3  -2   93.53   14.25
   3  -3  -2   98.23   10.28
   3  -3  -2  102.38   11.63
   3  -3  -2  103.29    9.17
   3  -3  -2  108.24   11.47
   3  -3  -2  102.53    9.22
   3  -3  -2  124.40   16.15
   3  -3  -1  180.87   13.60
  -3  -3   1  197.84   24.34
   3  -3  -1  198.67   14.20
   3  -3  -1  195.16   13.44
   3  -3  -1  176.26   13.98
   3  -3   0  159.90   19.48
   3  -3   0  143.31   11.61
  -3  -3   0  182.05   22.17
   3  -3   0  160.65   11.70
  -3  -3   0  158.10   13.85
  -3  -3   0  172.25   14.42
  -3  -3  -1  157.20   13.67
  -3  -3  -1  150.60   19.13
   3  -3   1  147.71   18.95
   3  -3   1  131.72   11.19
  -3  -3  -1  161.85   20.90
   3  -3   1  147.49   11.78
  -3  -3  -1  185.38   15.28
  -3  -3  -1  182.39   15.16
   3  -3   1  141.93   11.36
  -3  -3  -2   78.48    9.76
   3  -3   2   72.56   10.78
   3  -3   2   72.93    6.89
  -3  -3  -2   89.09   16.27
   3  -3   2   57.11   11.90
  -3  -3  -2   85.61   10.63
   3  -3   2   67.68    7.06
  -3  -3  -2   85.32   10.56
  -3  -3  -3   31.63    8.00
   3  -3   3   31.76    4.72
   3  -3   3   29.56    4.32
  -3  -3  -3   43.53    7.80
   3  -3   3   38.52    8.48
   3  -3   3   45.74   10.18
  -3  -3  -3   41.31    8.47
  -3  -3  -4   58.95   10.40
  -3  -3  -4   57.58   10.06
  -3  -3  -4   74.33    8.91
   3  -3   4   57.84   10.89
  -3  -3  -4   75.53   16.21
   3  -3   4   68.67    7.48
  -3  -3  -4   71.76   11.55
   3  -3   4   63.01   12.01
  -3  -3  -5    9.76    6.81
  -3  -3  -5    7.45    7.74
  -3  -3  -5    9.49    4.44
  -3  -3  -5   18.48    6.05
   3  -3   5    6.03    6.52
  -3  -3  -6   56.81   10.62
  -3  -3  -6   56.19   10.80
  -3  -3  -6   47.85   14.09
  -3  -3  -6   44.06    7.54
  -3  -3  -6   50.54    8.36
  -3  -3  -6   41.80    8.04
  -3  -3  -6   40.67   10.22
  -3  -3  -7  159.25   17.67
  -3  -3  -7  151.68   15.67
  -3  -3  -7  174.90   15.88
  -3  -3  -7  130.69   15.13
  -3  -3  -7  178.35   16.47
   3  -3   8  122.25   16.70
  -3  -3  -8  124.68   13.23
  -3  -3  -8  114.01   12.12
  -3  -3  -8  140.04   13.50
  -3  -3  -8  143.54   13.40
   3  -3   8  129.16   11.31
   3  -3   9   32.92    4.59
   3  -3   9   34.59    8.69
  -3  -3  -9   33.52    6.07
  -3  -3  -9   30.41    4.73
  -3  -3  -9   35.64    5.76
   3  -3  10   23.62    5.33
   3  -2 -10    0.65    1.43
   3  -2 -10    0.35    2.58
   3  -2  -9    0.36    2.24
   3  -2  -9    5.20    4.11
   3  -2  -9    3.08    4.28
   3  -2  -8   10.41    3.58
   3  -2  -8   11.24    5.05
   3  -2  -8   18.73    7.23
   3  -2  -7  107.50   12.57
   3  -2  -7   74.36    8.66
   3  -2  -7  111.54   13.05
   3  -2  -7  111.11   14.31
   3  -2  -7  108.39   10.21
   3  -2  -6  473.21   36.21
   3  -2  -6  503.90   38.53
   3  -2  -6  543.79   34.32
   3  -2  -5  269.13   18.54
   3  -2  -5  254.26   21.31
   3  -2  -5  245.91   21.18
   3  -2  -5  265.07   17.92
   3  -2  -5  232.48   20.47
   3  -2  -5  243.52   22.28
   3  -2  -5  248.99   18.68
   3  -2  -4    1.69    4.56
   3  -2  -4    2.75    2.44
   3  -2  -4    4.54    3.94
   3  -2  -4    1.72    3.02
   3  -2  -4    1.53    1.59
   3  -2  -4    3.41    2.24
   3  -2  -4   -0.64    3.90
   3  -2  -4   -0.60    3.60
   3  -2  -4    1.46    1.40
   3  -2  -4    1.93    1.80
   3  -2  -4   -3.65    2.63
   3  -2  -3  264.96   24.00
   3  -2  -3  218.34   19.45
   3  -2  -3  246.04   17.12
   3  -2  -3  241.91   19.26
   3  -2  -3  222.48   16.29
   3  -2  -3  264.68   26.39
   3  -2  -2   63.96    6.76
   3  -2  -2   60.38   10.66
   3  -2  -2   82.11   12.94
  -3  -2   1  682.60   52.02
   3  -2  -1  657.34   40.69
   3  -2  -1  709.05   50.98
  -3  -2   0   65.35    7.43
  -3  -2   0   81.65   13.11
   3  -2   0   65.76    6.36
   3  -2   0   60.59   11.05
   3  -2   1  266.68   25.18
  -3  -2  -1  282.32   26.64
   3  -2   1  237.24   16.97
   3  -2   2  101.22   14.48
  -3  -2  -2  105.06   16.70
   3  -2   2   92.85    8.46
   3  -2   3  358.27   23.53
   3  -2   3  409.29   33.37
   3  -2   3  358.24   24.51
   3  -2   3  346.48   28.90
  -3  -2  -4  157.25   15.95
  -3  -2  -4  133.31   22.15
   3  -2   4  125.82   15.69
   3  -2   4  125.47   16.66
  -3  -2  -5   88.90   12.66
  -3  -2  -5   87.21   18.04
   3  -2   5   85.04   13.57
  -3  -2  -5   95.07   11.19
  -3  -2  -5   87.02   12.96
  -3  -2  -6   38.05    9.22
  -3  -2  -6   58.39   14.98
   3  -2   6   29.88    9.15
  -3  -2  -6   27.62    6.50
  -3  -2  -6   30.79    6.89
  -3  -2  -6   32.72    9.17
  -3  -2  -7   81.70   13.04
  -3  -2  -7   98.11   13.42
  -3  -2  -7  103.91   11.48
  -3  -2  -7   88.41   11.26
  -3  -2  -7   99.26   13.11
  -3  -2  -8   39.16    7.65
  -3  -2  -8   27.70    6.26
  -3  -2  -8   35.45    6.98
  -3  -2  -8   24.12    6.16
   3  -2   9    3.73    2.32
   3  -2   9    3.02    5.86
  -3  -2  -9    1.46    3.16
  -3  -2  -9   -3.36    3.49
  -3  -2  -9   -0.55    3.58
  -3  -2 -10    6.84    1.73
  -3  -2 -10    6.61    2.20
   3  -1 -10   21.98    3.41
   3  -1 -10   17.29    2.84
   3  -1  -9   11.73    5.04
   3  -1  -9    9.24    2.61
   3  -1  -9   11.71    5.52
   3  -1  -8   14.61    6.01
   3  -1  -8   10.36    3.61
   3  -1  -8    9.05    5.15
   3  -1  -8   10.48    3.52
   3  -1  -7  121.88   14.52
   3  -1  -7  133.80   16.05
   3  -1  -6   19.35    4.82
   3  -1  -6   17.87    6.16
   3  -1  -6   17.09    3.52
   3  -1  -6   21.85    3.60
   3  -1  -6   27.16    7.69
   3  -1  -5  289.08   22.21
   3  -1  -5  230.17   21.26
   3  -1  -5  258.07   21.15
   3  -1  -5  270.99   18.39
   3  -1  -5  279.45   19.18
   3  -1  -5  248.94   23.15
   3  -1  -5  249.56   19.12
   3  -1  -5  256.02   18.44
   3  -1  -4  328.65   24.80
   3  -1  -4  337.65   25.00
   3  -1  -4  334.57   24.56
   3  -1  -4  324.16   22.14
   3  -1  -4  349.41   22.94
   3  -1  -4  328.63   22.87
   3  -1  -4  336.73   22.62
   3  -1  -3  115.02    9.60
   3  -1  -3  106.33    9.07
   3  -1  -3  117.09    9.69
   3  -1  -3   94.80   11.36
   3  -1  -3  105.87    9.44
   3  -1  -2  158.59   18.34
   3  -1  -2  177.11   12.77
  -3  -1   1   72.14   11.83
   3  -1  -1   94.21    7.85
   3  -1   0  329.87   20.70
  -3  -1   0  251.49   25.43
   3  -1   0  328.52   28.06
   3  -1   0  306.68   28.85
   3  -1   1  453.76   35.11
   3  -1   1  408.44   26.66
   3  -1   1  422.09   34.72
  -3  -1  -2  233.90   24.87
   3  -1   2  231.79   22.71
   3  -1   2  207.27   15.46
   3  -1   2  222.65   21.82
   3  -1   3  337.88   39.22
  -3  -1  -3  474.46   42.13
  -3  -1  -3  371.17   36.86
   3  -1   3  446.17   35.38
   3  -1   4  211.78   19.38
   3  -1   4  179.47   14.98
  -3  -1  -5  116.00   21.26
  -3  -1  -5   84.74    9.96
  -3  -1  -6  168.25   26.24
   3  -1   6  126.60   16.74
  -3  -1  -6  133.07   13.39
  -3  -1  -6  129.98   13.39
  -3  -1  -6  139.03   16.19
  -3  -1  -7  163.15   18.23
   3  -1   7  148.39   19.73
  -3  -1  -7  154.97   15.37
  -3  -1  -7  168.76   15.52
  -3  -1  -7  183.49   17.19
  -3  -1  -7  171.83   17.68
  -3  -1  -7  144.25   17.32
  -3  -1  -8  151.91   14.53
  -3  -1  -8  114.57   14.35
  -3  -1  -8  123.36   12.85
  -3  -1  -8  128.90   13.65
  -3  -1  -8  121.48   12.62
  -3  -1  -8  115.37   13.77
  -3  -1  -9   50.69    7.62
  -3  -1  -9   53.80    8.10
   3  -1  10   70.43    9.78
  -3  -1 -10   58.13    6.37
  -3  -1 -10   53.57    5.20
   3   0 -10   73.94    7.02
   3   0 -10   83.19    8.56
   3   0  -9   23.29    4.35
   3   0  -9   25.71    6.19
   3   0  -9   25.38    6.30
   3   0  -9   19.51    4.16
   3   0  -8  106.84   13.11
   3   0  -8   92.82    9.35
   3   0  -8  101.92   12.69
   3   0  -8   92.49   10.03
   3   0  -8   99.09    9.95
   3   0  -7   73.48   10.80
   3   0  -7   47.54    7.16
   3   0  -7   65.54   10.58
   3   0  -7   68.79   11.62
   3   0  -7   63.97    7.98
   3   0  -6    8.99    3.42
   3   0  -6    9.24    5.19
   3   0  -6   17.61    3.29
   3   0  -6   20.66    7.83
   3   0  -5  309.90   23.98
   3   0  -5  262.03   19.59
   3   0  -5  273.83   19.85
   3   0  -5  307.30   20.40
   3   0  -5  320.80   21.42
   3   0  -4   17.43    3.63
   3   0  -4   14.15    4.39
   3   0  -4   15.04    3.14
   3   0  -4   25.15    5.38
   3   0  -4   14.31    3.76
   3   0  -4   15.22    4.91
   3   0  -4   18.81    3.33
   3   0  -4   16.55    3.32
   3   0  -4   14.94    5.27
   3   0  -3  650.89   42.09
   3   0  -3  713.24   43.44
   3   0  -3  703.35   52.96
   3   0  -2  951.69   55.90
   3   0  -2  846.96   65.18
  -3   0   1   50.91    8.20
   3   0  -1   65.06    6.10
   3   0  -1   45.38   10.94
   3   0  -1   49.55   10.44
   3   0   0  851.85   56.07
   3   0   0  727.60   55.49
   3   0   0  753.43   46.23
   3   0   1  153.08   19.17
  -3   0  -1  167.76   18.55
   3   0   1  159.37   11.98
   3   0   1  158.85   19.05
   3   0   2    2.89    2.40
   3   0   2    1.72    4.64
  -3   0  -2    1.33    5.05
   3   0   2    3.63    3.99
   3   0   3  149.44   24.49
  -3   0  -3  258.37   27.27
  -3   0  -3  212.64   23.59
   3   0   3  205.19   15.00
   3   0   3  179.11   20.27
   3   0   4   11.10    9.16
   3   0   4    5.92    4.62
  -3   0  -4   14.91    9.66
   3   0   5  339.51   43.76
   3   0   5  349.07   31.96
  -3   0  -5  297.67   22.88
   3   0   6   73.05   22.07
  -3   0  -6   85.28   19.13
  -3   0  -6   43.23    7.46
  -3   0  -6   58.16    7.84
   3   0   6   53.18    7.69
  -3   0  -6   72.64   10.96
  -3   0  -7   14.86    7.16
  -3   0  -7   21.84    5.27
  -3   0  -7   22.86    5.36
  -3   0  -7   28.93    7.25
  -3   0  -7   20.37    9.22
  -3   0  -7   24.40    7.34
  -3   0  -8   -0.80    4.98
  -3   0  -8   -0.86    4.94
  -3   0  -8   -0.55    3.02
   3   0   8    2.47    5.77
  -3   0  -8    2.17    3.58
  -3   0  -8    5.22    4.98
  -3   0  -9   -1.20    3.85
  -3   0 -10    9.71    2.29
  -3   0 -10   13.32    3.62
   3   1 -10   26.74    3.68
   3   1 -10   29.20    5.01
   3   1 -10   25.90    3.65
   3   1  -9    7.16    3.03
   3   1  -9    7.72    4.61
   3   1  -9   10.76    3.48
   3   1  -8   11.40    3.78
   3   1  -8   13.90    6.32
   3   1  -8   10.52    3.95
   3   1  -7  118.65   14.21
   3   1  -7  108.65   11.56
   3   1  -7  116.49   11.26
   3   1  -6   24.70    4.89
   3   1  -6   26.28    7.05
   3   1  -6   19.44    4.79
   3   1  -6   20.11    3.69
   3   1  -5  286.20   22.63
   3   1  -5  229.49   17.55
   3   1  -5  253.66   19.41
   3   1  -5  230.08   19.18
   3   1  -5  270.14   18.06
   3   1  -5  256.42   18.91
   3   1  -5  302.35   22.82
   3   1  -4  351.97   24.44
   3   1  -4  313.08   23.85
   3   1  -4  345.78   22.99
   3   1  -4  368.51   27.60
   3   1  -4  329.73   23.46
   3   1  -4  383.81   27.34
   3   1  -3  128.47   10.87
   3   1  -3  112.60   12.36
   3   1  -3   95.32    9.44
   3   1  -3  138.83   18.65
   3   1  -3  112.47   16.85
   3   1  -2  170.44   12.34
   3   1  -2  138.57   19.90
   3   1  -2  153.58   19.50
   3   1  -1   90.07    7.87
   3   1  -1   85.01   13.68
   3   1   0  328.52   20.22
   3   1   0  261.98   25.05
  -3   1   0  277.01   24.95
   3   1   0  271.72   28.65
   3   1   1  384.51   36.41
  -3   1  -1  414.71   33.81
   3   1   1  457.50   28.03
   3   1   2  169.84   24.03
   3   1   2  250.49   24.49
  -3   1  -2  217.10   24.47
  -3   1  -2  206.50   21.17
   3   1   2  199.22   14.83
   3   1   3  341.30   40.43
   3   1   3  397.77   36.35
  -3   1  -3  465.93   39.97
   3   1   4  241.61   34.55
   3   1   4  225.59   25.38
  -3   1  -4  292.61   31.53
   3   1   4  194.35   19.05
   3   1   4  213.49   22.96
   3   1   5   99.95   16.30
  -3   1  -5   89.39   18.80
   3   1   5   56.64   10.38
  -3   1  -5   72.72   16.55
   3   1   6   88.65   25.54
   3   1   6  113.25   19.08
   3   1   6  108.53   15.26
  -3   1  -6  160.13   14.45
  -3   1  -6  129.55   11.97
  -3   1  -6   95.85   21.15
  -3   1  -7  146.33   17.31
  -3   1  -7  151.53   13.87
  -3   1  -7  190.92   16.86
  -3   1  -7  139.68   15.93
  -3   1  -7  165.91   26.78
  -3   1  -8  101.69   13.34
  -3   1  -8  139.54   13.98
  -3   1  -8  131.17   13.59
  -3   1  -8  105.95   13.18
   3   1   9   45.62    9.61
  -3   1  -9   53.99    8.04
  -3   1  -9   50.54    7.69
   3   1  10   53.68    8.67
  -3   1 -10   64.88    6.91
  -3   1 -10   57.69    5.45
   3   2 -10   -0.21    1.27
   3   2 -10   -0.99    1.63
   3   2  -9    4.27    2.73
   3   2  -9   -1.81    3.69
   3   2  -8   13.41    3.55
   3   2  -8    3.34    3.09
   3   2  -8    7.11    4.93
   3   2  -7  111.44   11.43
   3   2  -7   91.89    8.61
   3   2  -7  111.11   10.41
   3   2  -6  558.45   38.28
   3   2  -6  456.98   34.39
   3   2  -6  517.12   33.61
   3   2  -5  245.36   18.72
   3   2  -5  231.85   17.21
   3   2  -5  293.66   22.70
   3   2  -5  230.65   19.37
   3   2  -5  266.45   18.76
   3   2  -4    1.77    4.34
   3   2  -4    0.41    2.29
   3   2  -4    0.53    2.73
   3   2  -4    0.47    2.37
   3   2  -4    2.07    4.15
   3   2  -4    1.65    5.12
   3   2  -3  250.29   19.48
   3   2  -3  236.87   18.09
   3   2  -3  226.60   17.96
   3   2  -3  252.69   20.49
   3   2  -3  222.42   17.76
   3   2  -3  224.88   26.08
   3   2  -3  245.37   26.36
   3   2  -2   68.53   11.80
   3   2  -2   82.90   14.33
   3   2  -2   65.13   12.76
   3   2  -1  671.01   51.51
  -3   2   1  804.51   50.36
   3   2  -1  717.51   44.10
  -3   2   0   69.41   10.67
  -3   2   0   54.45    7.81
   3   2   0   63.02    6.21
   3   2   1  275.76   27.40
  -3   2  -1  271.95   25.90
   3   2   1  265.58   18.30
  -3   2  -2  126.09   17.48
   3   2   2   97.95    9.89
   3   2   2  107.32    9.14
   3   2   3  395.31   37.36
  -3   2  -3  432.29   39.90
   3   2   3  396.70   27.92
   3   2   3  404.80   27.44
   3   2   4  157.79   27.29
   3   2   4  159.89   21.41
  -3   2  -4  135.18   21.38
   3   2   4  100.72   12.76
  -3   2  -4  102.49   17.25
   3   2   5   73.29   22.08
   3   2   5  105.61   17.59
   3   2   5   61.85   11.02
  -3   2  -5   97.68   10.21
  -3   2  -5   61.40   15.47
   3   2   6   18.96    9.34
   3   2   6   25.77    7.66
  -3   2  -6   17.61    5.46
  -3   2  -6   40.61   11.59
   3   2   7   62.38   13.73
   3   2   7   84.81   13.29
  -3   2  -7   97.41   11.74
  -3   2  -7   79.20   10.82
  -3   2  -7   86.27   10.96
  -3   2  -7   88.63   18.39
  -3   2  -8   20.50    6.60
  -3   2  -8   29.66    6.82
  -3   2  -8   29.79    6.42
  -3   2  -9    5.29    3.78
  -3   2  -9    2.97    3.45
  -3   2 -10    7.76    1.87
  -3   2 -10   11.83    3.19
   3   2  10   14.99    4.91
   3   3 -10    2.19    1.42
   3   3  -9   13.18    2.87
   3   3  -9   18.60    3.28
   3   3  -8    3.69    4.59
   3   3  -7  255.83   18.95
   3   3  -7  268.04   28.85
   3   3  -6  147.85   15.59
   3   3  -6  119.55   11.22
   3   3  -6  151.20   21.21
   3   3  -5  298.37   23.95
   3   3  -5  265.74   19.76
   3   3  -5  263.58   29.77
   3   3  -4  196.46   24.03
   3   3  -4  180.64   14.52
   3   3  -4  211.87   18.11
   3   3  -4  188.97   15.12
   3   3  -4  158.01   14.56
   3   3  -4  196.82   23.43
   3   3  -4  192.99   23.73
   3   3  -3   49.36   12.72
   3   3  -3   69.29   12.30
   3   3  -3   47.90    6.11
   3   3  -3   42.23    6.24
   3   3  -3   35.58    5.92
   3   3  -3   49.80    7.52
   3   3  -3   44.40    5.65
   3   3  -3   44.18   11.27
   3   3  -3   52.02   11.11
   3   3  -2  125.10   18.20
   3   3  -2   90.95    8.62
   3   3  -2   87.40    8.89
   3   3  -2  105.71    9.54
   3   3  -2   85.98    9.48
   3   3  -2   83.46    9.26
   3   3  -2  128.54   16.75
   3   3  -1  190.12   15.22
   3   3  -1  211.75   15.91
   3   3  -1  168.46   15.27
   3   3  -1  222.38   14.19
   3   3  -1  177.07   14.97
  -3   3   0  168.57   17.15
   3   3   0  165.15   12.99
   3   3   0  138.13   13.17
   3   3   0  155.00   11.53
   3   3   0  151.57   12.85
   3   3   1  167.54   20.38
  -3   3  -1  148.30   18.12
   3   3   1  139.95   13.26
   3   3   1  132.17   12.06
   3   3   1  149.06   12.67
   3   3   1  151.89   12.89
   3   3   1  158.14   11.58
   3   3   2   63.59   13.63
  -3   3  -2   75.99   13.45
   3   3   2   74.98    8.00
   3   3   2   71.58    8.47
   3   3   2   81.07    7.37
   3   3   3   27.59    4.36
   3   3   3   26.21    4.97
   3   3   4   51.56    8.61
   3   3   5    8.05   10.84
   3   3   5   -2.24    6.98
   3   3   5    5.59    4.92
  -3   3  -5   10.55    4.41
   3   3   6   50.48   13.30
   3   3   6   36.55    8.67
  -3   3  -6   41.44    6.99
   3   3   7  157.80   22.07
   3   3   7  121.63   16.57
  -3   3  -7  155.68   15.17
  -3   3  -7  174.78   15.27
  -3   3  -8   88.85   11.80
   3   3   8  105.53   14.17
  -3   3  -8  127.02   12.25
  -3   3  -8  113.01   11.48
   3   3   9   29.79    4.63
  -3   3  -9   41.12    6.77
  -3   3  -9   34.00    5.55
   3   3   9   21.37    4.11
   3   3  10   18.28    4.32
  -3   3 -10   19.60    2.99
   3   4 -10   25.38    2.96
   3   4  -9   46.17    5.38
   3   4  -9   31.75    4.28
   3   4  -8   17.79    3.19
   3   4  -8   11.48    3.89
   3   4  -7  148.69   12.60
   3   4  -7  173.38   14.78
   3   4  -6  134.36   11.43
   3   4  -6  157.80   15.83
   3   4  -6  147.46   13.64
   3   4  -5  215.53   16.21
   3   4  -5  193.29   19.52
   3   4  -5  206.77   17.80
   3   4  -5  203.87   17.16
   3   4  -5  201.82   24.18
   3   4  -4   16.75    6.96
   3   4  -4    5.81    2.75
   3   4  -4    8.46    5.35
   3   4  -4    5.95    2.90
   3   4  -4    4.97    3.87
   3   4  -4    4.79    3.49
   3   4  -4    2.12    2.35
   3   4  -4    7.14    4.82
   3   4  -4    6.49    5.05
   3   4  -3   80.46   17.38
   3   4  -3   80.36    8.29
   3   4  -3   63.97    8.14
   3   4  -3   66.98    8.63
   3   4  -3   61.29    8.47
   3   4  -3   64.39   12.22
   3   4  -2  344.00   36.66
   3   4  -2  280.42   22.58
   3   4  -2  319.75   22.28
   3   4  -2  355.80   23.98
   3   4  -2  294.42   22.50
   3   4  -2  315.71   23.74
   3   4  -2  331.41   23.39
   3   4  -1   60.29    8.15
   3   4  -1   77.03    8.24
   3   4  -1   66.08    7.28
   3   4  -1   74.98    8.52
   3   4  -1   89.79    9.47
   3   4  -1   61.25    7.33
   3   4  -1   69.22    8.50
   3   4   0   79.65    9.52
   3   4   0   87.45    9.11
   3   4   0   71.75    7.67
   3   4   0   91.38    7.29
   3   4   0   76.92    8.72
   3   4   1  118.17   18.40
   3   4   1  111.22   12.08
   3   4   1  118.18   11.52
   3   4   1  122.47   11.16
   3   4   1  111.59   12.03
   3   4   1  117.41    9.38
   3   4   1  126.12   11.64
   3   4   2   98.70   17.35
   3   4   2   83.27    8.82
   3   4   2   77.69    9.19
   3   4   2   86.59    7.73
   3   4   3  171.87   25.26
   3   4   3  206.57   16.50
   3   4   3  229.07   17.52
   3   4   3  197.17   15.07
   3   4   4  159.87   24.02
   3   4   4  138.74   15.33
   3   4   4  168.88   13.80
   3   4   4  160.07   12.87
  -3   4  -5  388.58   26.47
   3   4   5  365.07   24.53
  -3   4  -6   44.77    7.21
   3   4   6   41.25   11.84
   3   4   6   21.93    7.62
   3   4   6   48.74    6.17
   3   4   7   10.00    3.19
   3   4   7   10.73    5.99
  -3   4  -7   10.96    4.29
   3   4   8   23.56    4.07
   3   4   8   15.79    5.82
  -3   4  -8   20.47    4.55
  -3   4  -9   13.51    4.17
  -3   4  -9   10.47    2.82
   3   4   9    8.19    2.79
   3   5  -9   -0.29    1.06
   3   5  -9    0.71    1.48
   3   5  -9   -0.64    1.62
   3   5  -8   43.77    5.08
   3   5  -8   40.58    5.65
   3   5  -7   27.00    5.26
   3   5  -6  157.99   14.13
   3   5  -6  138.77   13.00
   3   5  -5   70.91    9.60
   3   5  -5   73.95    9.26
   3   5  -4  203.84   29.40
   3   5  -4  227.58   18.19
   3   5  -4  253.08   18.67
   3   5  -4  245.95   18.75
   3   5  -4  278.53   20.64
   3   5  -4  239.53   20.10
   3   5  -4  207.07   25.39
   3   5  -3  128.56   24.04
   3   5  -3   85.19   10.28
   3   5  -3  104.35   10.28
   3   5  -3  102.14    9.72
   3   5  -3   96.92   10.91
   3   5  -3  103.61   10.56
   3   5  -3  100.30   11.42
   3   5  -2  421.32   43.71
   3   5  -2  326.86   25.12
   3   5  -2  331.30   24.32
   3   5  -2  345.48   24.98
   3   5  -2  333.85   25.71
   3   5  -2  319.39   24.63
   3   5  -1   93.04   11.05
   3   5  -1  110.32   11.15
   3   5   0   86.48   11.27
   3   5   0  118.98   12.48
   3   5   0  119.97   11.33
   3   5   1  172.76   23.42
   3   5   1  156.53   16.27
   3   5   1  173.40   16.75
   3   5   1  195.33   15.57
   3   5   2  116.59   20.05
   3   5   2  136.09   12.91
   3   5   2  156.52   13.84
   3   5   3  343.89   36.50
   3   5   3  330.86   24.22
   3   5   3  299.53   23.23
   3   5   4  126.97   22.13
   3   5   4   94.13   12.60
   3   5   4  143.31   12.23
   3   5   5  139.00   23.47
   3   5   5  113.32   13.84
   3   5   6   71.76   11.00
   3   5   7   36.69    8.04
   3   5   8   24.54    5.89
   3   5   9    0.35    2.02
   3   5   9    1.43    1.72
   3   6  -8   26.75    3.87
   3   6  -7   13.27    3.93
   3   6  -7   16.67    3.84
   3   6  -6   15.94    3.29
   3   6  -6   19.79    4.50
   3   6  -6   17.39    4.37
   3   6  -5   75.24    8.97
   3   6  -5   62.49    8.75
   3   6  -4    8.18    3.87
   3   6  -4   10.55    3.40
   3   6  -4    9.23    4.19
   3   6  -4    6.40    4.23
   3   6  -4    4.79    3.19
   3   6  -4    4.97    3.76
   3   6  -3  363.34   43.76
   3   6  -3  291.60   23.26
   3   6  -3  296.36   22.31
   3   6  -3  301.37   22.88
   3   6  -3  262.64   21.98
   3   6  -3  335.48   24.83
   3   6  -3  303.43   23.09
   3   6  -2  227.16   19.88
   3   6  -2  236.34   20.54
   3   6  -2  232.53   19.13
   3   6  -2  215.64   18.54
   3   6  -1   31.86    6.90
   3   6  -1   25.00    5.69
   3   6   0  138.61   14.33
   3   6   0  140.12   14.30
   3   6   0  133.54   12.15
   3   6   1  220.83   26.54
   3   6   1  187.58   19.06
   3   6   1  201.66   17.65
   3   6   1  221.87   19.45
   3   6   2  639.32   54.75
  -3   6  -2  550.86   41.03
   3   6   2  626.55   40.94
   3   6   2  631.14   40.59
   3   6   3  161.81   24.12
   3   6   3  150.47   13.41
   3   6   3  128.26   13.04
   3   6   4  218.64   28.19
   3   6   4  183.18   15.76
  -3   6  -5  133.55   15.04
   3   6   5  122.06   13.70
  -3   6  -6  148.51   15.35
   3   6   6  131.71   14.20
  -3   6  -7   54.86    8.51
  -3   6  -8    2.69    3.38
   3   7  -8    6.66    1.74
   3   7  -7    0.30    2.24
   3   7  -6   34.43    5.37
   3   7  -6   36.84    5.43
   3   7  -5  179.21   15.68
   3   7  -5  185.69   15.25
   3   7  -4   92.87   10.23
   3   7  -4   89.34    9.34
   3   7  -4  110.68   11.81
   3   7  -4  101.03   10.53
   3   7  -3   27.10   10.64
   3   7  -3   31.77    6.22
   3   7  -3   30.78    5.43
   3   7  -3   19.93    4.57
   3   7  -3   29.85    6.83
   3   7  -3   28.45    5.80
   3   7  -2  112.07   23.11
   3   7  -2  103.79   12.05
   3   7  -2  105.66   10.87
   3   7  -2   85.02   10.34
   3   7  -1   36.34    7.83
   3   7  -1   26.30    7.53
   3   7  -1   33.36    6.05
   3   7   0  650.59   45.58
   3   7   0  675.69   45.62
   3   7   0  625.84   41.89
   3   7   1   66.05    8.87
   3   7   2  116.38   17.52
   3   7   2   87.47   13.07
   3   7   2   93.81   10.34
   3   7   2  100.00   10.97
   3   7   3   76.86   15.04
  -3   7  -3   58.36    9.38
   3   7   3   92.37    9.97
  -3   7  -4  100.46   12.16
   3   7   4  105.84   10.54
  -3   7  -5  281.31   22.89
  -3   7  -6   83.77   10.25
  -3   7  -7    9.49    3.88
  -3   7  -8    8.19    2.19
   3   7   8    0.66    1.75
   3   8  -7   18.61    2.46
   3   8  -6   27.51    4.10
   3   8  -6   37.48    4.44
   3   8  -5   60.71    7.18
   3   8  -5   55.49    6.43
   3   8  -4   47.52    6.42
   3   8  -4   54.51    7.73
   3   8  -4   51.58    6.58
   3   8  -3  109.11   11.46
   3   8  -3  105.51   10.58
   3   8  -3  129.49   11.15
   3   8  -2   59.46    8.58
   3   8  -2   33.37    6.18
   3   8  -2   44.00    6.68
   3   8  -2   53.74    8.33
   3   8  -2   50.18    6.55
   3   8  -1   99.58   11.87
   3   8  -1   86.96   11.64
   3   8  -1   91.40    9.16
   3   8   0  154.17   16.20
   3   8   0  157.59   14.17
   3   8   0  140.99   13.76
   3   8   0  161.55   16.01
   3   8   1  116.86   11.87
   3   8   1  111.80   11.20
  -3   8  -2    1.80    3.79
   3   8   2    4.50    3.45
  -3   8  -3    4.20    4.02
   3   8   3    5.58    3.45
  -3   8  -4   11.91    4.46
   3   8   4   18.82    3.95
  -3   8  -4   15.01    4.41
  -3   8  -5    6.47    3.64
  -3   8  -5    3.83    3.50
  -3   8  -6   42.68    5.63
  -3   8  -6   41.22    5.67
  -3   8  -7   23.94    3.22
   3   8   7    9.10    2.90
   3   9  -5    4.77    2.20
   3   9  -4    8.55    3.48
   3   9  -4    3.06    1.78
   3   9  -3   29.10    4.90
   3   9  -3   28.70    4.20
   3   9  -3   29.46    5.60
   3   9  -2  109.99   10.89
   3   9  -2  100.63    9.62
   3   9  -2   89.52    9.02
   3   9  -2  123.92   11.63
   3   9  -1   19.58    5.36
   3   9  -1   16.92    3.98
   3   9  -1   10.27    3.46
   3   9   0   13.97    5.31
   3   9   0    9.81    3.18
   3   9   0   13.14    3.91
   3   9   1   19.17    4.52
   3   9   2   33.20    5.33
  -3   9  -3   -0.36    2.62
   3   9   3   14.03    3.32
  -3   9  -4   40.86    5.37
   3   9   5    6.43    2.03
  -3   9  -5    3.83    2.18
   3  10  -3   34.04    3.74
   3  10  -2   28.72    3.86
   3  10  -2   33.28    3.75
   3  10  -1  124.60    9.15
   3  10  -1   89.27    8.13
   3  10   0   33.79    4.75
   3  10   0   28.71    4.20
   3  10   1    9.03    2.72
   3  10   1    5.93    2.41
   3  10   2   56.82    5.77
   3  10   3    8.99    2.43
   4  -9  -3   32.68    5.04
  -4  -9   2    6.59    2.42
  -4  -9   1   35.07    4.91
   4  -9  -1   28.35    5.29
   4  -9   0   34.35    6.37
   4  -9   0   31.07    5.11
  -4  -9   0   34.56    5.22
  -4  -9  -1   30.22    4.67
   4  -9   1   28.01    5.29
   4  -9   1   21.29    4.15
  -4  -9  -1   28.97    4.01
   4  -9   2    4.02    3.15
  -4  -9  -2    1.20    1.84
  -4  -9  -3    1.60    1.94
   4  -9   3    1.77    2.43
  -4  -9  -3    1.43    1.42
   4  -8  -5   22.51    3.91
   4  -8  -5   26.51    4.62
   4  -8  -4   26.00    4.67
   4  -8  -4   29.60    5.60
   4  -8  -3   57.56    7.19
   4  -8  -3   58.07    7.00
   4  -8  -2    3.13    4.36
   4  -8  -2    5.95    3.67
   4  -8  -1    9.08    5.22
   4  -8  -1    9.08    5.07
   4  -8  -1   11.69    4.51
   4  -8   0    2.40    5.04
   4  -8   0    1.89    4.43
   4  -8   0   -0.49    3.46
   4  -8   1   40.06    8.27
   4  -8   1   42.99    7.05
   4  -8   1   36.07    5.97
   4  -8   2   15.33    4.52
   4  -8   2   21.94    6.43
  -4  -8  -2    7.69    4.01
   4  -8   3   70.54    8.53
  -4  -8  -3   90.11    9.04
   4  -8   3   72.80   10.16
  -4  -8  -3   89.29    8.75
   4  -8   4   52.63    6.55
  -4  -8  -4   60.31    6.80
  -4  -8  -4   65.14    6.50
   4  -8   4   43.36    7.37
   4  -8   5   62.11    5.79
  -4  -8  -5   48.20    5.53
  -4  -8  -5   61.57    5.78
   4  -8   5   45.99    6.60
   4  -7  -6   12.13    2.60
   4  -7  -6   13.46    3.47
   4  -7  -6   17.06    4.16
   4  -7  -5   36.78    4.86
   4  -7  -5   36.75    5.86
   4  -7  -5   40.55    6.97
   4  -7  -4   54.81    6.36
   4  -7  -4   72.70    8.60
   4  -7  -4   56.38    7.74
   4  -7  -4   56.99    8.91
   4  -7  -3    9.05    4.81
   4  -7  -3   10.41    4.29
   4  -7  -2   62.60   10.23
   4  -7  -2   43.78    9.19
   4  -7  -2   52.48    8.52
   4  -7  -1   24.22    7.49
   4  -7  -1   25.93    7.51
   4  -7  -1   20.05    6.22
   4  -7   0   37.32    8.92
   4  -7   0   23.64    7.06
   4  -7   1   10.01    5.72
   4  -7   1    0.72    4.71
   4  -7   2  166.93   16.02
  -4  -7  -2  189.32   15.83
   4  -7   2  129.21   13.80
  -4  -7  -2  140.54   13.50
  -4  -7  -2  157.44   16.42
   4  -7   3    4.70    4.38
  -4  -7  -3    8.43    4.30
  -4  -7  -3    4.95    3.21
  -4  -7  -3    5.58    4.57
   4  -7   4   12.70    4.94
  -4  -7  -4   19.07    4.83
  -4  -7  -4   11.37    4.05
   4  -7   5   -0.46    3.22
  -4  -7  -5    2.10    2.77
  -4  -7  -5   -1.70    2.59
  -4  -7  -5   -1.76    2.51
   4  -7   6    6.11    2.67
  -4  -7  -6    1.63    1.76
   4  -6  -7   -0.88    2.07
   4  -6  -7    0.80    2.92
   4  -6  -6    4.13    2.97
   4  -6  -6   11.14    4.31
   4  -6  -6    8.31    4.67
   4  -6  -5   60.35    7.54
   4  -6  -5   56.25    8.58
   4  -6  -5   58.75    8.32
   4  -6  -5   54.79    9.14
   4  -6  -4  217.88   18.03
   4  -6  -4  249.96   20.36
   4  -6  -4  243.97   19.79
   4  -6  -3   97.84   10.79
   4  -6  -3  153.09   14.23
  -4  -6   2   86.31   16.95
   4  -6  -2   66.40   11.02
   4  -6  -2   64.48    7.86
   4  -6  -2   70.82   10.86
   4  -6  -2   70.36   10.33
   4  -6  -2   65.24   13.59
   4  -6  -1    8.62    5.00
   4  -6  -1    7.94    5.82
  -4  -6   1   15.90    8.27
   4  -6  -1   18.48    7.01
   4  -6  -1   27.36    8.37
   4  -6   0   55.35    8.92
  -4  -6   0   29.83   11.46
   4  -6   0   38.36    9.00
   4  -6   0   37.34    8.25
   4  -6   0   23.50    9.63
  -4  -6   0   36.63    7.99
   4  -6   1  165.38   23.79
   4  -6   1  199.80   18.68
  -4  -6  -1  202.45   27.55
   4  -6   1  171.30   17.37
  -4  -6  -1  170.62   15.50
  -4  -6  -1  200.08   19.11
  -4  -6  -2   85.79   16.18
   4  -6   2   57.44    9.10
  -4  -6  -2   80.73   11.56
   4  -6   2   68.96   14.23
  -4  -6  -3   22.90    5.93
  -4  -6  -3   18.42    6.89
  -4  -6  -4   44.32    7.45
  -4  -6  -4   40.60    7.66
  -4  -6  -4   41.57    8.58
  -4  -6  -5   96.96   10.30
  -4  -6  -5   92.05   10.62
  -4  -6  -5   95.29   10.03
   4  -6   6   52.12    7.51
  -4  -6  -6   52.87    6.60
  -4  -6  -6   59.01    7.38
  -4  -6  -6   65.75    7.15
  -4  -6  -6   55.83    6.44
  -4  -6  -6   66.00    8.34
   4  -6   7   15.93    3.70
  -4  -6  -7   18.40    3.53
  -4  -6  -7   16.80    3.21
   4  -5  -8    2.83    2.00
   4  -5  -7    8.05    4.31
   4  -5  -6   22.28    5.82
   4  -5  -6   35.08    7.58
   4  -5  -5   17.51    4.80
   4  -5  -5   16.57    6.25
   4  -5  -5   20.04    5.68
   4  -5  -5   17.06    7.02
  -4  -5   4  113.93   19.84
   4  -5  -4  109.37   11.75
   4  -5  -4  114.51   13.02
   4  -5  -4  101.38   12.10
  -4  -5   3  106.84   20.25
   4  -5  -3  114.20   16.82
   4  -5  -3   98.61   10.99
   4  -5  -3   89.36   12.83
   4  -5  -3  108.99   12.80
   4  -5  -2  160.83   23.23
  -4  -5   2  174.06   27.47
   4  -5  -2  198.91   19.10
   4  -5  -2  178.64   15.76
   4  -5  -2  188.85   18.83
   4  -5  -2  204.84   18.40
   4  -5  -1  303.41   22.40
   4  -5  -1  214.59   28.39
  -4  -5   1  236.40   31.80
   4  -5  -1  251.12   22.79
   4  -5  -1  217.84   18.63
   4  -5  -1  231.55   21.90
   4  -5  -1  266.07   18.85
  -4  -5   1  262.55   21.53
   4  -5   0  151.28   15.05
  -4  -5   0  127.35   22.05
   4  -5   0  130.25   15.52
   4  -5   0  128.42   14.70
   4  -5   0  128.77   11.25
  -4  -5   0  124.91   14.58
   4  -5   0  133.62   21.51
   4  -5   1  112.64   13.40
  -4  -5  -1  110.04   20.77
   4  -5   1   98.28   12.04
   4  -5   1  103.27    9.21
  -4  -5  -1  114.08   13.83
   4  -5   1  114.22   19.26
  -4  -5  -2   82.48   18.27
   4  -5   2   76.48   10.11
  -4  -5  -2   87.83   12.46
   4  -5   2   82.05   15.96
  -4  -5  -3  230.60   22.14
  -4  -5  -3  256.99   20.84
  -4  -5  -3  248.71   31.94
   4  -5   3  224.30   26.61
  -4  -5  -3  225.55   22.19
  -4  -5  -4   55.62   10.14
  -4  -5  -4   59.67    8.67
  -4  -5  -4   31.47    8.56
  -4  -5  -5    6.59    4.18
  -4  -5  -5   12.36    5.19
  -4  -5  -5    2.60    5.05
  -4  -5  -6    5.45    3.22
  -4  -5  -6    7.04    4.53
  -4  -5  -6   11.24    4.90
  -4  -5  -7   11.50    4.18
  -4  -5  -7   14.17    3.92
  -4  -5  -7   19.98    4.13
   4  -5   8   11.09    3.19
  -4  -5  -8   16.13    2.95
  -4  -5  -8   13.07    2.80
   4  -4  -9    0.21    1.54
   4  -4  -8   13.28    3.09
   4  -4  -7   16.54    4.57
   4  -4  -7   15.03    6.21
   4  -4  -6   56.75    6.38
   4  -4  -6   60.70    8.29
   4  -4  -6   52.74    8.77
   4  -4  -6   62.82   10.61
   4  -4  -5    3.69    2.35
   4  -4  -5    1.44    4.40
   4  -4  -4   37.71    8.88
  -4  -4   4   42.62   11.87
   4  -4  -4   36.46    5.34
   4  -4  -4   33.75    6.46
   4  -4  -4   39.11    7.34
  -4  -4   3   76.71   18.23
   4  -4  -3  100.08    9.68
   4  -4  -3  109.67   11.64
   4  -4  -3  119.81   12.12
   4  -4  -3  115.46   10.94
   4  -4  -3  103.90   16.73
   4  -4  -2  180.84   13.93
   4  -4  -2  199.22   16.36
   4  -4  -2  190.83   23.67
  -4  -4   2  129.04   23.22
   4  -4  -2  168.45   16.96
   4  -4  -2  167.64   13.56
   4  -4  -2  192.30   14.86
   4  -4  -2  155.13   14.87
   4  -4  -2  144.27   16.67
   4  -4  -2  160.03   12.63
   4  -4  -2  163.85   14.32
   4  -4  -1   78.74    9.68
  -4  -4   1   48.27   13.56
   4  -4  -1   48.71    9.06
   4  -4  -1   68.05    7.10
   4  -4  -1   55.91    7.12
   4  -4  -1   61.31   10.02
   4  -4  -1   60.79    7.93
   4  -4  -1   51.72    7.12
  -4  -4   1   67.69    9.41
   4  -4   0   55.31    6.55
   4  -4   0   44.79    8.01
  -4  -4   0   63.32   14.37
   4  -4   0   45.71    6.13
   4  -4   0   49.74    7.07
   4  -4   0   41.64    8.25
   4  -4   0   60.04    6.29
   4  -4   0   48.76    6.42
  -4  -4   0   56.69    9.18
   4  -4   0   47.52   12.09
  -4  -4   0   82.11    9.60
  -4  -4  -1   23.44    6.55
   4  -4   1   19.00    4.01
  -4  -4  -1   12.45    8.71
   4  -4   1   16.57    3.57
   4  -4   1   13.32    5.31
   4  -4   1   14.66    3.44
   4  -4   1   15.15    3.52
  -4  -4  -1   23.78    7.18
   4  -4   1   22.09    9.14
  -4  -4  -1   17.56    6.15
  -4  -4  -2  145.54   15.81
   4  -4   2  156.00   21.58
  -4  -4  -2  153.09   24.55
   4  -4   2  123.95   11.29
  -4  -4  -2  154.26   16.18
  -4  -4  -3  512.18   35.31
   4  -4   3  389.41   28.28
   4  -4   3  400.41   39.93
  -4  -4  -3  491.69   35.49
  -4  -4  -4   27.48    8.36
   4  -4   4   29.88    4.85
  -4  -4  -4   21.79   10.05
   4  -4   4   23.68    8.91
  -4  -4  -4   27.10    6.01
  -4  -4  -4   28.44    7.89
  -4  -4  -5  106.12   14.73
  -4  -4  -5  124.87   12.05
   4  -4   5  120.82   15.81
  -4  -4  -5  118.34   12.90
  -4  -4  -5  105.20   13.90
  -4  -4  -5  122.80   15.23
   4  -4   5   92.11    9.47
  -4  -4  -6   13.30    6.37
   4  -4   6   23.48    8.07
  -4  -4  -6   27.44    6.15
  -4  -4  -6   29.35    6.23
  -4  -4  -6   22.38    6.41
   4  -4   7   27.04    7.96
  -4  -4  -7   24.56    5.67
  -4  -4  -7   33.11    5.81
  -4  -4  -7   29.31    5.76
  -4  -4  -7   23.88    5.76
  -4  -4  -8    2.37    2.74
  -4  -4  -8    1.04    2.44
  -4  -4  -8    2.42    2.58
   4  -3  -9   11.19    2.23
   4  -3  -9   14.32    3.47
   4  -3  -8    3.11    2.77
   4  -3  -8    1.42    1.66
   4  -3  -7    4.04    2.52
   4  -3  -7    4.91    3.61
   4  -3  -7    0.82    5.85
   4  -3  -6   66.61    9.08
   4  -3  -6   80.37    8.34
   4  -3  -6   62.58    6.84
   4  -3  -6   80.25   10.61
   4  -3  -6   88.71   12.42
  -4  -3   5  302.21   33.98
   4  -3  -5  285.30   21.39
   4  -3  -5  289.43   23.19
   4  -3  -5  266.27   20.13
   4  -3  -5  307.50   24.05
   4  -3  -5  320.38   24.57
   4  -3  -5  295.38   31.12
   4  -3  -4   40.18    5.98
  -4  -3   4   55.81   12.76
   4  -3  -4   54.07    6.92
   4  -3  -4   47.68    5.86
   4  -3  -4   35.83    7.67
   4  -3  -4   41.30    7.74
   4  -3  -4   39.52    4.83
   4  -3  -4   45.94    9.15
   4  -3  -4   72.15   13.94
   4  -3  -3  179.51   13.34
  -4  -3   3  169.55   24.12
   4  -3  -3  164.46   13.80
   4  -3  -3  152.74   20.69
   4  -3  -3  168.03   15.32
   4  -3  -3  156.63   13.04
   4  -3  -3  142.53   14.37
   4  -3  -3  168.60   16.18
   4  -3  -3  150.87   12.34
   4  -3  -3  179.61   14.54
   4  -3  -3  168.75   17.20
   4  -3  -2  143.31   11.95
   4  -3  -2  149.38   13.40
  -4  -3   2  135.53   21.02
   4  -3  -2  129.05   14.24
   4  -3  -2  159.59   20.78
   4  -3  -2  152.11   12.68
   4  -3  -2  155.63   14.26
   4  -3  -2  149.39   12.72
   4  -3  -2  136.99   12.95
   4  -3  -2  127.36   11.35
   4  -3  -2  148.71   13.02
   4  -3  -1  293.83   22.69
  -4  -3   1  293.86   32.06
   4  -3  -1  254.10   23.10
   4  -3  -1  302.65   21.39
   4  -3  -1  288.17   21.19
   4  -3  -1  297.95   22.63
   4  -3  -1  298.63   23.76
   4  -3  -1  314.75   21.02
   4  -3  -1  322.67   22.11
   4  -3   0  167.38   14.09
   4  -3   0  149.63   12.07
   4  -3   0  148.03   14.23
  -4  -3   0  120.89   19.57
   4  -3   0  156.49   12.78
   4  -3   0  161.72   21.89
   4  -3   0  133.44   11.95
   4  -3   0  132.39   13.62
   4  -3   0  158.23   12.24
   4  -3   0  144.98   12.43
   4  -3   0  130.37   12.31
  -4  -3   0  152.68   15.04
  -4  -3   0  153.60   14.47
  -4  -3  -1  106.97   11.82
   4  -3   1  104.43    9.53
  -4  -3  -1  101.12   19.02
   4  -3   1  102.66    9.48
   4  -3   1  102.09    9.75
  -4  -3  -1  135.47   14.26
   4  -3   1   95.02   17.58
  -4  -3  -1  120.79   13.29
   4  -3   2   83.22   15.74
  -4  -3  -2   81.93   10.89
   4  -3   2   69.72    7.62
  -4  -3  -2   74.39   17.02
   4  -3   2   70.00    7.31
   4  -3   2   81.50    8.47
  -4  -3  -2   85.58   12.07
  -4  -3  -2   94.84   12.49
  -4  -3  -3  413.78   31.24
   4  -3   3  346.31   25.66
   4  -3   3  367.01   32.43
  -4  -3  -3  377.52   41.55
   4  -3   3  408.27   38.62
  -4  -3  -3  443.75   32.94
   4  -3   3  398.40   27.05
  -4  -3  -3  428.77   32.61
  -4  -3  -4  190.63   19.81
  -4  -3  -4  243.42   32.00
  -4  -3  -4  180.10   16.29
   4  -3   4  150.49   19.72
  -4  -3  -4  225.70   21.95
   4  -3   4  203.03   16.00
  -4  -3  -4  188.25   20.59
  -4  -3  -5   75.74   12.98
  -4  -3  -5   95.53   13.46
  -4  -3  -5  108.17   21.03
   4  -3   5   73.32   13.31
  -4  -3  -5  106.20   11.80
  -4  -3  -5  104.75   14.31
   4  -3   5   75.79    8.91
  -4  -3  -6   73.51   11.32
   4  -3   6   64.47   12.14
  -4  -3  -6   59.90    8.86
  -4  -3  -6   73.04    9.44
   4  -3   6   58.73    7.53
  -4  -3  -7   13.45    5.90
   4  -3   7   16.03    3.78
   4  -3   7   24.09    7.94
  -4  -3  -7   16.04    4.72
  -4  -3  -7   11.13    4.38
  -4  -3  -7   23.22    5.53
  -4  -3  -8   10.14    3.34
   4  -3   8   13.50    5.75
  -4  -3  -8    9.45    3.04
  -4  -3  -8    6.09    3.25
  -4  -3  -9    7.23    2.36
   4  -2  -9   20.34    2.85
   4  -2  -9   10.48    2.38
   4  -2  -8    7.08    2.59
   4  -2  -8    6.83    3.12
   4  -2  -7   84.40    8.78
   4  -2  -7   74.72    8.96
   4  -2  -7   71.95    7.76
   4  -2  -7   81.85   12.32
   4  -2  -6   33.17    5.89
   4  -2  -6   32.21    6.36
   4  -2  -6   39.76    5.69
   4  -2  -6   51.80   10.23
   4  -2  -6   36.08    9.84
   4  -2  -5   98.37   10.54
   4  -2  -5  121.73   10.70
   4  -2  -5  112.70   12.18
   4  -2  -5  111.90   10.48
   4  -2  -5   90.11   12.11
   4  -2  -5  104.28   12.38
   4  -2  -5  101.64    9.17
   4  -2  -5   94.30   17.68
   4  -2  -4  129.34   10.16
  -4  -2   4  117.95   18.77
   4  -2  -4  105.70   11.03
   4  -2  -4  133.30   11.53
   4  -2  -4  111.68   12.28
   4  -2  -4  110.88   10.79
   4  -2  -4  122.64   12.84
   4  -2  -4  127.16   13.38
   4  -2  -4  110.52   10.38
   4  -2  -4  100.69    9.71
   4  -2  -4  118.41   11.26
   4  -2  -4  116.58   14.30
   4  -2  -4  121.48   19.38
   4  -2  -3  225.50   15.90
  -4  -2   3  226.80   26.10
   4  -2  -3  198.19   16.52
   4  -2  -3  238.37   25.75
   4  -2  -3  210.40   16.40
   4  -2  -3  196.75   17.43
   4  -2  -3  193.02   18.27
   4  -2  -3  211.52   15.93
   4  -2  -3  203.02   15.65
   4  -2  -3  198.40   19.54
   4  -2  -3  245.76   27.80
   4  -2  -2   98.61    8.93
  -4  -2   2   93.09   15.47
   4  -2  -2  101.88    9.78
   4  -2  -2  115.36   17.27
   4  -2  -2   97.51   10.92
   4  -2  -2   92.63    9.49
   4  -2  -2   91.11    9.28
   4  -2  -2   93.66   10.02
   4  -2  -2   93.78    9.01
   4  -2  -2   99.47    9.24
   4  -2  -2   89.62    9.51
   4  -2  -2   95.23   11.50
   4  -2  -1   53.78    7.59
  -4  -2   1   70.66   12.98
   4  -2  -1   75.88    8.17
   4  -2  -1   72.97    7.90
   4  -2  -1   82.30    9.61
   4  -2  -1   76.90    7.59
   4  -2  -1   91.28    8.21
   4  -2  -1   78.40    8.04
   4  -2  -1   69.58    8.16
   4  -2   0   78.35   14.15
   4  -2   0   64.81    6.97
   4  -2   0   69.30    7.81
   4  -2   0   57.97    6.89
   4  -2   0   65.83    8.39
   4  -2   0   77.64    7.74
   4  -2   0   63.34    7.32
   4  -2   0   78.89    9.19
  -4  -2  -1   -0.66    4.19
   4  -2   1   -1.08    2.33
  -4  -2  -1    2.07    5.56
   4  -2   1   -1.50    2.06
   4  -2   1    2.30    2.43
   4  -2   1    0.83    2.42
   4  -2   1    4.68    3.46
   4  -2   2   23.39    8.70
  -4  -2  -2   30.69    7.18
   4  -2   2   22.71    4.69
   4  -2   2   25.62    6.41
   4  -2   2   21.94    4.04
  -4  -2  -2   13.23    8.12
   4  -2   2   18.25    3.53
   4  -2   2   21.34    4.93
   4  -2   3   19.76    4.34
  -4  -2  -3   18.85    6.97
  -4  -2  -3   23.89   11.71
   4  -2   3   17.22    6.46
   4  -2   3   14.72    3.54
  -4  -2  -3   23.45    9.69
   4  -2   3   13.90    4.26
  -4  -2  -4  476.70   35.17
   4  -2   4  437.43   28.25
   4  -2   4  390.17   34.79
   4  -2   4  396.41   29.37
   4  -2   4  458.67   30.39
  -4  -2  -4  478.23   35.89
  -4  -2  -5   32.34    9.06
  -4  -2  -5   46.16    9.76
  -4  -2  -5   43.02   15.64
  -4  -2  -5   43.18    7.54
   4  -2   5   54.90    7.26
   4  -2   5   38.49    9.85
  -4  -2  -6  139.59   17.07
  -4  -2  -6  179.95   27.01
   4  -2   6  145.20   18.35
  -4  -2  -6  145.56   14.37
  -4  -2  -6  151.83   14.53
   4  -2   6  154.78   13.73
  -4  -2  -6  157.10   17.99
  -4  -2  -7    2.57    4.90
   4  -2   7    1.40    2.56
   4  -2   7   -3.28    5.89
  -4  -2  -7   -2.15    3.39
  -4  -2  -7   -0.56    3.45
  -4  -2  -7    0.68    4.22
  -4  -2  -7    2.48    4.63
  -4  -2  -8  148.68   14.94
   4  -2   8  156.41   17.31
  -4  -2  -8  137.45   12.78
  -4  -2  -8  186.11   14.84
  -4  -2  -8  162.87   13.65
  -4  -2  -8  201.54   15.51
   4  -2   8  180.39   13.19
   4  -2   9   -0.53    3.08
  -4  -2  -9    1.90    2.00
   4  -1  -9    5.15    2.02
   4  -1  -9    5.01    1.63
   4  -1  -8   10.57    3.34
   4  -1  -8    9.92    3.14
   4  -1  -8   11.37    3.05
   4  -1  -7    0.53    3.26
   4  -1  -7    1.45    2.48
   4  -1  -7    2.28    4.57
   4  -1  -7    0.93    5.68
   4  -1  -6   80.83    7.95
   4  -1  -6   81.82    9.69
   4  -1  -6   75.78    8.71
   4  -1  -6   70.86    7.62
   4  -1  -6   69.85    7.52
   4  -1  -6   94.59   16.60
   4  -1  -5  108.27   11.11
   4  -1  -5  123.25   10.56
   4  -1  -5  105.23   11.81
   4  -1  -5   98.53   10.64
   4  -1  -5  100.05    9.68
   4  -1  -5   98.66   12.02
   4  -1  -5  113.07   10.23
   4  -1  -5  105.13   10.01
   4  -1  -5  111.74   10.48
   4  -1  -5  121.59   14.86
   4  -1  -5  120.46   19.94
   4  -1  -4  635.35   38.35
   4  -1  -4  564.94   39.97
   4  -1  -4  630.37   39.87
   4  -1  -4  624.37   41.61
   4  -1  -4  591.42   39.99
   4  -1  -4  644.81   42.04
   4  -1  -4  604.60   41.32
   4  -1  -4  634.99   39.30
   4  -1  -4  549.72   38.78
   4  -1  -4  648.16   39.97
   4  -1  -4  640.28   44.39
   4  -1  -4  631.52   54.13
   4  -1  -3  285.84   19.28
   4  -1  -3  262.05   20.33
   4  -1  -3  288.03   20.49
   4  -1  -3  281.38   21.93
   4  -1  -3  263.88   20.17
   4  -1  -3  262.50   21.29
   4  -1  -3  272.95   21.50
   4  -1  -3  265.39   19.61
   4  -1  -3  257.39   19.35
   4  -1  -3  281.71   20.45
   4  -1  -3  263.77   23.13
   4  -1  -3  289.81   31.65
   4  -1  -2   90.36    8.41
   4  -1  -2  100.83    9.55
   4  -1  -2   83.62    8.63
   4  -1  -2   82.83    8.37
   4  -1  -2   83.57   10.96
   4  -1  -2   95.65    9.37
   4  -1  -1  100.83    9.84
   4  -1  -1  113.71   10.99
   4  -1  -1  111.92   10.68
   4  -1  -1  120.53   12.05
   4  -1  -1  128.46   11.24
   4  -1  -1  146.64   11.17
   4  -1  -1  130.47   11.03
   4  -1  -1  115.79   10.23
   4  -1  -1  112.10   12.25
   4  -1  -1  148.99   13.05
   4  -1   0  122.64   18.47
   4  -1   0   93.51    8.97
   4  -1   0   99.03    9.95
   4  -1   0  101.28   10.93
   4  -1   0  106.78    9.73
   4  -1   0  102.82    9.23
   4  -1   0  132.74   12.13
   4  -1   1  172.50   14.70
  -4  -1  -1  202.92   25.17
   4  -1   1  214.14   16.55
   4  -1   1  199.99   15.88
   4  -1   1  221.25   15.20
   4  -1   1  223.89   17.67
   4  -1   2   58.06    6.63
  -4  -1  -2   77.96   15.15
   4  -1   2   52.43    6.38
   4  -1   2   68.08    7.62
   4  -1   2   70.24    8.67
   4  -1   2   70.49    7.81
   4  -1   3   44.98    5.66
  -4  -1  -3   58.53   15.28
   4  -1   3   34.02    7.81
  -4  -1  -3   55.94   13.83
   4  -1   3   46.65    7.17
   4  -1   3   54.45    7.08
   4  -1   4   80.88    8.02
  -4  -1  -4  120.37   22.24
   4  -1   4   78.50   12.28
  -4  -1  -4   89.26    9.91
   4  -1   4   95.44   10.17
   4  -1   4   93.09   10.12
   4  -1   5   15.58    4.47
  -4  -1  -5    7.24    7.05
   4  -1   5   15.79    6.84
  -4  -1  -5   17.59    4.72
   4  -1   5   14.35    4.20
   4  -1   6   19.77    5.08
  -4  -1  -6   23.42    7.87
  -4  -1  -6   17.18    9.54
   4  -1   6   23.12    8.15
  -4  -1  -6   27.70    5.62
  -4  -1  -6   25.29    5.93
  -4  -1  -6   34.91    8.46
  -4  -1  -7   41.38    9.21
   4  -1   7   46.13    6.65
   4  -1   7   36.75    9.63
  -4  -1  -7   47.32    6.52
  -4  -1  -7   43.49    6.76
  -4  -1  -7   46.38    8.24
  -4  -1  -7   57.64    9.62
  -4  -1  -8    1.30    4.01
   4  -1   8    9.27    3.13
  -4  -1  -8   10.98    4.66
   4  -1   8   14.12    6.07
  -4  -1  -8    8.92    3.24
  -4  -1  -8    1.12    3.95
   4  -1   9   -1.71    3.48
  -4  -1  -9    2.09    2.33
  -4  -1  -9    2.88    2.74
   4   0  -9   24.36    3.75
   4   0  -9   21.97    3.40
   4   0  -8   14.43    3.79
   4   0  -8    8.46    2.58
   4   0  -8    7.93    3.12
   4   0  -8    9.39    4.70
   4   0  -7    6.52    3.55
   4   0  -7    8.36    3.56
   4   0  -7    6.10    4.90
   4   0  -7    3.92    2.55
   4   0  -7    5.13    2.53
   4   0  -6   -0.59    2.84
   4   0  -6    1.09    1.79
   4   0  -6    2.34    3.02
   4   0  -6    5.70    4.56
   4   0  -6    1.96    2.95
   4   0  -6    2.25    2.32
   4   0  -6   -1.16    2.21
   4   0  -6    4.59    5.04
   4   0  -5   81.57    9.85
   4   0  -5   88.78    9.08
   4   0  -5  102.11   10.90
   4   0  -5   91.34   11.90
   4   0  -5   84.56    9.31
   4   0  -5  100.95    9.51
   4   0  -5   79.11    8.91
   4   0  -5  122.45   10.11
   4   0  -5  105.65   14.33
   4   0  -5   97.86   17.94
   4   0  -4  642.49   44.54
   4   0  -4  710.62   44.19
   4   0  -4  686.57   45.83
   4   0  -4  672.87   44.68
   4   0  -4  671.96   43.82
   4   0  -4  643.76   44.68
   4   0  -4  741.00   42.87
   4   0  -4  679.26   43.90
   4   0  -4  713.68   43.84
   4   0  -4  708.01   43.89
   4   0  -4  759.27   49.37
   4   0  -4  667.79   43.07
   4   0  -4  665.64   58.13
   4   0  -3  278.59   19.99
   4   0  -3  271.68   21.06
   4   0  -3  298.68   21.26
   4   0  -3  287.84   22.47
   4   0  -3  263.91   21.01
   4   0  -3  289.38   20.59
   4   0  -3  286.60   21.43
   4   0  -3  266.28   20.66
   4   0  -3  320.09   21.30
   4   0  -3  312.08   24.70
   4   0  -3  284.77   20.25
   4   0  -3  306.36   32.57
   4   0  -2   85.84    8.68
   4   0  -2   91.72    9.60
   4   0  -2   79.82    8.66
   4   0  -2  104.90   11.01
   4   0  -2  104.79    9.95
   4   0  -2   92.89    9.77
   4   0  -2   88.26    9.15
   4   0  -2  106.26    9.24
   4   0  -2   96.07   11.48
   4   0  -2  113.14   11.20
   4   0  -2   94.01    8.99
   4   0  -1    8.73    2.95
   4   0  -1    9.22    3.64
   4   0  -1    9.36    3.39
   4   0  -1    5.81    2.99
   4   0  -1    8.73    2.74
   4   0  -1    5.50    3.02
   4   0  -1    8.45    6.98
   4   0   0    1.51    2.20
   4   0   0    5.81    2.97
  -4   0   0    9.36    5.14
   4   0   0    1.44    2.49
   4   0   0    4.04    2.52
   4   0   0    3.64    2.30
   4   0   0    9.17    3.31
   4   0   0    4.22    3.44
   4   0   0   -4.01    6.24
   4   0   1  108.46   10.28
  -4   0  -1  133.62   18.73
   4   0   1  140.92   12.03
   4   0   1  115.32   10.95
   4   0   1  140.59   10.54
   4   0   1  124.89   12.48
   4   0   1  103.47   18.10
   4   0   1  117.72   10.89
  -4   0  -2   53.86   13.25
   4   0   2   44.61    5.57
  -4   0  -2   50.08   11.69
   4   0   2   33.17    5.47
   4   0   2   38.27    6.82
   4   0   2   47.61    6.28
   4   0   2   27.70    9.79
  -4   0  -3  281.47   33.94
   4   0   3  233.50   17.93
   4   0   3  277.88   19.77
   4   0   3  213.44   19.85
   4   0   3  303.06   20.27
   4   0   3  239.14   27.76
  -4   0  -4  574.67   52.95
   4   0   4  477.77   30.75
   4   0   4  411.75   35.36
   4   0   4  434.03   33.25
   4   0   4  561.89   33.72
  -4   0  -5  255.73   33.37
   4   0   5  182.52   20.42
   4   0   5  203.51   18.14
   4   0   5  240.43   18.40
   4   0   6   24.23    5.27
   4   0   6   24.97    7.63
  -4   0  -6   20.10    4.81
   4   0   6   14.95    4.60
  -4   0  -6   16.92    7.26
  -4   0  -7   39.43    8.91
  -4   0  -7   34.07    8.82
   4   0   7   45.15    9.36
  -4   0  -7   45.59    6.27
  -4   0  -7   53.27    8.23
   4   0   7   53.08    7.20
  -4   0  -7   31.18    8.45
  -4   0  -8   45.36    7.83
  -4   0  -8   46.44    7.98
   4   0   8   36.35    8.45
  -4   0  -8   51.24    7.64
  -4   0  -8   55.20    7.71
   4   0   8   52.77    6.52
   4   0   9  122.19   13.01
  -4   0  -9  152.96   11.83
  -4   0  -9  135.07   11.49
   4   1  -9   10.70    2.54
   4   1  -9    9.33    2.44
   4   1  -8    7.87    3.12
   4   1  -8    6.71    4.57
   4   1  -8    8.58    2.90
   4   1  -8    7.52    2.27
   4   1  -7    3.14    2.93
   4   1  -7    0.42    2.34
   4   1  -7    7.52    5.02
   4   1  -7   -1.47    2.81
   4   1  -7    1.15    1.48
   4   1  -7    4.16    2.33
   4   1  -6   83.33    9.51
   4   1  -6   85.98    7.71
   4   1  -6   92.80    9.67
   4   1  -6   94.01   11.73
   4   1  -6   82.66    9.32
   4   1  -6   77.76    8.15
   4   1  -6   64.33    7.85
   4   1  -6   85.47   16.66
   4   1  -5  111.15   11.36
   4   1  -5  111.15    9.96
   4   1  -5  104.33   11.18
   4   1  -5  111.89   13.20
   4   1  -5  107.06   11.04
   4   1  -5  108.34   10.22
   4   1  -5  105.23    9.73
   4   1  -5   92.82    9.78
   4   1  -5   83.84   18.07
   4   1  -4  572.12   37.10
   4   1  -4  605.65   39.38
   4   1  -4  582.22   38.22
   4   1  -4  527.83   37.46
   4   1  -4  640.75   40.23
   4   1  -4  638.88   41.63
   4   1  -4  614.59   39.15
   4   1  -4  580.78   38.33
   4   1  -4  606.79   38.09
   4   1  -4  661.62   44.03
   4   1  -4  553.15   38.08
   4   1  -4  634.04   54.00
   4   1  -3  272.72   19.44
   4   1  -3  261.71   20.50
   4   1  -3  254.01   19.71
   4   1  -3  267.80   21.50
   4   1  -3  305.02   22.29
   4   1  -3  277.79   20.82
   4   1  -3  287.08   20.61
   4   1  -3  258.94   19.64
   4   1  -3  286.81   24.04
   4   1  -3  255.54   19.72
   4   1  -3  329.68   35.20
   4   1  -3  252.28   30.51
   4   1  -2   96.26    9.74
   4   1  -2   84.18    9.16
   4   1  -2   90.79   10.52
   4   1  -2   98.56   10.05
   4   1  -2   85.37    9.34
   4   1  -2   91.68   11.44
   4   1  -2  106.15   10.55
   4   1  -2   93.90    9.44
  -4   1   1  142.51   16.52
   4   1  -1  129.94   11.72
   4   1  -1  115.95   11.40
   4   1  -1  109.99   11.37
   4   1  -1  148.27   13.35
   4   1  -1  151.02   11.61
   4   1  -1  122.19   11.15
   4   1  -1  108.23   11.82
   4   1  -1  116.64   11.22
   4   1  -1  174.18   23.71
  -4   1   0  112.76   15.27
   4   1   0   87.24    9.78
   4   1   0  111.51   10.96
   4   1   0  106.10   10.39
   4   1   0  123.73   11.89
   4   1   0  108.44    9.84
   4   1   0  105.59    9.95
   4   1   0   98.72    9.25
   4   1   0  114.22   19.71
   4   1   1  242.74   16.67
  -4   1  -1  231.74   26.71
  -4   1  -1  220.72   23.39
   4   1   1  211.40   16.88
   4   1   1  215.61   17.46
   4   1   1  211.82   17.41
   4   1   1  196.91   16.02
   4   1   1  194.52   15.17
   4   1   1  189.62   17.51
   4   1   1  223.49   27.59
   4   1   2   61.09   14.24
   4   1   2   44.00    6.22
   4   1   2   75.39    8.49
   4   1   2   66.85    7.55
  -4   1  -2   69.12   15.28
   4   1   2   55.85    8.20
   4   1   2   61.30    7.36
   4   1   2   71.24   14.53
   4   1   3   39.48   14.12
  -4   1  -3   68.75   15.65
   4   1   3   52.48    6.35
   4   1   3   46.90    6.92
   4   1   3   49.10    6.60
   4   1   3   34.61    7.36
   4   1   3   55.12    7.18
   4   1   3   41.17   11.31
   4   1   4   70.66   20.50
  -4   1  -4  108.31   20.69
   4   1   4   94.25    8.57
   4   1   4   74.33   10.77
   4   1   4   72.90   10.18
   4   1   4   96.83   10.12
   4   1   5   15.29   11.91
   4   1   5   14.26    4.47
  -4   1  -5    5.67    7.68
   4   1   5   14.40    5.74
   4   1   5   20.97    5.86
   4   1   6   28.37    5.60
   4   1   6   18.07    6.90
  -4   1  -6   33.19    6.97
   4   1   6   12.20    4.78
  -4   1  -7   49.42    9.55
   4   1   7   31.16    8.29
  -4   1  -7   38.18    7.38
   4   1   7   45.18    6.68
   4   1   7   33.59    6.07
  -4   1  -7   55.61    9.27
  -4   1  -8    8.42    4.69
   4   1   8   10.54    3.31
  -4   1  -8    4.81    4.23
   4   1   8    7.71    4.81
  -4   1  -8    6.04    4.29
  -4   1  -8    8.44    3.81
   4   1   9    1.46    2.94
  -4   1  -9    3.15    2.50
  -4   1  -9    5.99    2.45
   4   2  -9   19.65    2.87
   4   2  -9   18.81    3.09
   4   2  -9   21.92    2.99
   4   2  -8    5.01    2.50
   4   2  -8    3.41    3.91
   4   2  -8    5.68    2.72
   4   2  -8    4.23    2.58
   4   2  -8    3.95    2.02
   4   2  -7   76.94    8.22
   4   2  -7   79.77   10.26
   4   2  -7   70.07    8.27
   4   2  -7   68.64    6.71
   4   2  -7   66.58    7.32
   4   2  -6   28.49    5.43
   4   2  -6   26.21    6.73
   4   2  -6   28.98    5.60
   4   2  -6   26.08    4.66
   4   2  -6   29.42    5.25
   4   2  -6   46.17   10.94
   4   2  -5  108.40   10.50
   4   2  -5   88.08    8.87
   4   2  -5   84.16    9.10
   4   2  -5  105.36   12.44
   4   2  -5  104.48   10.74
   4   2  -5   95.84   10.06
   4   2  -5  100.20   18.08
   4   2  -4  105.58    9.76
   4   2  -4  124.02   11.59
   4   2  -4  108.51   10.68
   4   2  -4  123.61   13.01
   4   2  -4  114.05   11.65
   4   2  -4  118.18   11.70
   4   2  -4  108.34    9.98
   4   2  -4  105.53   10.94
   4   2  -4  122.26   20.03
   4   2  -3  225.03   17.52
   4   2  -3  193.67   16.93
   4   2  -3  232.54   18.75
   4   2  -3  210.23   17.57
   4   2  -3  240.00   18.25
   4   2  -3  196.36   16.84
   4   2  -3  268.14   31.01
   4   2  -3  216.44   27.64
   4   2  -2   95.06   10.25
   4   2  -2   97.10   10.30
   4   2  -2  107.32   10.77
   4   2  -2  114.04   11.15
   4   2  -2  122.63   12.07
   4   2  -2  103.02   10.13
   4   2  -2  113.05   11.00
   4   2  -2  100.19   10.35
   4   2  -1   72.73    8.22
   4   2  -1   66.99    8.40
   4   2  -1   76.87    8.55
   4   2  -1   76.10    7.71
   4   2  -1   67.16    7.89
   4   2  -1   74.20    8.95
   4   2  -1   79.06    8.81
  -4   2   0   74.17   12.92
   4   2   0   83.41    8.56
   4   2   0   69.04    8.67
   4   2   0   80.00    9.43
   4   2   0   82.45    8.01
   4   2   0   73.42    8.24
   4   2   0   60.72    8.63
   4   2   0   62.14    8.13
   4   2   0   76.46   16.23
   4   2   1    5.67    3.60
  -4   2  -1    1.69    5.24
   4   2   1    0.63    2.78
   4   2   1   -0.91    1.88
   4   2   1    0.41    2.23
   4   2   1   -2.27    6.59
   4   2   2   31.96   11.58
   4   2   2   34.60    5.31
  -4   2  -2   15.78    9.34
   4   2   2   29.48    6.00
   4   2   2   27.31    5.57
   4   2   2   31.31    5.02
   4   2   2   24.23    6.26
   4   2   2   28.87   10.48
   4   2   3    9.00    8.15
   4   2   3   21.53    4.62
  -4   2  -3   25.05   10.96
   4   2   3   17.38    4.45
   4   2   3   21.68    4.37
   4   2   3   16.74    5.23
   4   2   3   19.39    7.93
   4   2   4  333.01   46.39
  -4   2  -4  481.32   46.11
   4   2   4  374.23   26.82
   4   2   4  383.16   30.18
   4   2   4  467.69   29.03
   4   2   5   34.90   13.68
   4   2   5   46.99    6.81
  -4   2  -5   40.81    6.94
   4   2   5   38.25    7.25
   4   2   6  139.43   27.41
   4   2   6  106.26   14.56
  -4   2  -6  143.07   13.55
   4   2   6  135.69   13.80
   4   2   6  165.45   13.58
   4   2   7   -5.30    3.22
  -4   2  -7    1.76    4.93
   4   2   7   -0.84    4.33
  -4   2  -7   -1.88    4.23
  -4   2  -7    2.69    3.18
   4   2   7   -2.19    3.35
  -4   2  -7    2.19    4.55
  -4   2  -8  157.23   14.78
   4   2   8  143.70   14.62
  -4   2  -8  168.15   13.76
  -4   2  -8  166.01   12.92
   4   2   8  117.30   11.45
   4   2   8  178.88   12.98
  -4   2  -8  142.50   14.05
  -4   2  -9    1.12    2.07
   4   3  -9   15.40    2.42
   4   3  -9   13.67    2.29
   4   3  -9    7.26    1.41
   4   3  -8    1.63    1.76
   4   3  -8    1.39    2.29
   4   3  -8    1.44    2.33
   4   3  -8    0.89    1.73
   4   3  -7    2.70    2.22
   4   3  -7    7.29    4.73
   4   3  -7    5.13    3.00
   4   3  -7    3.90    2.94
   4   3  -7    3.32    1.96
   4   3  -7    7.08    3.01
   4   3  -6   74.89    8.37
   4   3  -6   90.95   11.16
   4   3  -6   80.98    9.09
   4   3  -6   80.06    9.50
   4   3  -6   78.12    8.11
   4   3  -6   82.08    9.08
   4   3  -5  259.12   20.65
   4   3  -5  268.51   19.68
   4   3  -5  303.07   24.03
   4   3  -5  291.74   21.99
   4   3  -5  302.67   22.35
   4   3  -5  283.74   21.67
   4   3  -5  307.18   32.11
   4   3  -4   54.83    7.13
   4   3  -4   49.89    7.16
   4   3  -4   62.23    9.10
   4   3  -4   53.24    7.94
   4   3  -4   37.41    6.92
   4   3  -4   47.11   11.38
   4   3  -4   42.19   11.81
   4   3  -3  153.65   13.81
   4   3  -3  148.60   15.09
   4   3  -3  163.82   14.52
   4   3  -3  173.58   15.39
   4   3  -3  186.37   15.89
   4   3  -3  171.42   14.93
   4   3  -3  133.71   23.03
   4   3  -2  138.84   12.86
   4   3  -2  150.36   14.08
   4   3  -2  146.62   13.48
   4   3  -2  170.69   14.89
   4   3  -2  145.02   14.56
   4   3  -2  151.12   13.64
   4   3  -2  165.13   14.24
   4   3  -2  115.32   21.37
   4   3  -1  289.68   22.04
   4   3  -1  355.04   24.38
   4   3  -1  279.35   22.97
   4   3  -1  327.06   23.38
   4   3  -1  319.22   22.67
   4   3  -1  318.82   23.55
   4   3   0  167.27   13.43
   4   3   0  162.22   14.81
   4   3   0  133.30   14.58
   4   3   0  187.61   13.25
   4   3   0  147.51   13.03
   4   3   0  136.28   14.05
   4   3   0  151.17   14.08
   4   3   1  120.49   18.76
   4   3   1  109.22   11.70
   4   3   1   96.17   11.16
   4   3   1  105.77   11.82
   4   3   1  117.03   10.08
   4   3   1  117.98   10.58
   4   3   1  109.06   12.17
   4   3   2   82.73    8.47
   4   3   2   72.13   17.45
  -4   3  -2   69.76   14.82
   4   3   2   72.41    9.52
   4   3   2   82.55    9.97
   4   3   2   76.12    8.22
   4   3   2   92.18   10.37
   4   3   2   79.91    8.33
   4   3   3  332.29   44.20
   4   3   3  354.07   27.51
   4   3   3  394.23   25.76
   4   3   3  382.47   26.19
   4   3   4  168.94   31.75
   4   3   4  167.63   14.99
   4   3   4  169.84   14.19
   4   3   4  145.73   22.57
   4   3   5  131.25   25.24
   4   3   5   85.00    9.31
   4   3   6   54.67    8.64
   4   3   6   61.16    7.44
   4   3   7   16.38    3.92
  -4   3  -7   16.64    4.83
  -4   3  -7   16.34    3.83
   4   3   7   11.56    4.36
   4   3   8   11.95    2.89
  -4   3  -8    9.20    2.96
   4   3   8   12.47    3.35
  -4   3  -9    4.34    2.22
   4   4  -8   11.96    2.55
   4   4  -8   10.65    2.43
   4   4  -8    9.42    2.35
   4   4  -7    9.69    2.41
   4   4  -7   16.35    3.59
   4   4  -7   11.68    2.51
   4   4  -7   17.80    4.02
   4   4  -6   51.63    6.09
   4   4  -6   52.93    6.48
   4   4  -6   60.88    7.12
   4   4  -6   56.47    7.60
   4   4  -5    5.44    2.61
   4   4  -5    4.11    1.93
   4   4  -5    5.83    3.25
   4   4  -5    0.58    3.44
   4   4  -4   41.69    5.74
   4   4  -4   40.55    6.47
   4   4  -4   36.60    6.28
   4   4  -4   42.39    7.01
   4   4  -4   52.17   11.70
   4   4  -3  105.23   10.06
   4   4  -3  115.62   11.81
   4   4  -3  108.28   11.05
   4   4  -3  134.67   12.64
   4   4  -3   95.51   11.35
   4   4  -3  115.84   20.25
   4   4  -2  167.30   13.87
   4   4  -2  180.77   15.82
   4   4  -2  181.42   15.03
   4   4  -2  162.46   15.96
   4   4  -2  191.55   15.12
   4   4  -2  163.27   15.45
   4   4  -2  151.86   24.78
   4   4  -1   51.75    6.63
   4   4  -1   69.24    8.88
   4   4  -1   68.66    8.08
   4   4  -1   66.62    7.61
   4   4  -1   53.85    7.71
   4   4  -1   54.54    8.04
   4   4   0   54.41    8.12
   4   4   0   56.13    8.22
   4   4   0   46.23    8.28
   4   4   0   67.03    7.49
   4   4   0   65.51    6.73
   4   4   0   61.14    8.41
   4   4   0   78.44    9.32
   4   4   1   18.06    5.03
   4   4   1   20.38    5.19
   4   4   1   16.74    5.34
   4   4   1   18.42    3.95
   4   4   1   15.65    3.49
   4   4   1   19.74    5.59
   4   4   2  121.62   12.60
   4   4   2  148.67   13.76
   4   4   2  111.46   12.61
   4   4   2  132.69   10.92
   4   4   2  107.13   13.16
   4   4   3  461.16   31.13
   4   4   3  464.55   32.00
   4   4   3  388.01   30.70
   4   4   3  426.54   28.60
   4   4   4   28.87   11.33
   4   4   4   28.48    4.84
   4   4   4   26.94    5.49
   4   4   5  104.94   22.47
   4   4   5  102.63   18.61
  -4   4  -5   86.83    9.67
   4   4   5  104.94    9.64
   4   4   6   24.30    4.03
  -4   4  -6   17.08    4.38
   4   4   6   20.55    5.72
  -4   4  -7   22.99    4.06
   4   4   7   22.44    5.26
  -4   4  -8    1.40    3.20
   4   4   8    1.60    2.41
   4   5  -8    3.35    1.52
   4   5  -7    7.62    2.17
   4   5  -7   10.03    3.14
   4   5  -7   12.77    3.24
   4   5  -6   26.03    4.12
   4   5  -6   22.13    4.65
   4   5  -6   22.32    4.78
   4   5  -5   12.08    3.33
   4   5  -5   14.53    4.61
   4   5  -4  111.77   10.58
   4   5  -4  105.56   11.79
   4   5  -4  114.87   11.61
   4   5  -4  109.76   11.57
   4   5  -3  110.36   11.48
   4   5  -3  106.28   10.27
   4   5  -3   99.70   11.23
   4   5  -3  110.80   11.93
   4   5  -3  101.46   11.50
   4   5  -3  120.21   19.28
   4   5  -2  189.55   16.86
   4   5  -2  192.67   15.40
   4   5  -2  187.51   17.26
   4   5  -2  208.26   17.89
   4   5  -2  175.74   15.40
   4   5  -2  203.78   17.19
   4   5  -2  188.82   27.45
   4   5  -1  254.33   20.75
   4   5  -1  239.90   20.84
   4   5  -1  227.81   18.41
   4   5  -1  232.75   18.92
   4   5  -1  296.91   21.19
   4   5   0  134.21   13.65
   4   5   0  133.58   13.85
   4   5   0  143.81   12.10
   4   5   0  128.69   13.05
   4   5   0  164.86   14.51
   4   5   1  133.46   12.84
   4   5   1  124.36   12.85
   4   5   1  100.06   11.91
   4   5   2   92.24   10.44
   4   5   2  104.72   11.29
   4   5   2   67.73    9.90
   4   5   3  230.22   19.17
   4   5   3  204.21   19.21
   4   5   4   37.40    6.53
   4   5   5    4.26    2.71
   4   5   6    7.20    4.34
  -4   5  -7    9.51    4.34
   4   5   7   10.45    3.88
  -4   5  -8    8.43    3.12
   4   5   8   12.22    2.67
   4   6  -7    1.10    1.45
   4   6  -6    5.62    2.51
   4   6  -5   47.71    6.54
   4   6  -4  238.86   19.22
   4   6  -4  243.20   19.11
   4   6  -3  125.67   12.35
   4   6  -3  122.67   12.38
   4   6  -3  129.58   13.23
   4   6  -3  139.03   11.86
   4   6  -3  141.61   13.16
   4   6  -2   63.98    9.01
   4   6  -2   67.05    8.86
   4   6  -2   68.54    9.65
   4   6  -2   59.66    7.26
   4   6  -2   72.44    9.07
   4   6  -2   63.23   14.12
   4   6  -1   15.08    4.99
   4   6  -1    8.66    4.40
   4   6  -1   12.10    3.21
   4   6  -1   14.89    5.01
   4   6   0   32.56    6.76
   4   6   0   45.47    7.44
   4   6   0   36.97    6.11
   4   6   1  195.47   16.56
   4   6   1  211.34   17.27
   4   6   2   70.09    9.12
   4   6   2   71.39    9.52
   4   6   2   60.34    8.58
  -4   6  -3   13.13    4.51
   4   6   3   14.35    4.47
   4   6   3   11.37    4.22
   4   6   3   11.76    4.71
  -4   6  -4   27.44    5.96
   4   6   4   37.95    6.26
   4   6   4   30.01    6.49
  -4   6  -5   67.33    9.19
   4   6   5   82.40    8.26
  -4   6  -6   41.21    6.76
   4   6   6   46.61    6.97
  -4   6  -7   15.35    3.73
   4   6   7   14.21    3.70
   4   7  -6    7.97    2.13
   4   7  -6   10.27    2.03
   4   7  -6   10.23    2.63
   4   7  -5   31.77    4.87
   4   7  -5   33.54    4.24
   4   7  -5   44.89    5.34
   4   7  -4   53.61    5.78
   4   7  -4   62.62    7.20
   4   7  -3   16.36    3.78
   4   7  -3   10.32    3.39
   4   7  -3    7.63    2.58
   4   7  -3    8.14    3.50
   4   7  -2   58.52    7.62
   4   7  -2   47.74    7.53
   4   7  -2   50.19    7.42
   4   7  -2   60.33    7.55
   4   7  -1   14.82    5.00
   4   7  -1   22.14    5.35
   4   7   0   29.70    6.10
   4   7   0   36.62    6.53
   4   7   1    1.17    3.76
   4   7   1    7.73    3.98
   4   7   1   -0.67    3.83
   4   7   1    2.66    2.24
   4   7   2  172.77   14.41
   4   7   2  171.89   13.86
   4   7   2  144.38   14.38
  -4   7  -3    0.45    3.18
   4   7   3    4.45    2.93
   4   7   3    5.27    3.28
   4   7   3   -0.50    2.98
  -4   7  -4    6.46    3.21
  -4   7  -4    7.77    3.59
   4   7   4   17.37    4.24
   4   7   4    9.63    3.59
  -4   7  -5   -0.36    2.42
  -4   7  -5    1.87    2.76
   4   7   5   -0.30    1.77
   4   7   5    2.53    2.78
  -4   7  -6   -0.26    1.99
  -4   7  -6    2.49    2.33
   4   7   6   -0.64    2.37
   4   8  -5   28.46    3.81
   4   8  -5   32.30    3.63
   4   8  -4   27.97    3.96
   4   8  -3   56.56    6.90
   4   8  -2    4.93    3.13
   4   8  -2    6.51    2.77
   4   8  -2    4.39    2.76
   4   8  -1   21.22    4.50
   4   8  -1   16.51    4.18
   4   8  -1   14.88    4.03
   4   8   0   -0.92    2.85
   4   8   0    0.96    2.80
   4   8   0    1.04    2.86
   4   8   1   39.48    5.56
   4   8   1   31.43    5.63
   4   8   2   13.60    3.71
   4   8   2   11.03    3.92
   4   8   3   63.50    7.63
   4   8   4   52.84    5.87
   4   8   4   37.67    4.77
   4   8   5   40.98    4.56
   4   9  -3   31.56    3.77
   4   9  -2    9.38    2.64
   4   9  -1   36.62    4.40
   4   9  -1   32.42    4.52
   4   9  -1   27.52    4.13
   4   9   0   34.56    4.76
   4   9   0   33.13    3.99
   4   9   0   28.14    4.57
   4   9   1   26.46    4.23
   4   9   2   -1.89    2.08
   4   9   3    0.24    1.70
  -5  -8   2   12.61    2.73
   5  -8  -2    9.31    2.53
   5  -8  -1   10.92    2.79
  -5  -8   0  117.96    9.64
   5  -8   0  115.95    9.15
  -5  -8  -1   39.27    4.64
  -5  -8  -1   27.72    4.22
   5  -8   1   34.16    4.04
  -5  -8  -2    5.63    1.99
   5  -7  -4    6.61    3.06
   5  -7  -3   85.72    8.40
   5  -7  -3   77.76    8.60
   5  -7  -2   50.01    6.64
   5  -7  -2   49.67    6.86
   5  -7  -1   -2.79    3.69
   5  -7  -1   -2.60    3.13
   5  -7   0   33.49    5.99
  -5  -7  -1   23.90    4.79
   5  -7   1   26.86    5.24
   5  -7   2   12.18    3.85
  -5  -7  -2   10.60    3.36
   5  -7   3   26.99    4.70
  -5  -7  -3   34.32    4.59
  -5  -7  -3   27.35    4.50
  -5  -7  -4    6.63    2.41
  -5  -7  -4   -0.59    1.77
   5  -6  -5    0.47    1.60
   5  -6  -5    4.24    3.19
   5  -6  -4   -1.47    2.06
   5  -6  -4    4.33    3.59
   5  -6  -4    5.84    3.78
   5  -6  -3  108.29   10.87
   5  -6  -3  101.28   11.68
   5  -6  -2   80.54    9.44
   5  -6  -2   68.88    9.49
   5  -6  -1   19.35    5.95
   5  -6  -1   11.66    4.51
   5  -6   0   39.44    7.24
   5  -6   1   78.51    9.43
   5  -6   1   54.71    8.64
  -5  -6  -1   70.74    9.09
  -5  -6  -2    2.00    3.00
  -5  -6  -2    7.08    4.06
   5  -6   3   33.46    6.36
  -5  -6  -3   30.34    5.34
  -5  -6  -3   40.80    6.13
  -5  -6  -3   37.13    6.57
   5  -6   4    6.88    3.62
  -5  -6  -4    6.44    2.73
  -5  -6  -4    7.97    3.33
  -5  -6  -4    7.01    3.63
  -5  -6  -5   13.73    3.09
   5  -5  -6   22.66    3.82
   5  -5  -6   22.15    3.68
   5  -5  -5    9.35    3.01
   5  -5  -5    7.49    4.50
   5  -5  -4   39.91    5.86
   5  -5  -4   36.05    7.36
   5  -5  -3    8.52    3.30
   5  -5  -3   -0.71    4.63
   5  -5  -2   21.51    4.82
   5  -5  -2   23.41    6.31
   5  -5  -1   54.70    8.54
   5  -5   0    8.22    4.19
  -5  -5   0    6.42    3.62
   5  -5   1   68.28    9.48
  -5  -5  -1   62.62    9.47
   5  -5   2   40.68    7.46
  -5  -5  -2   49.64    8.64
   5  -5   3   23.96    5.94
  -5  -5  -3   29.95    5.31
  -5  -5  -3   33.49    7.23
   5  -5   4    8.37    4.54
  -5  -5  -4   12.74    3.42
  -5  -5  -4   10.48    4.32
  -5  -5  -4    6.89    4.64
   5  -5   5   37.04    6.11
  -5  -5  -5   26.53    4.96
  -5  -5  -5   33.85    5.48
   5  -5   6   22.65    4.28
  -5  -5  -6   28.35    3.92
  -5  -5  -6   30.45    4.16
  -5  -5  -6   27.79    4.09
   5  -4  -7   14.42    2.76
   5  -4  -7    6.43    2.48
   5  -4  -6   42.81    5.92
   5  -4  -5   15.46    4.31
   5  -4  -5   10.37    5.26
   5  -4  -4   22.07    3.59
   5  -4  -4   20.68    5.00
   5  -4  -4   16.92    5.43
   5  -4  -4   16.74    6.13
   5  -4  -3   20.94    4.00
   5  -4  -3   28.60    5.64
   5  -4  -3   28.80    6.84
   5  -4  -3   21.01    6.70
   5  -4  -2  120.26   11.77
   5  -4  -2  108.86   12.92
   5  -4  -2  119.91   11.20
   5  -4  -2  105.25   12.97
   5  -4  -1  143.45   13.03
   5  -4  -1  147.96   14.80
   5  -4   0   26.73    9.13
   5  -4   0   22.72    5.65
  -5  -4   0   43.47   11.33
   5  -4   0   26.98    4.69
   5  -4   0   17.27    4.94
  -5  -4   0   17.80    5.73
   5  -4   1   57.42   12.11
   5  -4   1   26.26    6.66
  -5  -4  -1   55.73   12.95
   5  -4   1   37.85    5.30
  -5  -4  -1   38.99    8.07
  -5  -4  -1   39.22    7.29
  -5  -4  -2    2.18    4.37
   5  -4   2   -0.73    3.95
   5  -4   2    1.66    1.93
   5  -4   2    1.09    1.96
  -5  -4  -2   -0.86    4.55
  -5  -4  -2    3.17    4.52
  -5  -4  -3   84.66   11.31
  -5  -4  -3   90.77    9.57
   5  -4   3   84.94    8.05
  -5  -4  -3   86.30   12.13
  -5  -4  -3   75.69   11.30
  -5  -4  -4   91.28   12.02
  -5  -4  -4   96.19   10.36
  -5  -4  -4   95.49   12.18
  -5  -4  -5   44.11    7.76
  -5  -4  -5   41.66    6.16
  -5  -4  -6   13.48    3.21
  -5  -4  -6   17.39    3.91
  -5  -4  -6   16.32    4.35
   5  -4   7   10.36    2.94
  -5  -4  -7   12.68    2.59
  -5  -4  -7   13.81    2.99
   5  -3  -7   25.72    3.14
   5  -3  -7   26.47    4.31
   5  -3  -7   20.82    4.27
   5  -3  -6    6.39    2.27
   5  -3  -6    9.34    3.61
   5  -3  -6    7.05    3.64
   5  -3  -6    4.62    4.71
   5  -3  -5   29.07    4.42
   5  -3  -5   22.20    5.51
   5  -3  -5   28.53    6.18
   5  -3  -5   22.26    7.06
   5  -3  -4   67.62    7.48
   5  -3  -4   62.87    9.11
   5  -3  -4   69.82   10.40
   5  -3  -3   93.73    8.95
   5  -3  -3   88.84    9.08
   5  -3  -3   79.02    9.35
   5  -3  -3   96.71   10.82
   5  -3  -3   82.43   10.50
   5  -3  -3   89.49    8.26
   5  -3  -3   93.72    9.93
   5  -3  -3   82.56   11.59
   5  -3  -2  214.94   16.62
   5  -3  -2  219.45   17.08
   5  -3  -2  223.93   17.50
   5  -3  -2  219.49   18.73
   5  -3  -2  201.21   18.68
   5  -3  -2  210.43   16.23
   5  -3  -2  236.26   17.95
   5  -3  -2  210.07   19.40
   5  -3  -1   97.25   10.84
   5  -3  -1  143.62   11.84
   5  -3  -1  114.96   10.83
   5  -3  -1  138.81   12.16
   5  -3  -1  106.19   12.34
   5  -3   0  159.12   12.49
   5  -3   0  115.42   12.69
  -5  -3   0  132.88   22.09
   5  -3   0  146.52   12.32
   5  -3   0  132.80   12.64
  -5  -3   0  142.87   14.69
  -5  -3  -1   17.45    5.54
   5  -3   1   14.48    5.38
   5  -3   1   18.33    4.14
  -5  -3  -1    9.54    7.46
   5  -3   1    9.20    3.05
   5  -3   1   12.47    4.06
   5  -3   1   18.71    3.97
  -5  -3  -1   22.86    6.76
  -5  -3  -2   14.68    5.76
   5  -3   2   10.87    3.29
  -5  -3  -2   16.73    6.97
   5  -3   2    9.88    2.87
   5  -3   2   12.30    3.47
   5  -3   2    4.72    2.84
  -5  -3  -2    8.99    5.95
  -5  -3  -3    2.62    4.98
  -5  -3  -3   -2.21    4.36
   5  -3   3    3.62    2.68
   5  -3   3    2.91    2.26
  -5  -3  -3    0.93    5.31
  -5  -3  -4   69.33   10.84
  -5  -3  -4   50.65    8.90
  -5  -3  -4   58.19    7.98
   5  -3   4   63.94    7.22
  -5  -3  -4   80.81   11.91
  -5  -3  -5  107.17   13.23
  -5  -3  -5   97.13   10.22
   5  -3   5  113.29    9.87
  -5  -3  -5  118.04   13.77
  -5  -3  -6   56.20    8.74
  -5  -3  -6   53.62    6.34
  -5  -3  -6   67.04    7.49
   5  -3   6   62.49    6.17
  -5  -3  -6   50.87    7.97
  -5  -3  -7   35.07    4.48
  -5  -3  -7   36.58    5.27
   5  -2  -8    2.22    1.17
   5  -2  -8    4.63    1.88
   5  -2  -7   22.24    3.52
   5  -2  -7   21.31    3.90
   5  -2  -7   17.87    4.39
   5  -2  -6    6.96    2.74
   5  -2  -6    8.95    3.68
   5  -2  -6    5.47    2.34
   5  -2  -6    5.13    3.76
   5  -2  -6    5.03    5.19
   5  -2  -5    0.46    2.46
   5  -2  -5    3.00    3.56
   5  -2  -5    1.17    2.38
   5  -2  -5    5.13    3.71
   5  -2  -5    1.62    4.80
   5  -2  -4  120.73   10.14
   5  -2  -4  120.81   11.39
   5  -2  -4  143.42   12.08
   5  -2  -4  125.90   12.98
   5  -2  -4  121.87   10.86
   5  -2  -4  110.74   12.27
   5  -2  -4  109.51   10.09
   5  -2  -4  128.45   11.63
   5  -2  -4  107.73   13.89
   5  -2  -3   35.00    5.34
   5  -2  -3   27.96    5.25
   5  -2  -3   42.34    7.21
   5  -2  -3   33.76    5.12
   5  -2  -3   22.54    6.81
   5  -2  -2  237.42   17.63
   5  -2  -2  229.56   18.17
   5  -2  -2  242.06   18.47
   5  -2  -2  232.36   19.80
   5  -2  -2  206.77   19.02
   5  -2  -2  238.47   17.80
   5  -2  -2  234.05   18.62
   5  -2  -2  215.35   20.01
   5  -2  -1  114.16   11.44
   5  -2  -1  128.98   11.66
   5  -2  -1  128.51   11.64
   5  -2  -1  134.98   12.43
   5  -2  -1   90.68   11.76
   5  -2   0  149.59   13.99
  -5  -2   0  144.77   23.17
   5  -2   0  177.22   14.73
   5  -2   0  197.87   15.50
   5  -2   0  208.45   15.27
   5  -2   0  170.59   15.32
  -5  -2   0  193.95   17.76
   5  -2   1  118.14   10.34
   5  -2   1   65.28    9.62
  -5  -2  -1  112.47   19.49
   5  -2   1   98.56    9.74
   5  -2   1  116.31   10.52
  -5  -2  -1  120.50   14.22
  -5  -2  -1   96.95   12.12
  -5  -2  -2   56.06   10.28
  -5  -2  -2   65.14    9.65
   5  -2   2   70.37    7.68
  -5  -2  -2   97.40   19.85
  -5  -2  -2   82.48   16.55
   5  -2   2   55.41    6.81
   5  -2   2   67.08    8.08
   5  -2   2   76.77    9.36
  -5  -2  -2   71.95   11.57
  -5  -2  -3    0.94    5.46
  -5  -2  -3    0.83    5.07
  -5  -2  -3   16.25    7.29
   5  -2   3    1.21    2.54
   5  -2   3    1.02    2.92
   5  -2   3    0.57    3.03
  -5  -2  -3   -1.98    6.44
  -5  -2  -4  429.48   35.22
  -5  -2  -4  474.84   32.39
   5  -2   4  499.71   32.50
  -5  -2  -4  511.12   37.54
  -5  -2  -4  472.43   36.81
  -5  -2  -5   24.44    7.25
  -5  -2  -5   29.72    7.52
  -5  -2  -5   19.60    4.34
  -5  -2  -5   44.19    8.91
  -5  -2  -6  121.72   13.99
  -5  -2  -6  128.88   13.92
  -5  -2  -6  135.64   11.58
  -5  -2  -7   14.14    2.96
  -5  -2  -7   11.43    3.75
  -5  -2  -8    6.79    2.05
  -5  -2  -8   14.16    2.61
   5  -1  -8   63.33    5.26
   5  -1  -8   43.46    5.49
   5  -1  -7    2.68    2.16
   5  -1  -7    3.63    2.04
   5  -1  -7    5.06    3.31
   5  -1  -6   16.09    3.94
   5  -1  -6    9.40    3.70
   5  -1  -6   16.76    3.62
   5  -1  -6   16.40    4.72
   5  -1  -5   29.98    4.91
   5  -1  -5   23.43    5.46
   5  -1  -5   23.20    4.57
   5  -1  -5   29.45    5.95
   5  -1  -5   24.71    4.12
   5  -1  -5   13.25    6.77
   5  -1  -4   31.00    4.51
   5  -1  -4   31.01    5.66
   5  -1  -4   32.21    5.70
   5  -1  -4   26.17    6.20
   5  -1  -4   35.46    5.65
   5  -1  -4   25.56    5.61
   5  -1  -4   24.38    5.73
   5  -1  -4   36.14    5.26
   5  -1  -4   35.30    5.53
   5  -1  -4   36.23    5.62
   5  -1  -4   23.57    7.55
   5  -1  -3  511.44   33.30
   5  -1  -3  485.22   34.31
   5  -1  -3  524.29   36.30
   5  -1  -3  528.72   34.48
   5  -1  -3  503.52   34.85
   5  -1  -3  519.35   33.94
   5  -1  -3  510.69   34.32
   5  -1  -3  486.87   36.87
   5  -1  -2  111.73   10.79
   5  -1  -2  115.41   11.36
   5  -1  -2  111.08   11.33
   5  -1  -2  114.55   11.97
   5  -1  -2  138.91   11.40
   5  -1  -2  105.04   10.86
   5  -1  -2  111.31   12.84
   5  -1  -1   58.93    7.77
  -5  -1   1   69.58   13.09
   5  -1  -1   53.85    7.30
   5  -1  -1   44.24    6.49
   5  -1  -1   57.66    7.41
   5  -1  -1   50.00    7.56
   5  -1   0   32.82    5.26
  -5  -1   0   14.02    7.09
   5  -1   0   18.24    4.31
   5  -1   0   34.99    7.21
  -5  -1  -1   41.47    7.84
   5  -1   1   53.32    6.90
  -5  -1  -1   71.93   17.45
  -5  -1  -1   66.30   14.37
   5  -1   1   52.83    6.97
   5  -1   1   55.73    7.56
   5  -1   1   70.62    9.58
  -5  -1  -2   10.48    5.56
  -5  -1  -2    2.65    6.55
   5  -1   2   10.12    3.40
  -5  -1  -2   17.05    7.43
   5  -1   2   10.41    3.29
   5  -1   2   14.18    5.37
  -5  -1  -3    5.29    5.25
  -5  -1  -3    5.43    7.33
   5  -1   3   15.24    3.75
   5  -1   3    7.30    4.59
  -5  -1  -4   23.63    7.51
   5  -1   4   34.48    6.00
   5  -1   4   19.99    3.87
   5  -1   4   22.92    5.08
  -5  -1  -4   22.22    8.55
  -5  -1  -5  188.67   20.07
  -5  -1  -5  216.49   17.34
   5  -1   5  228.64   17.63
  -5  -1  -5  229.54   21.91
  -5  -1  -5  229.45   21.74
   5  -1   5  245.34   18.08
  -5  -1  -6    4.76    5.15
   5  -1   6    0.85    2.56
  -5  -1  -6    6.02    4.90
  -5  -1  -6   -0.37    2.25
  -5  -1  -6    2.13    3.51
  -5  -1  -6    2.33    4.68
   5  -1   7   22.54    3.81
  -5  -1  -7   16.58    5.28
  -5  -1  -7   21.87    4.53
  -5  -1  -7   19.85    4.94
  -5  -1  -7   26.10    5.46
  -5  -1  -8   12.45    2.61
   5   0  -8    5.51    1.93
   5   0  -8    4.97    2.35
   5   0  -8    4.71    1.61
   5   0  -7   41.97    5.45
   5   0  -7   47.27    5.44
   5   0  -7   44.55    6.28
   5   0  -6   24.32    4.83
   5   0  -6   27.80    4.01
   5   0  -6   33.24    5.18
   5   0  -6   28.77    5.76
   5   0  -6   34.65    4.58
   5   0  -5   53.30    7.03
   5   0  -5   37.10    5.53
   5   0  -5   47.43    7.03
   5   0  -5   51.68    6.74
   5   0  -5   32.95    6.45
   5   0  -5   44.67    6.02
   5   0  -5   38.64    5.58
   5   0  -4    5.24    2.44
   5   0  -4    0.55    2.66
   5   0  -4    3.92    3.19
   5   0  -4    3.93    3.68
   5   0  -4    3.81    3.00
   5   0  -4    1.11    3.05
   5   0  -4    4.36    2.72
   5   0  -4    4.16    3.01
   5   0  -4    1.83    2.66
   5   0  -4    5.84    5.43
   5   0  -3  269.15   19.09
   5   0  -3  246.56   20.01
   5   0  -3  257.96   20.12
   5   0  -3  240.63   19.83
   5   0  -3  275.51   20.09
   5   0  -3  275.35   19.70
   5   0  -3  256.42   19.70
   5   0  -3  244.59   21.99
   5   0  -2  110.04   10.59
   5   0  -2  114.46   11.61
   5   0  -2  101.17   11.14
   5   0  -2  105.21   11.15
   5   0  -2  129.41   11.66
   5   0  -2  132.30   11.30
   5   0  -2  107.08   11.15
   5   0  -2  116.83   12.91
   5   0  -1  132.36   12.22
   5   0  -1  102.03   11.19
   5   0  -1  103.73   10.83
   5   0  -1  124.19   11.05
  -5   0   0  359.50   38.60
   5   0   0  324.50   24.63
   5   0   0  371.61   26.38
   5   0   0  394.87   25.62
   5   0   0  349.33   25.73
   5   0   0  336.13   24.56
   5   0   0  384.88   28.20
   5   0   1   84.55    8.76
  -5   0  -1   57.71   14.71
   5   0   1   92.96    9.40
   5   0   1   70.53    9.12
   5   0   1   75.61    8.01
   5   0   1   98.02   11.32
   5   0   2   74.92    8.22
  -5   0  -2   93.94   19.16
   5   0   2   63.84    7.83
   5   0   2   74.41    8.56
   5   0   2   66.85    8.36
   5   0   2   93.96   10.92
  -5   0  -3   13.30    7.75
   5   0   3    7.57    3.24
   5   0   3   10.12    2.93
   5   0   3    6.01    3.83
   5   0   3   15.16    5.46
   5   0   4   36.24    6.25
   5   0   4   23.34    4.12
   5   0   4   30.39    6.41
  -5   0  -5  240.76   23.60
   5   0   5  284.94   21.30
   5   0   5  284.34   20.98
  -5   0  -6   59.19    9.99
  -5   0  -6   47.44    9.10
  -5   0  -6   71.69    8.41
   5   0   6   65.52    7.45
  -5   0  -6   63.30   10.09
   5   0   6   84.14    8.33
  -5   0  -7  190.67   17.80
  -5   0  -7  246.58   16.61
  -5   0  -7  193.04   17.38
   5   0   7  229.59   15.93
  -5   0  -7  202.21   18.23
  -5   0  -8   32.26    4.29
  -5   0  -8   32.08    3.77
   5   1  -8   55.02    5.14
   5   1  -8   61.39    5.37
   5   1  -7    9.89    2.88
   5   1  -7    7.49    3.00
   5   1  -7    6.53    2.54
   5   1  -7    6.84    2.10
   5   1  -6   12.54    3.43
   5   1  -6   10.94    3.89
   5   1  -6   13.79    3.28
   5   1  -6   12.30    2.98
   5   1  -5   26.29    5.23
   5   1  -5   24.43    4.27
   5   1  -5   17.40    4.99
   5   1  -5   21.97    4.55
   5   1  -5   25.28    4.47
   5   1  -4   34.55    4.77
   5   1  -4   32.34    5.72
   5   1  -4   35.67    5.44
   5   1  -4   22.79    5.34
   5   1  -4   34.93    5.67
   5   1  -4   35.21    5.35
   5   1  -3  499.99   32.70
   5   1  -3  509.79   34.30
   5   1  -3  488.92   33.77
   5   1  -3  509.89   33.17
   5   1  -3  522.39   33.57
   5   1  -3  463.74   32.86
   5   1  -2  117.47   11.05
   5   1  -2  119.16   11.78
   5   1  -2  111.61   11.32
   5   1  -2  132.74   12.29
   5   1  -2  117.56   11.43
   5   1  -2  112.35   11.09
   5   1  -1   48.00    7.29
   5   1  -1   54.59    7.52
   5   1  -1   52.71    7.35
   5   1  -1   48.09    6.68
   5   1  -1   68.43    9.04
   5   1   0   22.26    4.82
   5   1   0   28.04    5.09
   5   1   0   21.72    4.48
   5   1   0   29.83    5.34
   5   1   0   26.63   11.04
  -5   1  -1   54.02   13.56
   5   1   1   53.19    7.11
   5   1   1   55.89    7.16
   5   1   1   50.74    7.29
   5   1   1   50.02    6.22
   5   1   1   58.46    8.98
   5   1   1   71.37   16.84
  -5   1  -2   11.89    7.87
   5   1   2    9.86    3.66
   5   1   2   13.49    4.30
   5   1   2   16.04    4.40
   5   1   2   16.28    5.89
   5   1   2   19.02    7.43
   5   1   3   14.13    3.70
   5   1   3   17.41    4.41
   5   1   3    6.02    5.16
   5   1   4   28.55    5.64
   5   1   4   26.02    4.19
   5   1   4   16.12    5.63
  -5   1  -5  239.80   18.35
   5   1   5  207.59   18.62
   5   1   5  242.20   18.35
  -5   1  -6    2.38    5.30
   5   1   6    2.16    2.81
  -5   1  -6    1.30    2.87
   5   1   6    1.36    2.64
  -5   1  -6    1.54    5.08
  -5   1  -7   24.50    5.63
   5   1   7   25.39    4.07
  -5   1  -7   22.88    5.00
  -5   1  -7   26.05    3.91
  -5   1  -8    4.06    1.92
   5   2  -8    2.61    1.21
   5   2  -8    1.50    1.26
   5   2  -7   19.85    3.30
   5   2  -7   22.15    3.71
   5   2  -7   21.73    3.16
   5   2  -6    5.69    2.59
   5   2  -6    8.16    3.15
   5   2  -6    3.80    2.42
   5   2  -6    4.57    2.08
   5   2  -5    3.21    2.77
   5   2  -5    0.70    1.88
   5   2  -5    3.01    3.17
   5   2  -5    2.04    3.27
   5   2  -5    3.24    2.60
   5   2  -5    1.63    2.42
   5   2  -5    3.18    2.66
   5   2  -4  113.66    9.66
   5   2  -4  111.65   10.93
   5   2  -4  105.98   10.33
   5   2  -4  113.15   10.31
   5   2  -4  125.32   11.73
   5   2  -4  100.84    9.56
   5   2  -4  112.89   10.67
   5   2  -3   36.85    5.30
   5   2  -3   26.07    5.18
   5   2  -3   30.21    5.53
   5   2  -3   36.35    6.31
   5   2  -3   31.89    5.62
   5   2  -3   27.87    5.36
   5   2  -3   32.04    5.13
   5   2  -3   40.67    6.02
   5   2  -2  212.09   17.64
   5   2  -2  232.30   18.49
   5   2  -2  218.89   18.48
   5   2  -2  239.65   19.11
   5   2  -2  233.38   18.20
   5   2  -2  235.51   18.13
   5   2  -2  251.36   19.77
   5   2  -2  276.28   33.85
   5   2  -1  145.34   13.04
   5   2  -1  131.57   12.94
   5   2  -1  120.11   12.08
   5   2  -1  128.65   11.78
   5   2  -1  137.43   13.64
   5   2  -1  150.70   25.64
   5   2   0  176.61   15.28
   5   2   0  188.29   16.72
   5   2   0  227.50   18.49
   5   2   0  182.24   15.27
   5   2   0  189.13   15.14
   5   2   0  170.74   14.66
   5   2   0  175.04   17.00
   5   2   0  204.63   29.74
   5   2   1  105.19   11.15
   5   2   1  117.06   13.15
   5   2   1  133.54   11.54
   5   2   1  128.40   11.86
   5   2   1  122.29   10.52
   5   2   1  109.22   21.39
   5   2   2   56.38    7.45
   5   2   2   69.52    7.98
   5   2   2   68.10    8.03
   5   2   2   64.69    9.89
   5   2   2   82.16   16.37
   5   2   3    3.86    3.13
   5   2   3    2.43    2.77
   5   2   3   -0.77    4.13
   5   2   4  449.16   29.20
   5   2   4  460.68   30.73
   5   2   4  445.99   33.00
   5   2   5   25.77    4.90
   5   2   5   24.05    5.96
   5   2   6  139.66   11.67
  -5   2  -6  117.82   14.09
   5   2   6  140.30   12.55
  -5   2  -6  153.70   14.95
  -5   2  -7    4.36    3.59
  -5   2  -7   10.38    4.33
  -5   2  -7   11.81    3.38
   5   2   7   15.16    3.08
   5   3  -7   22.18    2.98
   5   3  -7   26.73    3.65
   5   3  -7   23.84    3.36
   5   3  -6   10.04    2.59
   5   3  -6    9.69    3.03
   5   3  -6    7.27    2.51
   5   3  -6   10.68    2.65
   5   3  -5   36.11    4.98
   5   3  -5   24.62    3.92
   5   3  -5   33.04    5.31
   5   3  -5   32.11    5.00
   5   3  -5   31.72    5.03
   5   3  -4   61.84    6.47
   5   3  -4   64.90    7.42
   5   3  -4   52.94    6.87
   5   3  -4   63.59    7.43
   5   3  -4   70.75    8.12
   5   3  -4   62.20    7.76
   5   3  -4   56.70    7.41
   5   3  -3   80.73    8.44
   5   3  -3   91.61    9.17
   5   3  -3   73.27    8.97
   5   3  -3   93.26    9.79
   5   3  -3   90.24    9.47
   5   3  -3   76.27    9.12
   5   3  -3   74.01    7.92
   5   3  -3   90.33    9.63
   5   3  -2  212.36   17.16
   5   3  -2  229.76   17.76
   5   3  -2  209.51   18.12
   5   3  -2  214.50   17.53
   5   3  -2  211.77   17.16
   5   3  -2  250.95   18.82
   5   3  -2  230.23   18.30
   5   3  -2  245.55   32.70
   5   3  -1  140.57   13.69
   5   3  -1  176.12   15.84
   5   3  -1  148.66   12.95
   5   3  -1  125.03   12.02
   5   3  -1  123.42   13.25
   5   3   0  178.95   16.53
   5   3   0  154.95   13.49
   5   3   0  140.57   12.48
   5   3   0  152.08   14.94
   5   3   0  160.09   26.34
   5   3   1   13.40    5.08
   5   3   1   17.76    5.35
   5   3   1   15.78    4.20
   5   3   1   16.08    3.49
   5   3   1   19.50    4.14
   5   3   1   19.19    5.92
   5   3   1   16.30    9.00
   5   3   2    9.90    3.55
   5   3   2   11.67    4.56
   5   3   2    4.61    3.08
   5   3   2   10.67    3.32
   5   3   2   15.20    6.84
   5   3   3    5.01    2.87
   5   3   3    3.60    3.30
   5   3   3    2.95    2.32
   5   3   3    2.99    4.27
   5   3   4   61.31    6.60
   5   3   4   79.82    7.86
   5   3   4   68.21   10.01
   5   3   5   93.45    8.79
   5   3   5   96.53   10.79
  -5   3  -6   60.84    6.46
   5   3   6   61.37    6.19
   5   3   6   58.41    7.40
  -5   3  -6   54.47    8.30
   5   3   7   35.72    4.52
   5   4  -6   42.99    5.17
   5   4  -6   50.94    5.54
   5   4  -6   53.58    5.10
   5   4  -6   45.43    5.28
   5   4  -5   22.55    3.24
   5   4  -5   14.16    3.45
   5   4  -5   22.63    4.05
   5   4  -5   20.46    3.72
   5   4  -5   16.30    3.86
   5   4  -4   14.57    2.98
   5   4  -4   19.05    3.47
   5   4  -4   15.74    3.39
   5   4  -4   16.71    4.07
   5   4  -4   18.07    3.91
   5   4  -4   25.09    4.54
   5   4  -4   17.76    4.43
   5   4  -3   29.71    4.88
   5   4  -3   24.87    4.36
   5   4  -3   24.25    5.25
   5   4  -3   31.24    5.32
   5   4  -3   36.57    5.89
   5   4  -2  110.15   11.91
   5   4  -2  113.69   11.19
   5   4  -1  175.71   15.52
   5   4  -1  163.83   13.82
   5   4  -1  148.87   14.15
   5   4   0   33.75    7.08
   5   4   0   28.86    4.98
   5   4   0   27.06    4.63
   5   4   0   24.81    5.78
   5   4   0   35.99   11.08
   5   4   1   36.07    6.82
   5   4   1   38.61    7.39
   5   4   1   47.32    5.87
   5   4   1   28.15    4.48
   5   4   1   30.65    6.61
   5   4   1   51.05   13.02
   5   4   2    1.35    3.39
   5   4   2    0.73    1.83
   5   4   2    0.69    1.97
   5   4   2   -2.83    4.11
   5   4   3   80.04    8.33
   5   4   3   87.60    9.80
   5   4   3   81.25    7.72
   5   4   4   96.71    8.31
   5   4   4   95.45    8.42
   5   4   4   98.48   11.36
   5   4   5   43.35    6.89
   5   4   6    9.37    3.57
  -5   4  -7   12.73    3.06
   5   4   7   15.33    2.68
   5   5  -6   23.02    3.25
   5   5  -6   23.57    2.92
   5   5  -6   23.53    3.29
   5   5  -5    6.34    2.27
   5   5  -5   10.40    2.69
   5   5  -5    9.43    2.55
   5   5  -5    7.11    2.92
   5   5  -4   31.41    4.26
   5   5  -4   45.53    5.85
   5   5  -4   41.01    5.24
   5   5  -4   35.62    5.07
   5   5  -3    1.41    2.15
   5   5  -3   -0.51    2.81
   5   5  -3    2.01    2.12
   5   5  -2   28.56    5.81
   5   5  -2   25.75    5.56
   5   5  -2   26.20    4.59
   5   5  -1   75.19    7.66
   5   5  -1   63.53    7.65
   5   5   0    5.58    4.21
   5   5   0   10.47    4.35
   5   5   0    6.24    2.64
   5   5   0    5.26    3.39
   5   5   1   83.26    9.79
   5   5   1   80.79   10.18
   5   5   1   73.86    7.03
   5   5   1   71.65    9.09
   5   5   2   58.01    8.04
   5   5   2   45.49    7.39
   5   5   3   27.63    4.42
   5   5   3   29.13    5.41
   5   5   3   28.76    5.77
  -5   5  -4    7.91    3.54
   5   5   4    7.42    2.24
   5   5   4    9.67    3.07
  -5   5  -5   26.53    4.78
   5   5   5   39.42    5.95
  -5   5  -6   15.06    3.29
   5   5   6   27.84    4.36
   5   6  -5   -0.21    1.28
   5   6  -5    1.34    1.30
   5   6  -5    0.81    1.40
   5   6  -4    1.01    2.17
   5   6  -4    2.48    1.64
   5   6  -4    2.24    2.12
   5   6  -3  104.53    8.84
   5   6  -3  111.82   10.32
   5   6  -3  110.05    8.90
   5   6  -2   76.17    8.52
   5   6  -2   68.01    6.60
   5   6  -1   22.70    5.27
   5   6  -1   16.93    5.01
   5   6   0   37.60    6.15
   5   6   0   32.17    4.34
   5   6   1   69.61    8.35
   5   6   1   76.21    9.31
   5   6   1   60.11    7.45
   5   6   2    2.13    3.26
   5   6   2    2.67    2.93
   5   6   3   29.64    4.17
   5   6   3   39.22    5.68
   5   6   3   25.22    4.87
   5   6   4    8.18    2.50
   5   6   4    7.01    3.03
   5   6   5   12.99    3.39
   5   7  -4   11.69    2.50
   5   7  -4   14.64    2.35
   5   7  -3   57.16    5.33
   5   7  -3   76.01    6.17
   5   7  -2   44.72    5.75
   5   7  -1    0.79    2.43
   5   7  -1    1.64    2.42
   5   7  -1    1.18    1.58
   5   7   0   45.11    5.88
   5   7   0   37.35    3.98
   5   7   1   18.43    4.28
   5   7   2   10.26    3.06
   5   7   3   19.61    2.84
   5   7   3   28.76    4.15
   5   7   3   23.67    3.60
   5   7   4    2.74    1.62
   5   8  -2    7.39    1.62
   5   8  -2   20.38    2.71
   5   8  -1    8.30    1.92
   5   8  -1   18.24    2.79
   5   8   0   89.40    7.89
   5   8   1   26.59    3.44
   5   8   1   42.39    4.47
   5   8   2    8.85    2.06
   6  -6  -2    1.98    1.92
  -6  -6   1    6.01    2.05
  -6  -6   0   17.82    2.66
  -6  -6  -1   28.78    3.82
   6  -5  -3   12.20    3.13
   6  -5  -2   57.16    6.57
   6  -5  -1  180.67   14.16
  -6  -5   0   15.51    3.26
   6  -5   0   18.91    4.43
  -6  -5  -1   35.05    4.27
   6  -5   1   45.24    6.01
  -6  -5  -2    1.76    1.77
   6  -5   2    2.53    2.72
   6  -4  -3    5.44    3.14
   6  -4  -2   26.04    4.93
   6  -4  -1    3.62    3.42
   6  -4   0  178.33   14.96
   6  -4   1   75.57    8.65
  -6  -4  -2   17.55    3.37
  -6  -4  -3   59.64    5.61
  -6  -4  -4    4.48    1.94
  -6  -4  -5    8.33    1.96
   6  -3  -3    6.52    3.30
   6  -3  -2  114.26   11.21
   6  -3  -2  145.84   11.39
   6  -3  -1   78.69    9.03
   6  -3  -1   89.29    8.55
   6  -3   0   25.24    5.28
   6  -3   0   21.83    4.15
   6  -3   1   11.26    3.05
  -6  -3  -2   16.39    3.30
   6  -3   2   17.76    3.24
  -6  -3  -2   25.44    5.18
  -6  -3  -3    6.27    3.82
  -6  -3  -4    3.53    2.22
  -6  -3  -5    8.60    2.42
   6  -2  -5   19.50    2.97
   6  -2  -4   56.06    5.85
   6  -2  -3   18.18    3.70
   6  -2  -3   15.89    3.13
   6  -2  -2   48.55    5.86
   6  -2  -2   51.15    6.39
   6  -2  -2   56.41    6.20
   6  -2  -2   48.83    6.35
   6  -2  -1   81.12    8.24
   6  -2  -1   66.54    8.19
   6  -2  -1   93.72    8.93
   6  -2   0   89.52    8.47
   6  -2   0   86.87    8.42
   6  -2   0   75.77    8.92
   6  -2   0   87.65    9.03
   6  -2   1    5.74    2.96
   6  -2   1    3.03    2.10
   6  -2   1    4.96    2.81
  -6  -2  -1   -1.66    3.81
   6  -2   2   25.16    4.26
   6  -2   2   19.52    3.80
   6  -2   2   26.62    4.23
  -6  -2  -2   26.51    5.89
  -6  -2  -3    1.46    3.08
   6  -2   3   -0.57    1.73
   6  -2   3    3.28    2.25
  -6  -2  -3   -1.20    4.08
  -6  -2  -4    1.40    2.69
  -6  -2  -4    6.88    2.41
   6  -2   4    8.58    2.22
  -6  -2  -4    4.85    3.57
  -6  -2  -5    3.81    2.46
   6  -1  -6   21.14    2.75
   6  -1  -5   12.59    2.74
   6  -1  -4   45.98    5.79
   6  -1  -4   51.92    5.88
   6  -1  -4   50.98    5.36
   6  -1  -3   23.67    3.77
   6  -1  -3   22.35    4.43
   6  -1  -3   25.63    4.10
   6  -1  -3   21.29    4.24
   6  -1  -2   22.80    4.19
   6  -1  -2   25.50    4.80
   6  -1  -2   23.43    4.20
   6  -1  -1    4.81    3.08
   6  -1  -1    3.45    2.85
   6  -1  -1    2.37    3.00
   6  -1   0  168.87   13.62
   6  -1   0  172.39   13.85
   6  -1   0  172.58   14.50
   6  -1   1  337.22   22.66
   6  -1   1  345.73   22.63
   6  -1   1  326.07   23.46
  -6  -1  -1  287.47   24.64
   6  -1   2  115.10   10.23
   6  -1   2  126.61    9.94
   6  -1   2  143.61   11.33
   6  -1   2  107.74   10.76
  -6  -1  -2  120.82   13.25
  -6  -1  -3   -0.57    3.19
   6  -1   3    2.23    2.04
   6  -1   3    1.44    2.02
   6  -1   3    1.86    2.32
  -6  -1  -3    7.51    4.86
  -6  -1  -4    5.97    3.92
  -6  -1  -4    8.54    3.18
   6  -1   4    5.17    2.13
   6  -1   4    4.21    2.28
  -6  -1  -4   11.17    4.49
  -6  -1  -5   31.83    4.16
   6   0  -6    2.46    1.57
   6   0  -5    2.07    2.05
   6   0  -5    0.22    1.33
   6   0  -4    8.04    2.93
   6   0  -4    8.51    2.61
   6   0  -4    8.80    2.58
   6   0  -3   14.89    3.26
   6   0  -3   15.46    4.11
   6   0  -3   16.96    3.61
   6   0  -3   20.32    3.90
   6   0  -2   24.71    4.23
   6   0  -2   19.60    4.21
   6   0  -2   17.58    4.21
   6   0  -2   23.36    4.52
   6   0  -1   -0.46    2.71
   6   0   0   27.88    4.98
   6   0   0   35.50    5.35
   6   0   0   44.09    5.94
   6   0   0   35.61    5.77
   6   0   1   15.00    3.96
   6   0   1   17.27    3.79
   6   0   1   12.96    3.60
  -6   0  -2    4.15    3.74
   6   0   2    2.09    2.37
   6   0   2    2.63    1.96
   6   0   2    7.38    2.99
   6   0   2    2.33    3.51
  -6   0  -3    3.72    3.61
  -6   0  -3   -0.54    3.54
   6   0   3    1.70    1.92
   6   0   3    4.61    2.47
   6   0   3    4.55    3.47
  -6   0  -3   -1.46    5.01
  -6   0  -4    1.17    3.76
  -6   0  -4    3.10    3.21
  -6   0  -4   -0.28    2.14
   6   0   4    3.71    2.07
  -6   0  -4    3.94    4.33
   6   0   5  217.35   13.75
   6   0   5  166.03   12.40
  -6   0  -5  197.12   16.31
  -6   0  -6    5.88    2.08
   6   1  -6   17.54    2.56
   6   1  -6   10.09    1.74
   6   1  -5   12.56    2.71
   6   1  -5    8.79    1.99
   6   1  -5    9.63    2.37
   6   1  -4   52.15    6.01
   6   1  -4   45.69    5.53
   6   1  -4   59.00    5.99
   6   1  -3   22.88    3.72
   6   1  -3   28.64    4.74
   6   1  -3   25.46    4.41
   6   1  -3   27.24    4.21
   6   1  -3   23.65    3.94
   6   1  -2   24.48    4.22
   6   1  -2   31.10    4.90
   6   1  -2   24.27    4.54
   6   1  -2   24.82    4.27
   6   1  -2   17.99    4.00
   6   1  -1    1.40    2.61
   6   1  -1    1.31    2.59
   6   1  -1    1.09    1.95
   6   1  -1    6.46    3.00
   6   1   0  186.09   14.10
   6   1   0  166.44   14.24
   6   1   0  165.42   13.92
   6   1   1  325.34   23.09
   6   1   1  329.75   23.41
   6   1   1  349.69   23.85
   6   1   1  360.77   25.90
   6   1   2  123.24   10.56
   6   1   2  114.72   10.42
   6   1   2  142.17   11.36
   6   1   2  151.51   13.46
  -6   1  -3    5.18    3.75
   6   1   3    3.02    2.10
   6   1   3    5.09    2.50
   6   1   3    3.15    3.52
  -6   1  -4    6.50    3.93
   6   1   4    9.56    2.69
   6   1   4    8.01    3.31
  -6   1  -4    9.19    4.86
   6   1   5   26.38    3.96
   6   2  -6   29.59    3.00
   6   2  -5   19.92    3.14
   6   2  -5   20.28    3.11
   6   2  -4   50.36    5.52
   6   2  -4   52.85    5.44
   6   2  -3   15.89    3.04
   6   2  -3   14.95    3.29
   6   2  -3   16.92    3.56
   6   2  -3   16.10    3.42
   6   2  -3   12.38    2.76
   6   2  -2   53.65    5.96
   6   2  -2   49.15    6.02
   6   2  -2   42.49    5.62
   6   2  -2   45.25    5.85
   6   2  -1   79.54    8.52
   6   2  -1   79.93    8.12
   6   2  -1   72.45    7.31
   6   2  -1   64.63    7.64
   6   2   0   89.69    8.55
   6   2   0   81.57    8.93
   6   2   0   83.34    8.66
   6   2   0   75.95    7.49
   6   2   0  103.13   10.65
   6   2   1    2.58    2.50
   6   2   1    5.40    2.62
   6   2   1    0.40    2.29
   6   2   2   18.19    3.75
   6   2   2   21.91    3.86
   6   2   2   27.23    4.12
   6   2   2   17.76    5.33
   6   2   3    2.54    1.79
   6   2   3    2.15    1.58
   6   2   3    3.12    2.17
   6   2   3   -3.07    3.69
  -6   2  -4   11.58    4.11
   6   2   4    7.22    2.32
   6   2   4    6.67    3.20
   6   2   5    2.84    2.17
   6   3  -5   45.84    4.40
   6   3  -4    4.03    1.82
   6   3  -4    7.56    2.30
   6   3  -4    5.90    2.17
   6   3  -3    8.13    2.27
   6   3  -3    2.87    2.16
   6   3  -3    6.26    2.55
   6   3  -3    6.33    2.43
   6   3  -2  149.27   11.13
   6   3  -2  143.40   11.39
   6   3  -2  145.23   11.08
   6   3  -2  115.64   10.29
   6   3  -1   92.37    8.19
   6   3  -1   75.68    7.28
   6   3  -1   69.40    7.54
   6   3   0   19.95    3.82
   6   3   0   22.88    4.11
   6   3   0   17.22    3.16
   6   3   0   23.19    5.02
   6   3   1    9.56    2.94
   6   3   1    9.09    3.04
   6   3   1   17.39    4.60
   6   3   2   21.27    3.70
   6   3   3   15.74    2.78
   6   3   3   10.19    2.32
   6   3   3   12.55    4.36
   6   3   4    0.76    2.66
   6   3   5    6.35    2.24
   6   4  -5   23.33    2.54
   6   4  -5   21.77    2.57
   6   4  -4    7.29    1.93
   6   4  -4    6.75    1.99
   6   4  -3    4.91    1.71
   6   4  -3    5.07    2.06
   6   4  -3    6.26    2.21
   6   4  -3    9.24    2.24
   6   4  -2   36.41    4.32
   6   4  -2   28.43    4.39
   6   4  -2   30.42    4.18
   6   4  -2   28.72    4.00
   6   4  -1    2.04    1.88
   6   4  -1    2.28    1.76
   6   4  -1    3.06    1.84
   6   4   0  178.06   13.48
   6   4   0  197.48   13.25
   6   4   0  170.15   12.31
   6   4   1   75.63    7.00
   6   4   1   63.94    7.67
   6   4   2   19.17    3.25
   6   4   2   28.76    4.75
   6   4   3   58.74    4.88
   6   4   3   47.08    4.78
   6   4   4    7.83    2.66
   6   5  -4   18.31    2.24
   6   5  -3    9.87    1.74
   6   5  -3   11.96    2.06
   6   5  -3   16.36    2.25
   6   5  -3   18.07    2.50
   6   5  -2   73.30    5.86
   6   5  -2   59.13    5.86
   6   5  -2   59.41    5.27
   6   5  -2   59.53    5.44
   6   5  -1  163.58   10.94
   6   5  -1  159.73   11.09
   6   5   0   18.38    3.24
   6   5   1   43.06    4.70
   6   5   1   43.43    4.96
   6   5   2    1.13    1.33
   6   5   2   -1.11    2.03
   6   5   3   17.84    3.31
   6   6  -1    7.76    1.83
   6   6  -1   11.45    2.08
   6   6   0   22.70    2.84
   6   6   1   80.18    6.18
   7  -1  -1   15.12    2.47
   7  -1   0    5.06    1.78
   7  -1   1   41.75    4.05
   7   0  -2   -0.17    1.04
   7   0  -1    5.16    1.58
   7   0   0    1.02    1.37
   7   0   0    2.63    1.24
   7   0   0    0.81    1.42
   7   0   1    3.20    1.53
   7   0   2  121.77    8.46
   7   1  -2   23.94    2.69
   7   1  -2   30.50    3.21
   7   1  -1   16.63    2.44
   7   1  -1   17.41    2.56
   7   1   0    3.90    1.54
   7   1   0    3.94    1.50
   7   1   1   48.95    4.07
   7   1   1   35.95    4.07
   7   1   2   24.09    2.80
   7   2  -1    7.49    1.56
   7   2  -1    4.41    1.44
   7   2   0    6.14    1.48
   7   2   0    5.02    1.37
   7   2   0    6.15    1.60
   7   2   1   11.69    1.79
   0   0   0    0.00    0.00


TITL FASAC13 in P2(1)
REM P2(1) (#4 in standard setting)
CELL 1.54184   5.680289   9.279777   9.309164  90.0000  90.7387  90.0000
ZERR    2.00   0.000156   0.000303   0.000303   0.0000   0.0028   0.0000
LATT -1
SYMM -x, y+1/2,-z
SFAC C H N O
UNIT 22.00 28.00 2.00 2.00
TREF
HKLF 4
END
_computing_structure_solution     'SHELXT 2018/2 (Sheldrick, 2018)'
;
_shelx_hkl_checksum              82585
_olex2_submission_original_sample_id fasac13
_olex2_submission_special_instructions 'No special instructions were received'
_oxdiff_exptl_absorpt_empirical_details
;
Empirical correction (ABSPACK) includes:
- Absorption correction using spherical harmonics
- Frame scaling
;
_oxdiff_exptl_absorpt_empirical_full_max 2.041
_oxdiff_exptl_absorpt_empirical_full_min 0.541
loop_
_space_group_symop_operation_xyz
'x, y, z'
'-x, y+1/2, -z'
loop_
_atom_site_label
_atom_site_type_symbol
_atom_site_fract_x
_atom_site_fract_y
_atom_site_fract_z
_atom_site_U_iso_or_equiv
_atom_site_adp_type
_atom_site_occupancy
_atom_site_site_symmetry_order
_atom_site_calc_flag
_atom_site_refinement_flags_posn
O1 O 0.9341(5) 0.7499(3) 0.5903(3) 0.0457(6) Uani 1 1 d .
N1 N 0.8047(4) 0.5839(3) 0.4242(2) 0.0258(5) Uani 1 1 d .
C1 C 0.5836(4) 0.4501(3) 0.6715(3) 0.0247(5) Uani 1 1 d .
H1 H 0.735187 0.400837 0.662054 0.030 Uiso 1 1 calc R
C2 C 0.5794(5) 0.6072(3) 0.6260(3) 0.0303(6) Uani 1 1 d .
H2 H 0.481740 0.676503 0.677738 0.036 Uiso 1 1 calc R
C3 C 0.4658(4) 0.4943(4) 0.5333(3) 0.0322(7) Uani 1 1 d .
H3 H 0.293672 0.490696 0.525425 0.039 Uiso 1 1 calc R
C4 C 0.6112(5) 0.4846(4) 0.3982(3) 0.0344(7) Uani 1 1 d .
H4A H 0.668884 0.387288 0.383911 0.041 Uiso 1 1 calc R
H4B H 0.519402 0.513319 0.314416 0.041 Uiso 1 1 calc R
C5 C 0.7924(5) 0.6577(3) 0.5486(3) 0.0295(6) Uani 1 1 d .
C6 C 0.4383(4) 0.4047(3) 0.7953(3) 0.0241(6) Uani 1 1 d .
C7 C 0.5154(4) 0.2924(3) 0.8837(3) 0.0276(6) Uani 1 1 d .
H7 H 0.655329 0.245130 0.863302 0.033 Uiso 1 1 calc R
C8 C 0.3855(5) 0.2506(3) 1.0020(3) 0.0319(6) Uani 1 1 d .
H8 H 0.439380 0.175311 1.059543 0.038 Uiso 1 1 calc R
C9 C 0.1771(5) 0.3192(3) 1.0353(3) 0.0300(6) Uani 1 1 d .
H9 H 0.091777 0.291364 1.115306 0.036 Uiso 1 1 calc R
C10 C 0.0973(5) 0.4305(3) 0.9472(3) 0.0297(6) Uani 1 1 d .
H10 H -0.042556 0.477562 0.968561 0.036 Uiso 1 1 calc R
C11 C 0.2241(4) 0.4720(3) 0.8281(3) 0.0279(6) Uani 1 1 d .
H11 H 0.166773 0.545210 0.769142 0.033 Uiso 1 1 calc R
C12 C 0.9886(4) 0.6034(3) 0.3199(3) 0.0292(6) Uani 1 1 d .
H12A H 1.056021 0.511572 0.296729 0.044 Uiso 1 1 calc GR
H12B H 1.108495 0.665294 0.359208 0.044 Uiso 1 1 calc GR
H12C H 0.923161 0.646285 0.234409 0.044 Uiso 1 1 calc GR
loop_
_atom_site_aniso_label
_atom_site_aniso_U_11
_atom_site_aniso_U_22
_atom_site_aniso_U_33
_atom_site_aniso_U_23
_atom_site_aniso_U_13
_atom_site_aniso_U_12
O1 0.0680(15) 0.0305(11) 0.0390(12) -0.0066(10) 0.0101(10) -0.0212(11)
N1 0.0284(11) 0.0222(11) 0.0268(11) -0.0007(9) 0.0004(8) -0.0005(9)
C1 0.0217(11) 0.0221(12) 0.0301(12) -0.0005(10) -0.0013(9) 0.0009(10)
C2 0.0366(14) 0.0227(14) 0.0316(14) 0.0031(12) 0.0046(11) 0.0062(11)
C3 0.0222(12) 0.0443(17) 0.0301(14) 0.0011(13) -0.0005(10) -0.0025(12)
C4 0.0283(12) 0.0475(18) 0.0275(13) -0.0024(13) -0.0021(10) -0.0110(12)
C5 0.0402(14) 0.0201(13) 0.0283(13) 0.0012(11) 0.0014(11) -0.0007(12)
C6 0.0242(11) 0.0214(12) 0.0265(13) -0.0023(11) -0.0045(10) -0.0019(10)
C7 0.0260(11) 0.0248(13) 0.0321(14) 0.0005(11) -0.0012(10) 0.0012(11)
C8 0.0366(14) 0.0267(14) 0.0322(14) 0.0043(12) -0.0034(11) 0.0011(12)
C9 0.0322(13) 0.0318(15) 0.0261(13) 0.0006(12) 0.0033(10) -0.0044(11)
C10 0.0264(12) 0.0278(15) 0.0349(14) -0.0050(12) 0.0011(10) -0.0006(11)
C11 0.0244(11) 0.0273(14) 0.0319(13) -0.0008(12) -0.0023(9) 0.0005(10)
C12 0.0280(12) 0.0290(15) 0.0305(13) 0.0031(12) 0.0006(10) 0.0026(11)
loop_
_atom_type_symbol
_atom_type_description
_atom_type_scat_dispersion_real
_atom_type_scat_dispersion_imag
_atom_type_scat_source
C C 0.0181 0.0091 'International Tables Vol C Tables 4.2.6.8 and 6.1.1.4'
H H 0.0000 0.0000 'International Tables Vol C Tables 4.2.6.8 and 6.1.1.4'
N N 0.0311 0.0180 'International Tables Vol C Tables 4.2.6.8 and 6.1.1.4'
O O 0.0492 0.0322 'International Tables Vol C Tables 4.2.6.8 and 6.1.1.4'
loop_
_geom_angle_atom_site_label_1
_geom_angle_atom_site_label_2
_geom_angle_atom_site_label_3
_geom_angle
C5 N1 C4 114.7(2)
C5 N1 C12 124.0(2)
C12 N1 C4 121.2(2)
C2 C1 H1 115.7
C3 C1 H1 115.7
C3 C1 C2 59.5(2)
C6 C1 H1 115.7
C6 C1 C2 118.8(2)
C6 C1 C3 119.7(2)
C1 C2 H2 120.0
C3 C2 C1 59.60(19)
C3 C2 H2 120.0
C5 C2 C1 115.2(2)
C5 C2 H2 120.0
C5 C2 C3 106.7(2)
C1 C3 H3 119.3
C1 C3 C4 117.0(2)
C2 C3 C1 60.87(18)
C2 C3 H3 119.3
C2 C3 C4 106.5(2)
C4 C3 H3 119.3
N1 C4 C3 104.1(2)
N1 C4 H4A 110.9
N1 C4 H4B 110.9
C3 C4 H4A 110.9
C3 C4 H4B 110.9
H4A C4 H4B 109.0
O1 C5 N1 125.5(3)
O1 C5 C2 126.6(3)
N1 C5 C2 107.9(2)
C7 C6 C1 119.7(2)
C7 C6 C11 118.0(2)
C11 C6 C1 122.2(2)
C6 C7 H7 119.6
C8 C7 C6 120.7(3)
C8 C7 H7 119.6
C7 C8 H8 119.5
C9 C8 C7 121.0(3)
C9 C8 H8 119.5
C8 C9 H9 120.6
C8 C9 C10 118.9(3)
C10 C9 H9 120.6
C9 C10 H10 119.7
C11 C10 C9 120.6(3)
C11 C10 H10 119.7
C6 C11 H11 119.6
C10 C11 C6 120.8(3)
C10 C11 H11 119.6
N1 C12 H12A 109.5
N1 C12 H12B 109.5
N1 C12 H12C 109.5
H12A C12 H12B 109.5
H12A C12 H12C 109.5
H12B C12 H12C 109.5
loop_
_geom_bond_atom_site_label_1
_geom_bond_atom_site_label_2
_geom_bond_distance
O1 C5 1.234(4)
N1 C4 1.453(4)
N1 C5 1.347(4)
N1 C12 1.447(3)
C1 H1 0.9800
C1 C2 1.518(4)
C1 C3 1.499(4)
C1 C6 1.488(4)
C2 H2 0.9800
C2 C3 1.498(4)
C2 C5 1.491(4)
C3 H3 0.9800
C3 C4 1.517(4)
C4 H4A 0.9700
C4 H4B 0.9700
C6 C7 1.395(4)
C6 C11 1.404(4)
C7 H7 0.9300
C7 C8 1.388(4)
C8 H8 0.9300
C8 C9 1.383(4)
C9 H9 0.9300
C9 C10 1.392(4)
C10 H10 0.9300
C10 C11 1.384(4)
C11 H11 0.9300
C12 H12A 0.9600
C12 H12B 0.9600
C12 H12C 0.9600
loop_
_geom_torsion_atom_site_label_1
_geom_torsion_atom_site_label_2
_geom_torsion_atom_site_label_3
_geom_torsion_atom_site_label_4
_geom_torsion
C1 C2 C3 C4 -112.1(3)
C1 C2 C5 O1 -115.8(3)
C1 C2 C5 N1 63.8(3)
C1 C3 C4 N1 -61.8(4)
C1 C6 C7 C8 178.4(3)
C1 C6 C11 C10 -177.6(3)
C2 C1 C3 C4 94.6(3)
C2 C1 C6 C7 -148.2(3)
C2 C1 C6 C11 31.3(4)
C2 C3 C4 N1 3.4(3)
C3 C1 C2 C5 -95.3(3)
C3 C1 C6 C7 142.5(3)
C3 C1 C6 C11 -38.1(4)
C3 C2 C5 O1 -179.5(3)
C3 C2 C5 N1 0.1(3)
C4 N1 C5 O1 -178.1(3)
C4 N1 C5 C2 2.3(3)
C5 N1 C4 C3 -3.7(3)
C5 C2 C3 C1 109.9(2)
C5 C2 C3 C4 -2.2(3)
C6 C1 C2 C3 -109.5(2)
C6 C1 C2 C5 155.2(2)
C6 C1 C3 C2 107.9(3)
C6 C1 C3 C4 -157.4(3)
C6 C7 C8 C9 -0.2(4)
C7 C6 C11 C10 1.8(4)
C7 C8 C9 C10 0.7(4)
C8 C9 C10 C11 0.0(4)
C9 C10 C11 C6 -1.3(4)
C11 C6 C7 C8 -1.1(4)
C12 N1 C4 C3 178.6(2)
C12 N1 C5 O1 -0.4(4)
C12 N1 C5 C2 -180.0(2)
