#------------------------------------------------------------------------------
#$Date: 2020-08-04 05:10:40 +0300 (Tue, 04 Aug 2020) $
#$Revision: 254764 $
#$URL: file:///home/coder/svn-repositories/cod/cif/4/51/78/4517840.cif $
#------------------------------------------------------------------------------
#
# This file is available in the Crystallography Open Database (COD),
# http://www.crystallography.net/
#
# All data on this site have been placed in the public domain by the
# contributors.
#
data_4517840
loop_
_publ_author_name
'Pisarek, Joanna'
'Malinska, Maura'
_publ_section_title
;
 Structure and Morphology of Indole Analogue Crystals.
;
_journal_issue                   28
_journal_name_full               'ACS omega'
_journal_page_first              17141
_journal_page_last               17151
_journal_paper_doi               10.1021/acsomega.0c01020
_journal_volume                  5
_journal_year                    2020
_chemical_absolute_configuration unk
_chemical_formula_moiety         'C8 H7 N'
_chemical_formula_sum            'C8 H7 N'
_chemical_formula_weight         117.15
_chemical_name_systematic        Indole
_space_group_crystal_system      orthorhombic
_space_group_IT_number           33
_space_group_name_Hall           'P 2c -2n'
_space_group_name_H-M_alt        'P n a 21'
_atom_sites_solution_hydrogens   geom
_atom_sites_solution_primary     direct
_audit_creation_date             2018-11-20
_audit_creation_method
;
Olex2 1.2
(compiled May 29 2018 13:30:08 for OlexSys, GUI svn.r5506)
;
_cell_angle_alpha                90
_cell_angle_beta                 90
_cell_angle_gamma                90
_cell_formula_units_Z            4
_cell_length_a                   7.6102(10)
_cell_length_b                   5.5255(6)
_cell_length_c                   14.639(2)
_cell_measurement_reflns_used    2607
_cell_measurement_temperature    100.01(10)
_cell_measurement_theta_max      30.4410
_cell_measurement_theta_min      3.9260
_cell_volume                     615.57(13)
_computing_cell_refinement       'CrysAlisPro 1.171.38.46 (Rigaku OD, 2015)'
_computing_data_collection       'CrysAlisPro 1.171.38.46 (Rigaku OD, 2015)'
_computing_data_reduction        'CrysAlisPro 1.171.38.46 (Rigaku OD, 2015)'
_computing_molecular_graphics    'Olex2 (Dolomanov et al., 2009)'
_computing_publication_material  'Olex2 (Dolomanov et al., 2009)'
_computing_structure_refinement  'ShelXL (Sheldrick, 2015)'
_computing_structure_solution    'XS (Sheldrick, 2008)'
_diffrn_ambient_environment      N~2~
_diffrn_ambient_temperature      100.01(10)
_diffrn_detector                 'CCD plate'
_diffrn_detector_area_resol_mean 8.0013
_diffrn_detector_type            Eos
_diffrn_measured_fraction_theta_full 1.000
_diffrn_measured_fraction_theta_max 1.000
_diffrn_measurement_details
;
List of Runs (angles in degrees, time in seconds):

  # Type    Start    End  Width  t~exp~   \w     \q     \k     \f   Frames
--------------------------------------------------------------------------
  1  \w     21.00  99.00   1.00   60.00    --   22.56-160.00  90.00   78
  2  \w    -43.00  46.00   1.00   60.00    --  -22.87  57.00  90.00   89
  3  \w    -96.00  50.00   1.00   60.00    --  -22.87   0.00 -90.00  146
  4  \w      1.00  91.00   1.00   60.00    --   22.56  57.00 150.00   90
  5  \w     49.00  94.00   1.00   60.00    --   22.56 160.00  30.00   45
  6  \w      1.00  91.00   1.00   60.00    --   22.56  57.00-120.00   90
  7  \w     -7.00  18.00   1.00   60.00    --   22.56  77.00 -30.00   25
  8  \w    -99.00 -36.00   1.00   60.00    --  -22.87 160.00 120.00   63
;
_diffrn_measurement_device       'four-circle diffractometer'
_diffrn_measurement_device_type  'SuperNova, Single source at offset, Eos'
_diffrn_measurement_method       '\w scans'
_diffrn_orient_matrix_type
'CrysAlisPro convention (1999,Acta A55,543-557)'
_diffrn_orient_matrix_UB_11      -0.0727187000
_diffrn_orient_matrix_UB_12      -0.0425089000
_diffrn_orient_matrix_UB_13      0.0258045000
_diffrn_orient_matrix_UB_21      -0.0252007000
_diffrn_orient_matrix_UB_22      -0.0756998000
_diffrn_orient_matrix_UB_23      -0.0368477000
_diffrn_orient_matrix_UB_31      0.0527028000
_diffrn_orient_matrix_UB_32      -0.0944817000
_diffrn_orient_matrix_UB_33      0.0179503000
_diffrn_radiation_monochromator  mirror
_diffrn_radiation_probe          x-ray
_diffrn_radiation_type           MoK\a
_diffrn_radiation_wavelength     0.71073
_diffrn_reflns_av_R_equivalents  0.0752
_diffrn_reflns_av_unetI/netI     0.0411
_diffrn_reflns_Laue_measured_fraction_full 1.000
_diffrn_reflns_Laue_measured_fraction_max 1.000
_diffrn_reflns_limit_h_max       9
_diffrn_reflns_limit_h_min       -9
_diffrn_reflns_limit_k_max       6
_diffrn_reflns_limit_k_min       -6
_diffrn_reflns_limit_l_max       18
_diffrn_reflns_limit_l_min       -18
_diffrn_reflns_number            6123
_diffrn_reflns_point_group_measured_fraction_full 1.000
_diffrn_reflns_point_group_measured_fraction_max 0.999
_diffrn_reflns_theta_full        25.242
_diffrn_reflns_theta_max         26.367
_diffrn_reflns_theta_min         2.783
_diffrn_source                   'micro-focus sealed X-ray tube'
_diffrn_source_type              'SuperNova (Mo) X-ray Source'
_exptl_absorpt_coefficient_mu    0.075
_exptl_absorpt_correction_T_max  1.00000
_exptl_absorpt_correction_T_min  0.44861
_exptl_absorpt_correction_type   multi-scan
_exptl_absorpt_process_details
;
CrysAlisPro 1.171.38.46 (Rigaku Oxford Diffraction, 2015)
Empirical absorption correction using spherical harmonics,
 implemented in SCALE3 ABSPACK scaling algorithm.
;
_exptl_crystal_colour            colourless
_exptl_crystal_colour_primary    colourless
_exptl_crystal_density_diffrn    1.264
_exptl_crystal_description       plate
_exptl_crystal_F_000             248
_exptl_crystal_size_max          0.5
_exptl_crystal_size_mid          0.3
_exptl_crystal_size_min          0.05
_refine_diff_density_max         0.371
_refine_diff_density_min         -0.167
_refine_diff_density_rms         0.048
_refine_ls_abs_structure_details
;
 Flack x determined using 427 quotients [(I+)-(I-)]/[(I+)+(I-)]
 (Parsons, Flack and Wagner, Acta Cryst. B69 (2013) 249-259).
;
_refine_ls_abs_structure_Flack   -10.0(10)
_refine_ls_extinction_method     none
_refine_ls_goodness_of_fit_ref   1.107
_refine_ls_hydrogen_treatment    constr
_refine_ls_matrix_type           full
_refine_ls_number_parameters     98
_refine_ls_number_reflns         1257
_refine_ls_number_restraints     19
_refine_ls_restrained_S_all      1.108
_refine_ls_R_factor_all          0.0561
_refine_ls_R_factor_gt           0.0494
_refine_ls_shift/su_max          0.000
_refine_ls_shift/su_mean         0.000
_refine_ls_structure_factor_coef Fsqd
_refine_ls_weighting_details
'w=1/[\s^2^(Fo^2^)+(0.0622P)^2^+0.0479P] where P=(Fo^2^+2Fc^2^)/3'
_refine_ls_weighting_scheme      calc
_refine_ls_wR_factor_gt          0.1208
_refine_ls_wR_factor_ref         0.1272
_reflns_Friedel_coverage         0.922
_reflns_Friedel_fraction_full    1.000
_reflns_Friedel_fraction_max     0.998
_reflns_number_gt                1074
_reflns_number_total             1257
_reflns_threshold_expression     'I > 2\s(I)'
_iucr_refine_instructions_details
;
TITL 2017_11_29_JP_indole_heksan in Pna21 #33
    2017_11_29_jp_indole_heksan.res
    created by SHELXL-2018/3 at 12:55:12 on 20-Nov-2018
REM reset to Pna21 #33
CELL 0.71073 7.610185 5.525486 14.639106 90 90 90
ZERR 4 0.000989 0.000649 0.002263 0 0 0
LATT -1
SYMM -X,-Y,0.5+Z
SYMM 0.5-X,0.5+Y,0.5+Z
SYMM 0.5+X,0.5-Y,+Z
SFAC C H N
UNIT 32 28 4
SIMU 0.04 0.08 1.7 C3A C5
ISOR 0.01 0.01 C9 C9A
EADP C7A N1
EADP C2A C6
EADP N1A C7
EADP C4 C4A
EADP C9A C9
EADP C8A C8
EADP C3A C5

L.S. 11
PLAN  2
SIZE 0.5 0.3 0.05
TEMP -173.15
BOND
fmap 2
acta
SHEL 100 0.8
REM <olex2.extras>
REM <HklSrc "%./2017_11_29_JP_indole_heksan.hkl">
REM </olex2.extras>

WGHT    0.062200    0.047900
FVAR       9.20583   0.49070
PART 1
C3    1    0.396476    0.395204    0.798663    21.00000    0.03361    0.04055 =
         0.03190    0.01613   -0.00831   -0.01228
AFIX  43
H3    2    0.453780    0.270934    0.832186    21.00000   -1.20000
AFIX   0
N1    3    0.249575    0.738005    0.766850    21.00000    0.01603    0.02265 =
         0.05844   -0.01057    0.00848    0.00814
AFIX  43
H1    2    0.193463    0.875780    0.774491    21.00000   -1.20000
AFIX  66
C9    1    0.383222    0.419431    0.704609    21.00000    0.01127    0.02163 =
         0.04846   -0.01751    0.01084   -0.00191
C8    1    0.293843    0.632535    0.684939    21.00000    0.01295    0.02096 =
         0.04245    0.00589    0.00301   -0.00238
C7    1    0.265520    0.699989    0.594659    21.00000    0.02508    0.02833 =
         0.05689    0.01691   -0.00608   -0.00397
AFIX  43
H7    2    0.204434    0.845636    0.581215    21.00000   -1.20000
AFIX  65
C6    1    0.326575    0.554340    0.524047    21.00000    0.03492    0.05143 =
         0.03243   -0.00323   -0.00734   -0.00974
AFIX  43
H6    2    0.307217    0.600442    0.462344    21.00000   -1.20000
AFIX  65
C5    1    0.415954    0.341235    0.543716    21.00000    0.02251    0.04257 =
         0.03572   -0.01655    0.00689   -0.00360
AFIX  43
H5    2    0.457683    0.241691    0.495455    21.00000   -1.20000
AFIX  65
C4    1    0.444279    0.273778    0.633996    21.00000    0.01340    0.02158 =
         0.05303    0.01049   -0.01041   -0.00130
AFIX  43
H4    2    0.505365    0.128131    0.647439    21.00000   -1.20000
AFIX   0
C2    1    0.307680    0.592232    0.832044    21.00000    0.01999    0.07495 =
         0.05058   -0.03219    0.00832   -0.00376
AFIX  43
H2    2    0.289705    0.621176    0.895326    21.00000   -1.20000
AFIX   0
PART 0
PART 2
C3A   1    0.387745    0.396498    0.560887   -21.00000    0.02251    0.04257 =
         0.03572   -0.01655    0.00689   -0.00360
AFIX  43
H3A   2    0.434098    0.267203    0.525546   -21.00000   -1.20000
AFIX   0
C2A   1    0.308246    0.593543    0.527396   -21.00000    0.03492    0.05143 =
         0.03243   -0.00323   -0.00734   -0.00974
AFIX  43
H2A   2    0.293687    0.628076    0.464276   -21.00000   -1.20000
AFIX   0
N1A   3    0.251119    0.737691    0.597062   -21.00000    0.02508    0.02833 =
         0.05689    0.01691   -0.00608   -0.00397
AFIX  43
H1A   2    0.192008    0.873952    0.592150   -21.00000   -1.20000
AFIX  66
C8A   1    0.304134    0.627923    0.675790   -21.00000    0.01295    0.02096 =
         0.04245    0.00589    0.00301   -0.00238
C9A   1    0.391748    0.411837    0.658792   -21.00000    0.01127    0.02163 =
         0.04846   -0.01751    0.01084   -0.00191
C4A   1    0.448910    0.269393    0.731193   -21.00000    0.01340    0.02158 =
         0.05303    0.01049   -0.01041   -0.00130
AFIX  43
H4A   2    0.508790    0.121708    0.719575   -21.00000   -1.20000
AFIX  65
C5A   1    0.418459    0.343035    0.820593   -21.00000    0.01787    0.03324 =
         0.03659    0.01532   -0.00124   -0.00239
AFIX  43
H5A   2    0.457527    0.245680    0.870076   -21.00000   -1.20000
AFIX  65
C6A   1    0.330845    0.559121    0.837593   -21.00000    0.02876    0.03837 =
         0.03872   -0.00535   -0.00315   -0.00854
AFIX  43
H6A   2    0.310033    0.609450    0.898695   -21.00000   -1.20000
AFIX  65
C7A   1    0.273681    0.701566    0.765193   -21.00000    0.01603    0.02265 =
         0.05844   -0.01057    0.00848    0.00814
AFIX  43
H7A   2    0.213801    0.849251    0.776811   -21.00000   -1.20000
AFIX   0
HKLF 4




REM  2017_11_29_JP_indole_heksan in Pna21 #33
REM wR2 = 0.1272, GooF = S = 1.107, Restrained GooF = 1.108 for all data
REM R1 = 0.0494 for 1074 Fo > 4sig(Fo) and 0.0561 for all 1257 data
REM 98 parameters refined using 19 restraints

END  
     
WGHT      0.0622      0.0479 

REM Highest difference peak  0.371,  deepest hole -0.167,  1-sigma level  0.048
Q1    1   0.4173  0.3771  0.6808  11.00000  0.05    0.37
Q2    1   0.4391  0.2142  0.6481  11.00000  0.05    0.18

  REM The information below was added by Olex2.
  REM
  REM R1 = 0.0494 for 1074 Fo > 4sig(Fo) and 0.0561 for all 8282 data
  REM n/a parameters refined using n/a restraints
  REM Highest difference peak 0.37, deepest hole -0.17
  REM Mean Shift 0, Max Shift 0.000.

  REM +++ Tabular Listing of Refinement Information +++
  REM R1_all = 0.0561
  REM R1_gt = 0.0494
  REM wR_ref = 0.1272
  REM GOOF = 1.107
  REM Shift_max = 0.000
  REM Shift_mean = 0
  REM Reflections_all = 8282
  REM Reflections_gt = 1074
  REM Parameters = n/a
  REM Hole = -0.17
  REM Peak = 0.37
  REM Flack = -16.4(10)

  
;
_cod_data_source_file            ao0c01020_si_001.cif
_cod_data_source_block           I
_cod_depositor_comments
'Adding full bibliography for 4517840--4517846.cif.'
_cod_original_cell_volume        615.57(14)
_cod_database_code               4517840
_shelx_shelxl_version_number     2018/3
_chemical_oxdiff_formula         C8H7N
_shelx_space_group_comment
;
The symmetry employed for this shelxl refinement is uniquely defined
by the following loop, which should always be used as a source of
symmetry information in preference to the above space-group names.
They are only intended as comments.
;
_shelx_estimated_absorpt_t_max   0.996
_shelx_estimated_absorpt_t_min   0.963
_reflns_odcompleteness_completeness 97.00
_reflns_odcompleteness_iscentric 1
_reflns_odcompleteness_theta     30.44
_olex2_refinement_description
;
1. Fixed Uiso
 At 1.2 times of:
  All C(H) groups, All N(H) groups
2. Uiso/Uaniso restraints and constraints
C3A \\sim C5: within 1.7A with sigma of 0.04 and sigma for terminal atoms of
0.08
Uanis(C9) \\sim Ueq, Uanis(C9A) \\sim Ueq: with sigma of 0.01 and sigma for
terminal atoms of 0.01
Uanis(C7A) = Uanis(N1)
Uanis(C2A) = Uanis(C6)
Uanis(N1A) = Uanis(C7)
Uanis(C4) = Uanis(C4A)
Uanis(C9A) = Uanis(C9)
Uanis(C8A) = Uanis(C8)
Uanis(C3A) = Uanis(C5)
3. Others
 Sof(C3A)=Sof(H3A)=Sof(C2A)=Sof(H2A)=Sof(N1A)=Sof(H1A)=Sof(C8A)=Sof(C9A)=
 Sof(C4A)=Sof(H4A)=Sof(C5A)=Sof(H5A)=Sof(C6A)=Sof(H6A)=Sof(C7A)=Sof(H7A)=1-
 FVAR(1)
 Sof(C3)=Sof(H3)=Sof(N1)=Sof(H1)=Sof(C9)=Sof(C8)=Sof(C7)=Sof(H7)=Sof(C6)=
 Sof(H6)=Sof(C5)=Sof(H5)=Sof(C4)=Sof(H4)=Sof(C2)=Sof(H2)=FVAR(1)
4.a Aromatic/amide H refined with riding coordinates:
 C3(H3), N1(H1), C7(H7), C6(H6), C5(H5), C4(H4), C2(H2), C3A(H3A), C2A(H2A),
 N1A(H1A), C4A(H4A), C5A(H5A), C6A(H6A), C7A(H7A)
4.b Fitted hexagon refined as free rotating group:
 C9(C8,C7,C6,C5,C4), C8A(C9A,C4A,C5A,C6A,C7A)
;
_olex2_date_sample_data_collection 2017-11-29
_olex2_submission_original_sample_id Indole
_olex2_submission_special_instructions 'No special instructions were received'
_oxdiff_exptl_absorpt_empirical_details
;
Empirical correction (ABSPACK) includes:
- Absorption correction using spherical harmonics
- Frame scaling
;
_oxdiff_exptl_absorpt_empirical_full_max 6.641
_oxdiff_exptl_absorpt_empirical_full_min 0.269
loop_
_space_group_symop_operation_xyz
'x, y, z'
'-x, -y, z+1/2'
'-x+1/2, y+1/2, z+1/2'
'x+1/2, -y+1/2, z'
loop_
_atom_site_label
_atom_site_type_symbol
_atom_site_fract_x
_atom_site_fract_y
_atom_site_fract_z
_atom_site_U_iso_or_equiv
_atom_site_adp_type
_atom_site_occupancy
_atom_site_site_symmetry_order
_atom_site_calc_flag
_atom_site_refinement_flags_posn
_atom_site_refinement_flags_adp
_atom_site_refinement_flags_occupancy
_atom_site_disorder_assembly
_atom_site_disorder_group
C3 C 0.396(2) 0.395(3) 0.7987(9) 0.035(3) Uani 0.491(7) 1 d . . P A 1
H3 H 0.453780 0.270934 0.832186 0.042 Uiso 0.491(7) 1 calc R . P A 1
N1 N 0.250(3) 0.738(3) 0.7668(8) 0.0324(15) Uani 0.491(7) 1 d . . P A 1
H1 H 0.193463 0.875780 0.774491 0.039 Uiso 0.491(7) 1 calc R . P A 1
C9 C 0.3832(11) 0.4194(12) 0.7046(3) 0.0271(9) Uani 0.491(7) 1 d . U P A 1
C8 C 0.294(2) 0.6325(19) 0.6849(5) 0.0255(6) Uani 0.491(7) 1 d G . P A 1
C7 C 0.266(3) 0.700(3) 0.5947(6) 0.0368(13) Uani 0.491(7) 1 d G . P A 1
H7 H 0.204434 0.845636 0.581215 0.044 Uiso 0.491(7) 1 calc R . P A 1
C6 C 0.327(3) 0.554(3) 0.5240(4) 0.0396(19) Uani 0.491(7) 1 d G . P A 1
H6 H 0.307217 0.600442 0.462344 0.048 Uiso 0.491(7) 1 calc R . P A 1
C5 C 0.4160(19) 0.341(2) 0.5437(4) 0.034(3) Uani 0.491(7) 1 d G U P A 1
H5 H 0.457683 0.241691 0.495455 0.040 Uiso 0.491(7) 1 calc R . P A 1
C4 C 0.4443(10) 0.2738(11) 0.6340(4) 0.0293(7) Uani 0.491(7) 1 d G . P A 1
H4 H 0.505365 0.128131 0.647439 0.035 Uiso 0.491(7) 1 calc R . P A 1
C2 C 0.308(3) 0.592(4) 0.8320(10) 0.049(5) Uani 0.491(7) 1 d . . P A 1
H2 H 0.289705 0.621176 0.895326 0.058 Uiso 0.491(7) 1 calc R . P A 1
C3A C 0.3877(19) 0.396(3) 0.5609(8) 0.034(3) Uani 0.509(7) 1 d . U P A 2
H3A H 0.434098 0.267203 0.525546 0.040 Uiso 0.509(7) 1 calc R . P A 2
C2A C 0.308(3) 0.594(3) 0.5274(8) 0.0396(19) Uani 0.509(7) 1 d . . P A 2
H2A H 0.293687 0.628076 0.464276 0.048 Uiso 0.509(7) 1 calc R . P A 2
N1A N 0.251(3) 0.738(3) 0.5971(9) 0.0368(13) Uani 0.509(7) 1 d . . P A 2
H1A H 0.192008 0.873952 0.592150 0.044 Uiso 0.509(7) 1 calc R . P A 2
C8A C 0.304(2) 0.6279(18) 0.6758(3) 0.0255(6) Uani 0.509(7) 1 d . . P A 2
C9A C 0.3917(10) 0.4118(12) 0.6588(3) 0.0271(9) Uani 0.509(7) 1 d G U P A 2
C4A C 0.4489(10) 0.2694(11) 0.7312(5) 0.0293(7) Uani 0.509(7) 1 d G . P A 2
H4A H 0.508790 0.121708 0.719575 0.035 Uiso 0.509(7) 1 calc R . P A 2
C5A C 0.4185(17) 0.3430(19) 0.8206(4) 0.029(3) Uani 0.509(7) 1 d G . P A 2
H5A H 0.457527 0.245680 0.870076 0.035 Uiso 0.509(7) 1 calc R . P A 2
C6A C 0.331(3) 0.559(3) 0.8376(3) 0.035(4) Uani 0.509(7) 1 d G . P A 2
H6A H 0.310033 0.609450 0.898695 0.042 Uiso 0.509(7) 1 calc R . P A 2
C7A C 0.274(3) 0.702(2) 0.7652(4) 0.0324(15) Uani 0.509(7) 1 d G . P A 2
H7A H 0.213801 0.849251 0.776811 0.039 Uiso 0.509(7) 1 calc R . P A 2
loop_
_atom_site_aniso_label
_atom_site_aniso_U_11
_atom_site_aniso_U_22
_atom_site_aniso_U_33
_atom_site_aniso_U_23
_atom_site_aniso_U_13
_atom_site_aniso_U_12
C3 0.034(7) 0.041(7) 0.032(6) 0.016(5) -0.008(4) -0.012(6)
N1 0.016(5) 0.023(4) 0.058(3) -0.011(2) 0.008(2) 0.008(3)
C9 0.0113(11) 0.0216(11) 0.048(3) -0.018(4) 0.011(4) -0.0019(8)
C8 0.0130(15) 0.0210(9) 0.0424(13) 0.006(2) 0.003(2) -0.0024(6)
C7 0.025(3) 0.028(4) 0.057(3) 0.017(2) -0.006(2) -0.004(3)
C6 0.035(4) 0.051(6) 0.032(2) -0.003(2) -0.007(2) -0.010(3)
C5 0.023(5) 0.043(7) 0.036(4) -0.017(4) 0.007(3) -0.004(5)
C4 0.0134(13) 0.0216(12) 0.0530(19) 0.010(3) -0.010(3) -0.0013(9)
C2 0.020(5) 0.075(11) 0.051(8) -0.032(7) 0.008(5) -0.004(6)
C3A 0.023(5) 0.043(7) 0.036(4) -0.017(4) 0.007(3) -0.004(5)
C2A 0.035(4) 0.051(6) 0.032(2) -0.003(2) -0.007(2) -0.010(3)
N1A 0.025(3) 0.028(4) 0.057(3) 0.017(2) -0.006(2) -0.004(3)
C8A 0.0130(15) 0.0210(9) 0.0424(13) 0.006(2) 0.003(2) -0.0024(6)
C9A 0.0113(11) 0.0216(11) 0.048(3) -0.018(4) 0.011(4) -0.0019(8)
C4A 0.0134(13) 0.0216(12) 0.0530(19) 0.010(3) -0.010(3) -0.0013(9)
C5A 0.018(4) 0.033(6) 0.037(6) 0.015(4) -0.001(4) -0.002(4)
C6A 0.029(8) 0.038(5) 0.039(6) -0.005(5) -0.003(5) -0.009(5)
C7A 0.016(5) 0.023(4) 0.058(3) -0.011(2) 0.008(2) 0.008(3)
loop_
_atom_type_symbol
_atom_type_description
_atom_type_scat_dispersion_real
_atom_type_scat_dispersion_imag
_atom_type_scat_source
C C 0.0033 0.0016 'International Tables Vol C Tables 4.2.6.8 and 6.1.1.4'
H H 0.0000 0.0000 'International Tables Vol C Tables 4.2.6.8 and 6.1.1.4'
N N 0.0061 0.0033 'International Tables Vol C Tables 4.2.6.8 and 6.1.1.4'
loop_
_geom_angle_atom_site_label_1
_geom_angle_atom_site_label_2
_geom_angle_atom_site_label_3
_geom_angle
_geom_angle_site_symmetry_1
_geom_angle_site_symmetry_3
_geom_angle_publ_flag
C2 C3 C9 104.0(11) . . ?
C2 N1 C8 106.8(9) . . ?
C3 C9 C8 108.8(8) . . ?
C3 C9 C4 131.1(8) . . ?
C8 C9 C4 120.0 . . ?
N1 C8 C9 107.4(7) . . ?
N1 C8 C7 132.6(7) . . ?
C7 C8 C9 120.0 . . ?
C8 C7 C6 120.0 . . ?
C5 C6 C7 120.0 . . ?
C4 C5 C6 120.0 . . ?
C5 C4 C9 120.0 . . ?
N1 C2 C3 113.0(11) . . ?
C2A C3A C9A 109.1(9) . . ?
C3A C2A N1A 110.2(9) . . ?
C8A N1A C2A 106.1(8) . . ?
N1A C8A C9A 111.9(8) . . ?
N1A C8A C7A 128.0(7) . . ?
C9A C8A C7A 120.0 . . ?
C8A C9A C3A 102.7(7) . . ?
C4A C9A C3A 137.2(7) . . ?
C4A C9A C8A 120.0 . . ?
C9A C4A C5A 120.0 . . ?
C6A C5A C4A 120.0 . . ?
C5A C6A C7A 120.0 . . ?
C6A C7A C8A 120.0 . . ?
loop_
_geom_bond_atom_site_label_1
_geom_bond_atom_site_label_2
_geom_bond_distance
_geom_bond_site_symmetry_2
_geom_bond_publ_flag
C3 C9 1.387(15) . ?
C3 C2 1.371(19) . ?
N1 C8 1.375(13) . ?
N1 C2 1.32(2) . ?
C9 C8 1.3900 . ?
C9 C4 1.3900 . ?
C8 C7 1.3900 . ?
C7 C6 1.3900 . ?
C6 C5 1.3900 . ?
C5 C4 1.3900 . ?
C3A C2A 1.339(16) . ?
C3A C9A 1.436(14) . ?
C2A N1A 1.365(17) . ?
N1A C8A 1.363(13) . ?
C8A C9A 1.3900 . ?
C8A C7A 1.3900 . ?
C9A C4A 1.3900 . ?
C4A C5A 1.3900 . ?
C5A C6A 1.3900 . ?
C6A C7A 1.3900 . ?
loop_
_refln_index_h
_refln_index_k
_refln_index_l
_refln_F_squared_meas
_refln_F_squared_sigma
_refln_scale_group_code
0 0 -20 217.378 118.408 3
0 0 -19 3.26437 37.7286 3
0 0 -18 164.297 87.5672 3
0 0 -17 -41.5837 39.7985 3
0 0 -16 1386.08 240.007 3
0 0 -15 2.85889 22.3519 3
0 0 -14 5114.12 432.362 3
0 0 -13 -24.8786 26.3791 3
0 0 -12 3930.03 340.518 3
0 0 -11 126.028 70.1508 3
0 0 -10 2033.81 213.63 3
0 0 -9 27.5609 32.1849 3
0 0 -8 16811 674.898 3
0 0 -7 40.7394 19.3979 1
0 0 -7 29.306 21.113 8
0 0 -7 16.5473 17.5057 3
0 0 -6 19481.6 595.555 8
0 0 -6 20746.6 690.92 3
0 0 -6 17982.6 551.273 1
0 0 -5 96.8809 35.2438 4
0 0 -5 62.7494 24.1388 8
0 0 -5 108.384 41.1443 3
0 0 -5 143.926 28.9754 1
0 0 -4 140757 3570.1 3
0 0 -4 128356 3460.78 1
0 0 -3 33.2488 15.4678 3
0 0 -3 -23.3389 15.8829 7
0 0 -3 3.0469 4.62482 1
0 0 -3 21.4809 14.98 4
0 0 -2 325093 6941.96 7
0 0 -2 334350 6935.28 4
0 0 2 275994 6936.28 6
0 0 2 291599 6978.56 7
0 0 2 290099 7008.51 3
0 0 3 23.9144 15.3811 7
0 0 3 18.3765 20.8767 3
0 0 3 18.4086 12.5306 1
0 0 3 84.647 21.5988 4
0 0 3 -8.2371 9.45893 6
0 0 4 124514 3406.98 1
0 0 4 141256 3570.17 3
0 0 4 129327 3479.88 7
0 0 4 134864 3409.98 6
0 0 5 144.199 33.1538 1
0 0 5 85.9147 23.5451 6
0 0 5 163.341 51.5931 4
0 0 6 22382.3 719.804 4
0 0 6 18731.1 595.302 1
0 0 7 34.1797 21.4356 1
0 0 7 37.5197 35.6713 4
0 0 8 18316.3 748.302 4
0 0 8 15676.5 544.31 1
0 0 9 50.8369 33.486 1
0 0 9 29.6095 36.2592 4
0 0 10 1763.84 147.876 1
0 0 10 1706.52 240.888 4
0 0 10 2384.6 991.102 5
0 0 11 49.3316 27.9259 1
0 0 11 -12.4125 67.9487 4
0 0 12 3360.36 241.835 1
0 0 12 3241.64 414.087 4
0 0 13 24.6001 24.451 1
0 0 13 39.6684 45.4605 4
0 0 14 3228.74 466.322 4
0 0 14 4348.43 313.233 1
0 0 15 -26.5599 76.9537 4
0 0 15 934.166 842.994 5
0 0 16 1190.08 971.026 5
0 0 16 680.131 248.099 4
0 1 -20 -92.0977 83.647 3
0 1 -19 229.635 108.952 3
0 -1 -19 369.692 155.896 3
0 -1 -18 46.5439 58.0749 3
0 1 -18 35.8284 57.3589 3
0 -1 -17 948.366 214.826 3
0 1 -17 1067.07 211.291 3
0 1 -16 46.7437 53.5934 3
0 -1 -16 76.4675 81.0191 3
0 1 -15 218.903 88.188 3
0 -1 -15 206.585 93.7779 3
0 -1 -14 33.543 29.3512 3
0 1 -14 180.337 115.256 3
0 1 -13 22342.9 949.487 3
0 -1 -13 19787.3 963.27 3
0 1 -12 189.239 103.835 3
0 -1 -12 0.43405 22.1934 3
0 -1 -11 30924.4 1197.49 3
0 1 -11 32708.5 1181.59 3
0 -1 -10 44.026 58.8067 3
0 1 -10 16.5094 48.2998 3
0 -1 -10 24.8629 21.201 8
0 -1 -9 2101.73 218.485 3
0 1 -9 2214.06 216.981 3
0 -1 -9 1552.91 115.836 8
0 -1 -8 4.45361 10.9337 8
0 1 -8 34.2356 27.8486 3
0 -1 -8 16.1548 19.6443 3
0 1 -7 15945.7 634.404 3
0 -1 -7 15142.3 587.142 3
0 -1 -7 11470.5 381.683 8
0 -1 -6 -2.45815 12.751 3
0 1 -6 27.5186 79.651 3
0 -1 -5 11392 469.66 3
0 1 -5 11645.6 530.931 3
0 1 -4 -15.6174 44.1874 4
0 -1 -4 30.5975 25.0533 3
0 -1 -4 -12.3549 14.3289 4
0 1 -4 -9.92862 24.131 3
0 1 -3 556.564 96.7928 2
0 1 -3 390.905 49.3884 1
0 1 -3 452.734 92.8924 3
0 -1 -3 381.315 62.5994 3
0 1 -2 74.7528 58.8076 3
0 1 -2 -5.26023 8.28806 1
0 1 -2 -2.72426 21.2311 2
0 -1 -2 -12.5027 10.1957 3
0 -1 -2 21.6992 31.6994 2
0 -1 -1 13002.7 368.621 1
0 1 -1 12751.1 388.801 1
0 1 -1 15023.5 584.871 2
0 -1 -1 13418.1 536.972 2
0 1 -1 12011.7 544.647 3
0 -1 0 44.8409 36.7377 2
0 -1 0 -5.7321 4.83342 7
0 -1 0 5.60516 6.3061 1
0 1 0 0.06086 28.2233 2
0 1 0 -2.93722 3.68191 1
0 -1 1 12908.5 578.528 3
0 -1 1 14012.1 550.752 2
0 1 1 12615 432.545 3
0 1 1 13188.5 370.455 1
0 -1 1 14646.3 409.306 7
0 1 1 13196.1 534.45 2
0 -1 1 12950.6 408.975 1
0 -1 2 -4.49207 16.0828 7
0 -1 2 -7.23356 15.4026 1
0 1 2 -4.79642 11.2298 3
0 -1 2 13.5284 20.3563 2
0 -1 2 37.6357 32.036 3
0 -1 3 395.309 51.9359 1
0 1 3 470.266 67.4614 4
0 1 3 437.051 60.53 3
0 -1 3 421.498 98.4437 3
0 1 3 339.401 41.9853 6
0 -1 3 335.099 240.681 5
0 -1 3 477.169 65.4194 7
0 -1 4 24.0203 22.9649 1
0 1 4 -6.32604 13.9753 4
0 1 4 19.3828 14.0609 7
0 -1 4 90.2027 72.3634 3
0 -1 5 10261.8 352.243 6
0 1 5 9453.59 381.21 7
0 1 5 12553.6 442.157 4
0 -1 5 11824.2 420.567 1
0 1 6 -14.6555 16.1396 4
0 -1 6 -18.4162 25.1829 1
0 1 7 16011.5 534.488 4
0 -1 7 12652.8 425.818 6
0 -1 7 14194.9 492.136 1
0 1 8 -3.02982 24.3795 4
0 -1 8 11.0562 11.0059 1
0 -1 8 -8.34391 21.0668 6
0 1 8 2.8545 8.46566 1
0 1 9 2368.81 200.772 4
0 -1 9 1925.88 173.245 1
0 1 9 1771.37 120.298 1
0 -1 9 1557.91 146.311 6
0 1 10 4.72916 19.2117 1
0 1 10 13.0072 24.8798 4
0 -1 10 -14.3876 24.3901 1
0 1 11 23752.6 849.648 1
0 -1 11 29597.7 993.182 1
0 1 12 63.094 44.7124 4
0 1 12 -14.2208 19.7938 1
0 -1 12 0.98217 22.2325 1
0 1 13 20854.6 930.704 4
0 -1 13 19990.5 819.954 1
0 -1 14 248.421 109.858 1
0 1 14 -0.42939 36.6006 4
0 -1 15 135.201 69.2249 1
0 1 15 36.029 36.075 4
0 1 16 61.2513 74.0013 4
0 1 16 3665.2 1549.48 5
0 1 17 1106.92 1099.57 5
0 1 18 463.044 975.397 5
0 1 19 1744.4 1474.63 5
0 -2 -19 163.211 113.665 3
0 -2 -18 633.02 206.524 3
0 2 -18 431.255 137.032 3
0 2 -17 -38.4782 40.9509 3
0 -2 -17 181.198 103.798 3
0 2 -16 373.514 125.607 3
0 -2 -16 256.318 113.996 3
0 2 -15 58.7396 69.6166 3
0 -2 -15 -5.90625 39.6745 3
0 -2 -14 182.575 93.7084 3
0 2 -14 67.1895 52.3548 3
0 -2 -13 62.4417 60.2697 3
0 2 -13 98.6306 73.2629 3
0 -2 -12 87.9306 45.5791 3
0 2 -12 151.013 74.2328 3
0 2 -11 2.6848 34.3602 3
0 -2 -11 -19.5912 24.1081 3
0 2 -10 2399.51 248.257 3
0 -2 -10 2191.29 259.896 3
0 -2 -9 -27.7841 19.2905 3
0 2 -9 -22.9536 35.6845 3
0 2 -8 11629.2 631.084 3
0 -2 -8 11812.2 605.092 3
0 -2 -7 54.3987 51.2038 3
0 2 -7 -11.0581 33.2362 3
0 -2 -6 68256.2 2067.91 3
0 2 -6 65550.2 2217.43 3
0 2 -5 85.9907 71.677 3
0 -2 -5 61.7832 73.0811 2
0 -2 -5 29.8586 42.0068 3
0 -2 -4 4300.63 377.165 2
0 -2 -4 4062.62 155.368 1
0 2 -4 3717.53 368.713 3
0 -2 -3 53.0124 218.768 2
0 2 -3 -39.4699 78.6323 3
0 -2 -3 13.0464 11.6593 1
0 2 -3 1.02362 5.54901 6
0 -2 -2 42826.7 1490.59 2
0 2 -2 38363.6 1488.2 3
0 -2 -2 42072.8 1101.16 1
0 2 -2 38356.6 1048.2 6
0 2 -1 -28.1515 26.0481 3
0 -2 -1 12.2741 21.4027 1
0 -2 -1 17.0551 43.9811 2
0 2 -1 -14.7176 10.0865 6
0 -2 0 73402.4 2250.62 2
0 -2 0 71429.5 1879.24 1
0 -2 0 73101.9 1820.23 7
0 2 1 18.1607 13.6984 1
0 -2 1 35.5746 65.1121 2
0 -2 2 40975.3 1293.04 1
0 -2 2 47030.4 1288.33 7
0 2 2 41720.9 1205.49 1
0 2 2 46143.9 1248 8
0 -2 2 44031.4 1672.23 3
0 -2 2 45879.3 1589.25 2
0 -2 3 9.32638 38.144 2
0 -2 3 23.6004 35.6594 1
0 2 3 5.68147 8.10538 8
0 -2 3 34.9656 28.1326 3
0 -2 4 4492.83 359.895 2
0 -2 4 3725.47 391.299 3
0 2 4 3193.73 142.896 8
0 -2 4 4099.66 240.455 1
0 2 4 3838.52 270.648 4
0 2 5 0.88915 14.6963 4
0 -2 5 13.5075 34.9899 1
0 2 6 76223.8 2112 4
0 -2 6 72125.2 2054.64 1
0 2 7 30.3029 30.0012 4
0 -2 7 6.27139 24.4927 1
0 -2 7 290.805 369.582 5
0 2 8 12618.1 571.602 4
0 -2 8 11769.6 545.525 1
0 -2 9 -44.5666 38.8749 1
0 2 9 15.6853 21.0576 4
0 2 10 2112.53 219.761 4
0 -2 10 2297.63 223.241 1
0 -2 11 -21.3378 39.9822 1
0 2 11 44.387 45.8185 4
0 -2 12 96.355 55.8369 1
0 2 12 107.525 58.3837 4
0 -2 13 16.3771 37.7522 1
0 2 13 111.441 71.2849 4
0 2 14 166.913 81.419 4
0 -2 14 145.579 66.7498 1
0 2 15 0.33325 30.9739 4
0 -2 15 -21.2798 47.9184 1
0 2 16 318.587 117.933 4
0 -2 16 303.909 104.631 1
0 -2 17 -25.0165 69.2112 1
0 2 18 2362.61 1473.16 5
0 -3 -17 934.305 326.047 2
0 -3 -16 81.7371 144.007 2
0 -3 -15 218.151 175.312 2
0 -3 -14 168.991 163.952 2
0 3 -14 19.0071 49.3101 3
0 3 -13 1734.47 227.074 3
0 -3 -13 1715.24 378.278 2
0 3 -12 52.401 59.6007 3
0 -3 -12 29.507 71.1156 2
0 3 -11 2820.2 302.944 3
0 -3 -11 2891.15 461.211 2
0 -3 -10 46.8546 61.0452 2
0 3 -10 -9.54938 35.1965 3
0 -3 -9 11698.5 861.32 2
0 3 -9 9742.91 625.013 3
0 -3 -8 -21.5237 60.3042 2
0 3 -8 60.9908 67.149 3
0 3 -7 7962.29 605.914 3
0 -3 -7 9167.92 716.185 2
0 3 -6 24.9011 46.2747 3
0 -3 -6 139.005 110.727 2
0 -3 -6 21.5796 14.9611 1
0 -3 -5 28738.4 661.748 1
0 -3 -5 27318.3 1235.65 2
0 3 -5 26311.7 1191.47 3
0 -3 -4 6.67553 16.2272 1
0 3 -4 30.5893 18.5418 6
0 -3 -4 93.9511 76.4194 2
0 3 -4 -31.5316 82.2571 3
0 3 -3 5580.62 557.967 3
0 -3 -3 5962 269.681 1
0 3 -3 4866.16 204.904 6
0 -3 -3 6206.45 548.233 2
0 -3 -2 -7.6775 13.5756 1
0 -3 -2 9.66515 39.612 2
0 3 -2 -26.2675 37.6691 3
0 -3 -1 4174.63 239.886 1
0 3 -1 3618.07 432.442 3
0 -3 -1 4274.82 438.134 2
0 -3 0 10.0514 17.4779 1
0 -3 0 -25.0792 80.643 2
0 3 0 48.1312 98.2272 3
0 -3 1 4293.79 261.965 1
0 -3 1 4032 417.464 2
0 -3 2 -64.6964 100.345 2
0 -3 2 9.40897 22.9799 1
0 -3 3 5977.81 339.386 1
0 -3 3 6101.98 508.674 2
0 -3 4 88.3068 54.2216 1
0 3 4 18.6212 19.463 8
0 -3 4 36.2416 68.5915 2
0 -3 5 27590.3 948.363 1
0 -3 5 31426.3 1244.03 2
0 3 5 27636.3 1043.41 4
0 3 6 5.36628 11.7031 8
0 3 6 -13.853 17.996 4
0 -3 6 -8.6102 16.1991 1
0 3 7 9918.51 556.501 4
0 -3 7 9230.02 505.144 1
0 3 8 31.7297 43.7147 4
0 -3 8 9.9773 42.7693 1
0 3 9 10772.1 594.031 4
0 -3 9 10490.2 575.515 1
0 -3 10 -22.9758 32.5793 1
0 3 10 -26.6862 47.1095 4
0 -3 11 2609.18 280.814 1
0 3 11 2707.4 284.363 4
0 -3 12 -5.16795 28.5889 1
0 3 12 8.66564 34.4087 4
0 -3 13 1367.6 214.295 1
0 3 13 1411.41 212.771 4
0 3 14 -1.90779 35.2525 4
0 -3 14 -0.73831 45.9195 1
0 3 15 22.2842 52.8955 4
0 -3 15 69.093 78.1984 1
0 -3 16 5.44732 50.5497 1
0 3 16 13.6564 47.5255 4
0 -3 17 509.324 158.895 1
0 -3 18 48.2422 57.813 1
0 -4 -16 616.176 283.39 2
0 -4 -15 228.213 185.264 2
0 -4 -14 709.334 288.57 2
0 -4 -13 117.431 150.272 2
0 -4 -12 342.778 196.246 2
0 -4 -11 101.181 105.927 2
0 -4 -10 1098.06 303.583 2
0 -4 -9 193.323 147.317 2
0 4 -9 14.3493 51.7568 3
0 -4 -8 25970.5 1505.63 2
0 4 -8 24054.8 1244.12 3
0 4 -7 -61.5626 49.5572 3
0 -4 -7 108.32 135.747 2
0 -4 -6 23667.1 1395.65 2
0 -4 -6 24121.9 785.058 1
0 4 -6 23059.8 1268.89 3
0 -4 -5 166.801 147.529 2
0 -4 -5 12.8885 19.5467 1
0 4 -5 183.339 120.017 3
0 -4 -4 358.403 135.04 2
0 -4 -4 355.969 68.73 1
0 4 -4 218.139 115.386 3
0 -4 -3 1.87491 21.1488 1
0 -4 -3 -16.3393 77.2093 2
0 4 -3 -18.989 76.9291 3
0 -4 -2 69.8848 92.8292 2
0 4 -2 -65.1029 62.7735 3
0 -4 -2 4.27086 15.0831 1
0 -4 -1 42.8306 77.7301 2
0 4 -1 103.933 120.098 3
0 -4 -1 37.7822 35.2057 1
0 -4 0 4839.93 531.119 2
0 -4 0 4839.39 312.527 1
0 4 0 3819.48 521.092 3
0 -4 1 6.88218 22.1289 1
0 4 1 101.339 130.618 3
0 -4 1 1.51177 73.7099 2
0 -4 2 -21.1291 34.5794 2
0 -4 2 46.7039 72.661 1
0 -4 3 -9.78159 38.369 1
0 -4 3 10.8276 54.7838 2
0 -4 4 327.923 80.7929 1
0 -4 4 379.617 140.369 2
0 -4 5 -6.26778 66.6552 2
0 4 5 -50.705 61.2947 4
0 -4 5 79.6825 55.4072 1
0 -4 6 26931.9 1293.26 2
0 -4 6 23481.1 984.771 1
0 4 6 24655.4 1112.31 4
0 4 7 -43.5221 57.5346 4
0 -4 7 74.513 80.0205 1
0 4 8 28738.9 1215.45 4
0 -4 8 26577.1 1115.08 1
0 4 9 24.9151 62.7671 4
0 -4 9 140.789 83.5154 1
0 -4 10 727.82 158.678 1
0 4 10 789.42 171.901 4
0 -4 11 12.0962 43.0816 1
0 4 11 -11.5538 36.2715 4
0 -4 12 208.389 90.9848 1
0 4 12 330.542 115.195 4
0 -4 13 23.914 38.5881 1
0 4 13 -11.3623 32.4262 4
0 -4 14 645.166 174.838 1
0 4 14 570.055 149.313 4
0 -4 15 1.04308 27.5508 1
0 4 15 4.32979 41.3824 4
0 -4 16 451.86 146.682 1
0 4 16 480.132 148.822 4
0 -4 17 76.6618 78.9422 1
0 -5 -14 -59.1664 91.5674 2
0 -5 -13 1300.64 391.894 2
0 -5 -12 19.4071 110.193 2
0 -5 -11 135.569 168.053 2
0 -5 -10 5.41847 50.9851 2
0 -5 -9 1165.32 339.407 2
0 -5 -8 40.0137 103.086 2
0 -5 -7 193.013 141.885 2
0 -5 -6 -18.4365 47.0624 2
0 -5 -5 7747.44 815.257 2
0 -5 -4 55.924 117.475 2
0 5 -4 4.60862 65.1693 3
0 -5 -4 6.44883 28.143 1
0 5 -3 15013.8 1171.69 3
0 -5 -3 16941.7 1197.11 2
0 -5 -3 17423.5 732.037 1
0 -5 -2 -39.2286 43.0391 2
0 5 -2 85.7901 81.8629 3
0 -5 -2 -4.33609 36.6592 1
0 -5 -1 90.6226 60.1709 1
0 5 -1 56.1655 78.022 3
0 -5 -1 188.483 128.285 2
0 -5 0 115.049 66.2756 1
0 5 0 -103.942 122.609 3
0 -5 0 -85.1172 111.011 2
0 -5 1 63.5413 77.9275 2
0 -5 1 219.57 75.56 1
0 5 1 117.507 127.899 3
0 -5 2 103.78 62.738 1
0 5 2 185.457 165.878 3
0 -5 2 -50.8263 79.8315 2
0 -5 3 17342.9 812.787 1
0 -5 3 16732.9 1100.26 2
0 5 3 14821.9 1215.45 3
0 -5 4 124.301 98.1108 2
0 -5 4 53.7217 49.4183 1
0 -5 5 7907.17 706.801 2
0 -5 5 7502.61 525.478 1
0 5 5 7893.43 634.792 4
0 -5 6 28.8507 53.7241 1
0 5 6 40.4921 68.4256 4
0 -5 6 21.3859 95.5146 2
0 -5 7 39.2846 44.471 1
0 5 7 9.40162 40.6893 4
0 -5 8 -2.92858 45.835 1
0 5 8 50.9197 75.3876 4
0 -5 9 1013.98 205.292 1
0 5 9 1403.85 255.145 4
0 -5 10 25.5603 56.6718 1
0 5 10 24.9396 35.8907 4
0 5 11 27.3934 48.0475 4
0 -5 11 23.0641 60.2924 1
0 5 12 10.3656 31.5004 4
0 -5 12 32.6563 48.1673 1
0 5 13 1359.19 260.158 4
0 -5 13 1257.93 254.131 1
0 -5 14 48.2542 32.9439 1
0 5 14 -51.6299 73.4805 4
0 5 15 37.1783 49.669 4
0 5 16 -86.0268 71.8055 4
0 -6 -11 -90.1074 165.485 2
0 -6 -10 782.535 319.407 2
0 -6 -9 -61.5811 139.845 2
0 -6 -8 1054.87 331.261 2
0 -6 -7 -64.0071 131.996 2
0 -6 -6 -58.2208 55.6458 2
0 -6 -5 83.1615 111.024 2
0 -6 -4 68.9397 81.9674 2
0 -6 -3 1.49674 48.9629 2
0 -6 -2 2459.88 488.089 2
0 -6 -2 3066.02 308.33 1
0 -6 -1 65.6151 68.5002 1
0 -6 -1 -40.3817 66.0166 2
0 -6 0 8553.57 891.215 2
0 -6 0 9516.06 598.068 1
0 6 1 -55.5605 66.5373 3
0 -6 1 121.446 107.75 2
0 -6 1 148.96 101.219 1
0 -6 2 2962.93 327.882 1
0 -6 2 2844.36 478.141 2
0 6 2 2412.9 532.301 3
0 -6 3 21.233 41.1585 1
0 6 3 4.00988 64.1663 3
0 -6 3 -19.794 66.8201 2
0 -6 4 346.792 175.402 2
0 6 4 68.3852 136.191 3
0 -6 4 139.574 71.0071 1
0 -6 5 -12.653 30.3333 1
0 6 5 75.3906 108.431 4
0 6 5 174.369 166.812 3
0 -6 5 -172.475 112.043 2
0 -6 6 107.078 122.639 2
0 6 6 142.674 104.823 4
0 -6 6 -2.36777 45.1464 1
0 6 7 45.5322 86.4231 4
0 -6 7 -52.1167 31.1241 1
0 6 8 1376.7 282.049 4
0 -6 8 874.498 200.499 1
0 -6 9 -24.1374 43.962 1
0 6 9 49.5843 49.4854 4
0 6 10 779.301 208.511 4
0 -6 10 773.48 193.099 1
0 -6 11 -36.3119 70.3809 1
0 6 11 40.6738 44.9942 4
0 6 12 124.407 93.9779 4
0 -7 -6 623.082 294.325 2
0 -7 -5 19.4992 150.74 2
0 -7 -4 169.849 148.278 2
0 -7 -3 46.728 41.7141 2
0 -7 -2 -52.692 42.424 2
0 -7 -1 371.416 213.933 2
0 -7 0 -70.6389 152.146 2
0 -7 0 79.9785 72.9761 1
0 -7 1 301.691 169.133 2
0 -7 1 245.596 103.05 1
0 -7 2 67.2737 99.7649 2
0 -7 2 35.3597 37.6526 1
0 -7 3 110.945 141.863 2
0 7 3 241.491 174.992 4
0 -7 3 28.5913 40.8409 1
0 -7 4 -68.2677 77.8377 1
0 7 4 46.3406 91.6872 4
0 -7 4 -68.8508 97.401 2
0 7 5 93.6645 93.5897 4
0 -7 5 136.761 132.193 2
0 -7 5 60.1833 48.4178 1
0 7 6 -3.00714 34.1716 4
0 -7 6 -5.47835 30.862 2
0 -7 6 -85.3664 80.5518 1
0 -7 7 -13.7495 34.2979 1
-1 0 -20 3.10731 58.8276 3
1 0 -20 2.53095 36.5899 3
1 0 -19 82.3023 67.892 3
-1 0 -19 34.0369 55.5564 3
-1 0 -18 71.2702 80.0422 3
1 0 -18 123.104 87.6132 3
-1 0 -17 118.766 95.9721 3
1 0 -17 48.0604 43.2636 3
-1 0 -16 -32.7822 52.808 3
1 0 -16 9.08351 44.1304 3
-1 0 -15 -34.7339 28.5821 3
1 0 -15 -13.0807 48.5493 3
-1 0 -14 -53.1788 37.1805 3
1 0 -14 9.13083 69.8255 3
-1 0 -13 3925.63 348.357 3
1 0 -13 235.184 126.133 3
1 0 -12 41.7781 48.9762 3
-1 0 -12 -20.1631 24.9355 3
1 0 -11 15.9798 44.3401 3
-1 0 -11 70.873 77.9765 3
-1 0 -10 -14.5379 29.402 7
-1 0 -10 -10.4247 27.7333 3
1 0 -10 22.1876 35.3629 3
1 0 -9 -24.2244 37.9371 3
-1 0 -9 9.71262 33.36 3
-1 0 -9 0.4887 19.8692 7
-1 0 -8 -8.46656 16.8501 7
-1 0 -8 36.8514 36.2247 3
-1 0 -8 -30.4319 24.0149 6
1 0 -8 5.81125 32.4243 3
-1 0 -7 -19.8059 22.9116 6
-1 0 -7 18.2262 24.6012 3
-1 0 -7 -7.87941 14.6708 4
-1 0 -7 29.0696 26.7682 7
1 0 -7 26.5663 32.4508 3
-1 0 -6 16.109 40.2412 7
-1 0 -6 13.5373 11.2017 1
1 0 -6 -2.38331 39.6137 3
-1 0 -6 -3.17698 32.6426 3
-1 0 -6 17.7645 22.6134 8
-1 0 -6 -4.97077 10.6774 4
-1 0 -6 11.5899 23.4454 6
-1 0 -5 -3.15067 5.74917 4
1 0 -5 9.86068 38.0477 3
-1 0 -5 25.1139 24.9586 3
-1 0 -5 17.0633 18.3646 6
-1 0 -5 11.8084 16.9309 8
-1 0 -5 -13.3483 11.0789 1
-1 0 -5 21.9193 33.2897 7
-1 0 -4 -24.8194 11.939 3
-1 0 -4 -21.8007 18.1103 6
-1 0 -4 4.60578 6.22677 4
-1 0 -4 15.2495 13.9114 1
1 0 -4 20.0246 39.5542 3
-1 0 -4 6.91932 19.8616 8
-1 0 -3 -9.56984 9.82577 1
1 0 -3 6.94931 36.0254 3
1 0 -3 0.53686 15.082 4
-1 0 -3 -23.9527 30.3355 6
-1 0 -3 12.1251 19.555 8
-1 0 -2 88.3886 48.7727 6
-1 0 -2 15.5239 18.2948 8
-1 0 -2 7.09937 19.4074 1
1 0 -2 63.772 61.1466 3
1 0 -2 -4.32504 12.3011 4
-1 0 -2 81.1136 119.312 5
1 0 -1 -0.17888 43.6423 3
-1 0 -1 -3.84474 20.5717 6
1 0 -1 4.435 7.87458 4
-1 0 0 -7.96123 18.8492 6
-1 0 0 30.6942 20.9793 4
-1 0 0 -30.4509 28.3458 3
1 0 0 -2.86855 6.90549 4
1 0 0 24.2963 24.7878 6
1 0 1 -34.4217 99.6104 5
-1 0 1 -13.6268 35.5352 3
1 0 1 28.6701 44.2524 3
1 0 1 -3.26771 18.0004 6
-1 0 1 -4.80605 12.6481 4
1 0 1 34.8889 25.0852 8
1 0 2 32.1721 25.1048 8
-1 0 2 -13.822 20.8022 4
-1 0 2 116.285 76.8226 3
1 0 2 -2.26135 15.467 6
-1 0 3 -41.2419 52.0154 3
-1 0 3 12.6117 22.5991 4
1 0 3 7.2212 29.5814 6
1 0 3 22.2994 16.9865 3
1 0 3 10.4006 10.2262 8
1 0 3 26.6299 24.7558 1
1 0 4 -11.7518 12.1829 3
1 0 4 -5.67553 14.1977 8
1 0 4 -1.87443 5.16353 4
1 0 4 33.1423 34.4719 6
1 0 4 -0.6653 14.423 1
-1 0 4 0.48975 22.3779 4
1 0 5 4.53293 7.65221 4
1 0 5 0.04519 11.2023 8
1 0 5 55.0328 31.4592 1
1 0 5 24.4561 29.549 6
-1 0 5 3.72348 12.2852 4
-1 0 6 8.44137 17.2356 1
1 0 6 63.5383 30.2512 4
1 0 6 13.9683 26.0503 8
1 0 6 -9.97364 18.4667 1
-1 0 6 3.95401 31.6637 4
-1 0 7 10.9121 34.0792 4
1 0 7 2.38312 11.3744 1
1 0 7 -9.81226 16.1285 4
-1 0 7 4.89125 10.4091 1
1 0 8 -23.3111 33.4157 4
1 0 8 19.6291 27.3839 1
-1 0 8 1.0183 13.1278 1
-1 0 8 -36.665 46.1683 4
1 0 9 -31.5127 16.52 4
-1 0 9 -26.259 22.9986 1
-1 0 9 -3.06315 21.1772 4
1 0 9 37.5708 36.5667 1
1 0 10 -37.1018 59.1028 4
-1 0 10 17.5854 45.0896 4
-1 0 10 10.5425 22.6687 1
1 0 10 11.8497 13.6229 1
-1 0 11 27.8094 28.9175 1
1 0 11 24.4971 57.9293 4
-1 0 11 -44.5821 77.7301 4
1 0 11 13.1281 33.4206 1
1 0 12 8.48263 49.1372 4
1 0 12 1.15067 27.5693 1
-1 0 12 35.1155 25.7261 1
-1 0 13 539.883 714.939 5
-1 0 13 56.1844 85.2953 4
1 0 13 -55.056 31.625 4
1 0 13 223.697 441.388 5
-1 0 13 -7.62191 23.1458 1
1 0 14 39.7323 39.8548 1
-1 0 14 76.9828 88.9855 4
-1 0 14 57.5453 36.9994 1
1 0 14 -1.96006 29.7365 4
-1 0 15 517.487 778.013 5
-1 0 15 70.5176 113.425 4
-1 0 16 113.6 98.4065 4
-1 0 16 938.237 820.944 5
-1 0 17 -65.2301 113.328 4
-1 0 17 1770.79 1195.81 5
1 1 -20 52.3893 64.5919 3
-1 1 -19 224.112 104.929 3
-1 -1 -19 238.589 121.937 3
1 1 -19 324.75 134.801 3
1 -1 -19 408.388 168.353 3
1 1 -18 -23.3922 51.3507 3
1 -1 -18 -69.8718 75.7574 3
-1 1 -18 56.2021 71.6031 3
1 1 -17 275.305 104.592 3
1 -1 -17 319.612 134.68 3
-1 1 -17 144.471 86.6417 3
-1 -1 -17 245.407 109.904 3
1 1 -16 154.857 96.7413 3
-1 1 -16 81.8568 50.4994 3
-1 -1 -16 46.8655 53.3185 3
1 -1 -16 122.57 78.5137 3
-1 1 -15 56.7042 50.8688 3
-1 -1 -15 23.1358 52.0821 3
1 1 -15 -0.63572 34.5003 3
1 -1 -15 -3.24661 31.3896 3
-1 -1 -14 239.039 111.897 3
-1 1 -14 151.433 73.9875 3
1 1 -14 335.135 124.529 3
1 -1 -14 278.03 118.279 3
1 1 -13 4322.95 402.699 3
-1 1 -13 3794.49 330.934 3
1 -1 -13 4519.93 404.941 3
-1 -1 -13 3908.84 377.87 3
-1 -1 -12 135.088 95.8833 3
-1 1 -12 85.822 50.2746 3
1 1 -11 166.348 76.5409 3
1 -1 -11 131.053 68.4296 3
-1 -1 -11 82.7471 41.3815 3
-1 1 -11 101.35 49.3865 3
-1 1 -10 964.428 131.991 3
-1 -1 -10 890.023 135.902 7
1 1 -10 1185.42 198.065 3
1 -1 -10 1097.75 167.358 3
-1 -1 -10 1023.23 164.087 3
1 -1 -10 565.27 69.7177 8
-1 1 -10 922.12 153.691 7
-1 -1 -10 676.932 68.9285 1
-1 -1 -10 695.546 101.592 8
-1 -1 -9 126.444 28.6633 1
-1 1 -9 149.68 48.5092 3
-1 -1 -9 179.922 55.1981 7
-1 -1 -9 172.365 48.9501 8
1 1 -9 239.52 96.5871 3
1 -1 -9 286.844 87.6802 3
-1 -1 -9 182.868 69.9756 3
-1 1 -9 214.876 63.3313 7
-1 1 -8 9022.89 329.108 6
-1 1 -8 10066.2 442.092 3
-1 -1 -8 8505.99 314.71 1
-1 1 -8 10776.9 500.753 7
-1 -1 -8 10283.2 519.891 3
-1 -1 -8 8801.17 389.381 8
1 -1 -8 11139.3 530.388 3
-1 -1 -8 10642.1 455.448 7
1 1 -8 10933.6 634.68 3
-1 -1 -7 47255.3 1374.36 7
-1 -1 -7 41112.8 1228.88 1
-1 -1 -7 43745.9 1334.55 6
-1 -1 -7 44243.9 1466.16 3
-1 1 -7 44760.9 1346.87 3
-1 1 -7 45190.4 1247.65 6
-1 1 -7 47245.2 1439.73 7
1 -1 -7 48653.6 1477.97 3
1 1 -7 44981.7 1687.97 3
-1 1 -6 15315 497.349 6
1 1 -6 16446.7 883.983 3
-1 1 -6 15888.4 681.278 4
-1 1 -6 15940.5 546.825 3
1 -1 -6 17382.2 655.959 3
-1 -1 -6 15268.5 643.029 3
-1 -1 -6 15296.6 479.317 1
-1 -1 -6 16513.6 558.96 6
-1 -1 -6 17059.1 574.991 7
-1 1 -6 16214.4 616.342 7
-1 1 -5 8120.7 316.742 3
1 1 -5 8457.47 598.569 3
-1 1 -5 8473.45 379.109 7
-1 1 -5 7591.49 320.904 6
-1 -1 -5 8424.87 307.934 1
1 -1 -5 9155.51 405.87 3
-1 1 -5 5392.9 421.975 4
-1 -1 -5 8793.13 342.332 6
1 -1 -4 12713.6 493.179 3
-1 1 -4 12230.6 485.336 6
1 1 -4 13161.2 761.733 3
-1 1 -4 12847.9 485.695 7
-1 1 -4 12216 399.345 3
-1 -1 -4 13538.8 449.086 6
-1 -1 -3 23960.7 875.212 2
1 -1 -3 23780.7 754.01 3
-1 1 -3 24658.1 830.801 6
1 -1 -3 21728.7 715.608 8
-1 1 -3 22417.4 650.06 3
-1 1 -3 27350.8 862.043 2
1 1 -3 25070.1 1113.57 3
-1 -1 -3 25871.7 738.273 6
1 -1 -2 5502.63 241.804 8
-1 1 -2 5748.83 250.689 1
-1 -1 -2 5815.3 335.531 2
-1 1 -2 6993.57 344.239 2
-1 -1 -2 6295.29 259.785 6
-1 1 -2 4265.28 904.671 5
1 1 -2 6058.75 474.063 3
1 1 -2 6196.33 376.731 2
1 1 -2 5743.68 290.757 6
1 -1 -2 5675.04 275.984 4
1 -1 -2 6091.1 252.222 3
-1 1 -2 6419.53 292.878 8
-1 1 -1 292425 6399.05 8
1 -1 -1 247032 6312.4 8
1 -1 -1 239526 6411.2 2
1 1 -1 289429 6586.66 2
1 1 -1 249135 6765.39 3
1 -1 -1 267300 6341.36 1
1 -1 -1 236021 6264.47 3
-1 -1 -1 252829 6512.34 2
-1 -1 -1 296779 6358.93 6
-1 1 -1 242555 6301.61 1
1 1 -1 219910 6369.59 6
-1 1 -1 263917 6451.49 2
1 -1 -1 225495 6328.96 4
-1 -1 0 276500 6452.26 6
1 -1 0 256069 6516.01 2
-1 1 0 234927 6345.27 3
-1 1 0 224734 6394.75 4
1 1 0 256345 6850.42 3
-1 -1 0 288224 6922.45 3
1 -1 0 280538 6441.52 1
-1 -1 0 260451 6592.72 2
-1 1 0 256926 6430.14 8
-1 1 0 271199 6528.03 2
-1 1 0 258107 6396.47 1
1 1 0 281718 6643.17 2
1 1 0 229075 6461.26 6
1 -1 0 289917 6449.86 8
1 -1 0 253250 6318.94 3
1 -1 1 263433 6284.28 1
-1 -1 1 252754 6440.6 2
1 1 1 256837 6439.98 2
1 -1 1 251855 6343.78 2
-1 1 1 232465 6269.73 8
-1 -1 1 258397 6769.01 3
1 -1 1 272128 6289.08 8
-1 1 1 232231 6242.06 3
-1 1 1 236484 6267.09 4
1 1 1 246433 6323.38 6
-1 1 1 245890 6333.82 2
-1 1 1 261671 6253.76 1
-1 -1 1 246169 6305.45 6
-1 -1 2 5527.54 274.98 6
1 -1 2 6376.15 274.585 8
1 -1 2 6564.58 278.333 1
-1 1 2 6157.15 284.416 3
-1 1 2 5852.52 249.073 1
1 1 2 5348.48 279.207 6
1 1 2 6493.65 355.129 2
-1 1 2 6151.8 270.977 4
1 -1 2 6512.08 305.814 2
-1 -1 2 6073.52 485.551 3
-1 -1 2 6578.85 355.19 2
-1 -1 3 24758.6 1121.64 3
-1 1 3 21905.7 775.871 3
1 -1 3 24577.2 738.125 8
-1 1 3 23408 732.884 4
1 -1 3 21323.4 705.523 3
-1 -1 3 23125.3 742.86 6
1 -1 3 21353.1 1848.54 5
1 -1 3 23555.9 733.376 1
1 -1 4 12750.1 534.367 6
1 -1 4 12585.5 467.849 1
1 1 4 10956.7 414.723 8
1 1 4 12761.4 458.231 4
1 -1 4 12986.7 471.354 8
-1 1 4 13030 482.653 4
1 -1 4 10254.4 1312.48 5
1 -1 4 11293.3 480.57 3
-1 -1 4 14048 441.473 1
-1 -1 5 9424.51 348.482 1
1 -1 5 8679.03 373.701 1
1 -1 5 8503.5 429.683 6
-1 1 5 9114.76 397.936 4
1 1 5 8958.13 359.163 4
1 -1 5 7431.19 398.257 3
1 1 5 8208.04 306.261 8
1 -1 5 9002.21 379.683 8
1 -1 6 15816 667.175 6
-1 1 6 16511.3 617.34 4
1 -1 6 16281.2 593.473 1
1 1 6 17278.3 569.257 4
-1 -1 6 17118.6 564.914 1
1 1 6 14963.4 484 8
-1 -1 7 46732.9 1326.56 1
1 -1 7 43435.8 1453.81 6
-1 1 7 39569.1 1178.83 1
-1 1 7 48710.9 1419.24 4
1 -1 7 42671.6 1357.75 1
1 1 7 46195.1 1229.4 8
1 1 7 47405.6 1332 4
-1 1 8 11344.4 492.84 4
1 1 8 11105.6 431.519 4
-1 -1 8 9593.33 320.4 6
-1 -1 8 9646.44 417.183 1
-1 1 8 8189.59 295.814 1
1 -1 8 10074.8 448.114 1
-1 1 9 181.987 34.0606 1
1 -1 9 185.608 60.8084 1
-1 1 9 211.102 71.9354 4
-1 -1 9 211.017 56.5531 1
-1 -1 9 46.0294 73.4264 4
1 1 9 226.682 58.9692 4
-1 1 10 729.57 72.353 1
-1 1 10 1055.79 152.022 4
1 1 10 1084.23 131.315 4
-1 -1 10 827.469 113.867 1
-1 -1 10 355.964 172.058 4
1 -1 10 920.648 134.153 1
1 -1 11 208.536 74.3244 1
-1 -1 11 107.378 45.4169 1
-1 1 11 122.269 67.7995 4
-1 1 11 134.626 32.3023 1
1 1 11 182.141 63.0703 4
-1 1 12 157.355 45.7231 1
-1 -1 12 56.645 33.9852 1
1 1 12 120.626 66.0443 4
1 -1 12 62.3278 50.5972 1
-1 1 12 72.1879 72.1199 4
-1 -1 13 3447.06 284.216 1
1 1 13 4044.22 1394.34 5
-1 1 13 4086.58 380.517 4
1 -1 13 3826.59 331.591 1
1 1 13 4190.38 335.782 4
-1 -1 14 216.444 71.5031 1
1 -1 14 278.086 93.6091 1
1 1 14 269.279 86.8511 4
-1 1 14 322.709 116.797 4
1 1 14 798.288 796.434 5
-1 -1 15 43.7177 35.7251 1
1 -1 15 27.2026 24.9034 1
1 1 16 43.1734 710.463 5
-1 1 16 70.4759 67.2225 4
1 1 17 1391.91 1173.1 5
-1 1 17 100.714 103.271 4
-1 1 17 2164.26 1291.3 5
1 1 18 -668.287 852.107 5
-1 1 18 1364.7 1321.65 5
1 -1 19 12.8546 654.391 5
-1 1 19 694.506 890.653 5
-1 1 20 442.172 804.491 5
1 -1 20 2851.01 1719.82 5
1 2 -19 917.487 221.694 3
1 2 -18 641.861 184.511 3
1 -2 -18 641.625 199.003 3
1 2 -17 144.978 93.2921 3
1 -2 -17 120.385 106.074 3
1 -2 -16 779.472 202.049 3
-1 2 -16 745.701 154.998 3
1 2 -16 962.552 203.298 3
-1 2 -15 317.873 98.1287 3
1 -2 -15 279.17 137.704 3
1 2 -15 357.478 121.023 3
1 -2 -14 2260.25 318.074 3
1 2 -14 2792.93 337.352 3
-1 2 -14 2160.25 247.443 3
-1 2 -13 2525.71 251.493 3
1 2 -13 2834.67 338.992 3
1 -2 -13 2551.13 322.46 3
1 -2 -12 11105.1 679.993 3
-1 2 -12 10850.7 556.863 3
1 2 -12 12258.5 747.761 3
-1 2 -11 2799.13 242.544 3
1 2 -11 2905.31 347.748 3
1 -2 -11 3373.57 336.377 3
1 2 -10 260.219 112.976 3
-1 2 -10 236.558 70.8683 3
1 -2 -10 285.396 104.928 3
1 2 -9 1650.82 280.772 3
1 -2 -9 1836.64 221.685 3
-1 2 -9 1776.68 166.869 3
-1 2 -8 -0.98458 18.0753 3
-1 2 -8 19.8109 7.18201 6
1 -2 -8 19.5522 34.379 3
-1 -2 -8 53.068 28.4734 7
-1 2 -8 -9.97746 29.9267 7
1 2 -8 6.94407 62.7588 3
-1 -2 -7 1226.21 75.8639 1
1 -2 -7 2145.55 212.679 3
-1 2 -7 2275.88 170.603 3
-1 2 -7 2195.03 205.44 7
-1 -2 -7 2226.06 293.337 2
-1 2 -7 1801.86 88.0321 6
1 2 -7 1860.24 330.754 3
-1 -2 -7 2330.74 157.837 7
1 -2 -6 4847.43 183.948 8
1 2 -6 7250.67 642.161 3
-1 -2 -6 8438.35 299.957 7
-1 2 -6 7760.04 319.641 3
1 -2 -6 8039.58 401.958 3
-1 2 -6 7780.2 383.55 7
-1 2 -6 6034.37 249.872 6
-1 -2 -6 7290.94 530.336 2
-1 2 -5 4377.71 274.251 7
-1 2 -5 4440.91 236.759 3
1 -2 -5 4567.21 291.283 3
-1 -2 -5 5036.74 424.257 2
1 -2 -5 4677.85 175.817 8
1 -2 -5 5203.08 423.479 2
-1 2 -5 4312.31 258.147 6
1 2 -5 4273.03 501.703 3
-1 -2 -4 887.583 101.24 6
1 2 -4 817.003 217.551 3
1 -2 -4 996.956 118.64 3
1 -2 -4 957.271 178.595 2
-1 2 -4 1009.7 126.867 6
-1 2 -4 895.574 105.958 7
1 -2 -4 1002.74 74.4 8
-1 -2 -4 998.81 176.31 2
-1 2 -4 840.143 95.9362 3
-1 -2 -3 191.33 81.7482 2
1 -2 -3 415.149 118.984 2
1 2 -3 196.659 45.5247 6
1 -2 -3 291.187 44.7316 8
1 2 -3 -121.045 131.842 5
1 2 -3 214.095 104.361 3
-1 2 -3 227.934 50.1577 7
-1 2 -3 199.195 57.4773 3
1 -2 -3 254.962 61.5044 3
1 -2 -3 263.704 53.2029 1
-1 -2 -3 261.937 44.071 6
1 2 -2 180.236 47.8685 6
1 2 -2 231.41 135.881 3
-1 2 -2 231.704 53.9121 7
-1 -2 -2 237.832 42.9372 6
-1 -2 -2 159.697 85.5281 2
1 -2 -2 241.729 55.1304 3
1 -2 -2 251.819 46.5278 8
1 -2 -2 220.074 49.2175 1
-1 2 -2 154.291 55.1235 3
1 -2 -2 271.698 94.0502 2
-1 2 -1 15487.2 517.908 7
-1 -2 -1 15388.3 783.526 2
-1 2 -1 16122.5 476.515 3
1 -2 -1 16536.8 551.494 1
1 -2 -1 16419.4 776.364 2
1 2 -1 15327 944.886 3
1 -2 -1 17997 545.586 8
1 2 -1 12392.9 524.386 6
-1 2 -1 15466.2 648.587 3
-1 -2 -1 17348.9 529.641 6
-1 -2 0 29270.2 1200.94 2
-1 -2 0 31949.4 873.085 6
1 2 0 28639.5 1348.36 3
1 -2 0 30557.6 925.461 1
1 -2 0 30160.1 923.507 8
-1 2 0 29460.7 851.125 3
-1 -2 0 31473.9 888.369 1
1 -2 0 29487.8 1148.22 2
1 -2 1 16536.8 768.697 2
-1 2 1 16055.4 542.303 3
1 -2 1 18279 607.802 8
1 -2 1 16575.9 592.273 1
-1 -2 1 17511.1 839.668 2
-1 -2 1 17369.7 520.797 6
1 2 1 15178.4 901.544 3
-1 -2 1 18103.7 563.136 1
-1 2 2 166.385 52.9495 4
1 -2 2 151.716 69.6492 2
-1 2 2 263.996 55.4234 8
-1 -2 2 205.932 28.7163 6
-1 -2 2 216.487 51.0109 1
-1 -2 2 125.203 54.9856 2
1 -2 2 196.33 51.8241 1
-1 2 2 171.187 37.0074 1
-1 -2 3 311.22 33.0785 6
1 -2 3 199.529 68.4545 3
-1 2 3 119.901 36.1077 8
-1 -2 3 285.535 56.1029 1
1 -2 3 300.683 86.1854 2
-1 -2 3 248.992 82.5555 2
-1 2 3 193.95 38.116 1
1 -2 3 266 55.6193 1
-1 2 3 270.003 69.4555 4
-1 -2 4 1088.84 186.99 2
-1 -2 4 902.101 50.4475 6
1 -2 4 853.226 145.667 3
1 -2 4 963.267 116.12 1
-1 -2 4 1021.09 111.443 1
1 -2 4 1176.61 170.693 2
-1 2 4 808.158 91.0964 8
-1 2 4 1038.42 134.512 4
-1 2 4 817.391 65.5783 1
1 -2 5 4223.89 375.793 3
-1 2 5 4088.6 159.608 1
-1 2 5 5043.25 311.571 4
1 -2 5 4781.64 284.884 1
-1 -2 5 4806.26 263.824 1
1 2 6 5563.71 236.502 8
-1 2 6 7291.37 285.377 7
1 2 6 7827.37 406.414 4
1 -2 6 7763.44 391.059 1
-1 -2 6 7903.88 367.299 1
1 -2 6 6895.5 528.755 3
-1 2 6 8220.13 414.263 4
-1 -2 7 2128.91 187.558 1
1 -2 7 2375.58 213.197 1
-1 2 7 2322.72 218.663 4
1 2 7 2391.48 214.328 4
-1 -2 7 655.401 397.165 5
1 -2 8 -107.6 422.966 5
1 -2 8 23.2812 20.528 1
-1 -2 8 267.358 268.922 5
-1 2 8 38.3822 38.685 4
-1 -2 8 41.7217 28.1862 1
1 2 8 18.9778 18.6714 4
-1 2 9 1676.57 196.172 4
1 2 9 1900.67 192.031 4
1 -2 9 722.004 570.911 5
1 -2 9 1714.23 195.056 1
-1 -2 9 1848.39 192.677 1
1 2 10 216.813 59.2595 4
1 -2 10 209.238 66.5764 1
-1 2 10 225.18 76.6027 4
-1 -2 10 312.286 95.4992 1
1 2 11 2645.21 243.916 4
-1 2 11 3293.01 298.171 4
-1 -2 11 3078.71 270.703 1
1 -2 11 2730.67 270.15 1
-1 2 12 11668.9 626.725 4
1 2 12 12338.9 593.354 4
1 -2 12 11102 615.819 1
-1 -2 12 10207.3 568.139 1
-1 2 13 2613.24 285.864 4
1 -2 13 2421.5 278.026 1
1 2 13 2589.78 254.407 4
-1 -2 13 2079.52 241.932 1
1 2 14 2758.97 273.835 4
1 -2 14 2073.93 275.283 1
-1 2 14 2572.63 296.666 4
-1 -2 14 2057 245.318 1
1 -2 15 219.089 92.9517 1
-1 -2 15 277.599 96.5684 1
-1 2 15 446.074 127.745 4
1 2 15 428.097 113.149 4
-1 2 16 1065.32 212.482 4
-1 -2 16 570.43 143.762 1
1 -2 16 846.191 192.41 1
1 -2 17 86.6464 83.2221 1
-1 2 17 37.9373 41.1677 4
-1 2 18 577.595 194.575 4
1 -2 18 -46.4766 334.394 5
1 -2 19 521.335 1080.05 5
-1 -3 -17 220.43 187.565 2
1 -3 -17 3.32157 61.8984 3
-1 -3 -16 309.121 191.764 2
1 3 -16 518.895 153.282 3
1 -3 -16 403.381 161.152 3
1 -3 -15 553.204 200.26 3
1 3 -15 522.832 158.428 3
-1 -3 -15 730.038 273.395 2
1 -3 -14 354.182 146.088 3
1 3 -14 442.842 142.374 3
-1 -3 -14 457.234 209.323 2
1 -3 -13 392.68 145.967 3
1 3 -13 276.982 116.688 3
-1 -3 -13 536.234 216.838 2
1 -3 -13 510.983 225.87 2
1 -3 -12 732.354 177.845 3
1 -3 -12 783.628 265.4 2
-1 -3 -12 701.936 224.8 2
1 3 -12 740.054 190.249 3
-1 3 -12 736.604 123.327 3
1 3 -11 704.631 196.537 3
1 -3 -11 944.464 204.941 3
-1 -3 -11 820.288 249.792 2
-1 3 -11 1025.46 137.251 3
1 -3 -11 1071.02 321.504 2
1 -3 -10 125.711 108.141 2
-1 -3 -10 150.989 148.441 2
-1 3 -10 45.0014 28.5342 3
1 -3 -10 33.474 29.6335 3
1 3 -10 176.173 111.909 3
1 -3 -9 5593.25 592.108 2
1 -3 -9 5043.88 422.897 3
-1 3 -9 5328.01 316.795 3
-1 -3 -9 5261.49 571.004 2
1 3 -9 4624.53 541.819 3
1 -3 -8 2385.9 271.833 3
-1 3 -8 2535.84 212.677 3
-1 -3 -8 2011.48 340.574 2
1 3 -8 2100.93 370.415 3
1 -3 -8 2399.9 374.995 2
1 3 -7 322.327 141.132 3
-1 -3 -7 308.786 37.1195 1
1 -3 -7 381.261 105.301 3
1 -3 -7 416.383 156.775 2
-1 3 -7 339.856 71.5683 3
-1 -3 -7 331.774 125.069 2
-1 3 -6 -48.0509 30.4522 6
-1 -3 -6 107.829 96.731 2
-1 3 -6 4.32435 18.4346 3
1 3 -6 123.079 113.331 3
1 -3 -6 10.8379 49.2468 3
-1 -3 -6 -7.47424 12.4006 1
1 -3 -6 50.2342 70.7382 2
1 3 -5 1103.01 288.05 3
-1 3 -5 689.549 128.691 3
1 3 -5 651.892 80.7898 6
1 -3 -5 832.06 197.634 2
-1 -3 -5 950.194 61.1211 7
-1 -3 -5 743.257 79.6861 1
-1 3 -5 863.35 121.841 7
-1 -3 -5 906.896 214.64 2
1 -3 -4 2564.28 189.08 1
-1 -3 -4 2285.96 151.09 1
-1 -3 -4 2506.58 350.132 2
1 3 -4 2414.85 420.17 3
1 3 -4 1870.44 167.28 6
-1 3 -4 2160.18 189.18 7
1 -3 -4 2599.59 347.225 2
-1 3 -4 2179.78 241.399 3
-1 -3 -3 1162.08 103.259 1
1 3 -3 1021.03 277.199 3
-1 3 -3 977.489 171.527 3
-1 3 -3 1051.69 126.048 7
-1 -3 -3 1204.64 236.838 2
1 3 -3 950.502 120.29 6
1 -3 -3 1168.6 229.233 2
1 -3 -3 1319.63 130.842 1
-1 -3 -2 1889.61 143.774 1
-1 3 -2 1552.27 141.752 7
1 -3 -2 1936.31 164.758 1
-1 -3 -2 1650.36 273.443 2
1 3 -2 1475.88 323.522 3
1 -3 -2 1979.68 292.362 2
-1 3 -2 1354.26 210.049 3
-1 3 -1 29034.1 889.496 3
1 -3 -1 29118.3 941.107 1
1 3 -1 26228.2 1483.55 3
-1 -3 -1 30416 911.161 1
1 -3 -1 29053.4 1313.3 2
-1 -3 -1 29539.8 1338.33 2
-1 3 -1 28739.3 872.787 7
-1 3 -1 26482.8 1194.14 3
-1 3 0 19922.6 614.735 7
1 -3 0 20504.9 1039.93 2
-1 -3 0 20300.1 1057.33 2
1 -3 0 19804.8 718.772 1
1 3 0 17449.7 1152.68 3
-1 -3 0 20439.8 686.834 1
-1 -3 1 34526.7 992.112 1
-1 3 1 29173.7 833.399 7
1 -3 1 29272.9 997.193 1
-1 -3 1 32167.6 1386.91 2
1 -3 1 31365.9 1333.77 2
1 3 1 26760.5 1455.33 3
-1 -3 2 1936.58 297.667 2
1 -3 2 1896.95 270.117 2
1 -3 2 1832.83 176.929 1
-1 -3 2 2511.94 208.67 1
-1 3 3 1258.62 177.287 4
-1 -3 3 1170.66 137.788 1
1 -3 3 1096.89 206.733 2
-1 -3 3 1275.61 227.034 2
1 -3 3 1314.67 153.447 1
1 -3 4 2622.25 314.474 2
-1 -3 4 2560.18 214.262 1
1 -3 4 2448.73 220.717 1
-1 -3 4 2517.7 326.453 2
-1 3 4 2661.69 259.829 4
-1 3 5 1031.35 168.009 4
-1 3 5 722.336 97.551 8
1 -3 5 901.947 134.128 1
1 -3 5 1002.31 184.83 2
-1 -3 5 938.438 130.392 1
-1 3 5 623.915 64.0946 1
-1 -3 5 1191.42 218.899 2
1 -3 5 937.927 183.322 3
-1 3 6 52.3529 48.1254 4
-1 -3 6 -42.1935 33.5357 1
1 -3 6 -6.14339 28.4319 3
1 -3 6 39.0761 40.7483 1
1 3 6 9.07706 18.238 4
1 3 7 165.342 23.9433 8
1 3 7 219.853 35.5434 8
1 -3 7 347.588 87.9985 1
-1 3 7 375.478 104.709 4
1 3 7 388.688 101.857 4
-1 -3 7 294.03 74.7638 1
1 3 8 2335.38 253.667 4
-1 3 8 2581.06 266.063 4
-1 -3 8 2369 243.164 1
1 -3 8 2393.29 248.438 1
-1 3 9 5242.46 399.714 4
1 -3 9 4846.99 379.781 1
1 3 9 5646.3 407.818 4
-1 -3 9 5249.86 385.621 1
1 -3 10 10.4995 36.6453 1
1 3 10 9.59752 16.0203 4
-1 -3 10 -25.0559 33.8352 1
-1 3 10 20.3184 16.6797 4
-1 3 11 753.81 149.158 4
1 -3 11 693.809 138.101 1
1 3 11 1052.64 173.603 4
-1 -3 11 925.859 162.292 1
1 -3 12 542.767 131.215 1
-1 -3 12 631.702 139.194 1
1 3 12 737.163 148.156 4
-1 3 12 835.958 168.448 4
-1 3 13 452.947 127.879 4
1 -3 13 347.14 117.635 1
-1 -3 13 384.227 113.969 1
1 3 13 435.247 113.052 4
1 3 14 342.249 108.736 4
-1 3 14 320.493 105.553 4
1 -3 14 430.228 132.428 1
-1 -3 14 228.234 101.854 1
-1 3 15 733.205 167.562 4
-1 -3 15 519.73 150.075 1
1 3 15 592.238 138.884 4
1 -3 15 401.474 136.884 1
1 -3 16 325.871 124.113 1
-1 3 16 414.588 133.549 4
-1 -3 16 399.071 116.179 1
-1 3 17 66.4872 49.2852 4
-1 -3 17 33.9662 38.2389 1
1 -3 17 -20.5084 49.4331 1
-1 3 18 122.535 78.4527 4
1 -3 18 123.944 98.2315 1
-1 -3 18 74.6717 74.2135 1
-1 -4 -16 108.941 122.812 2
1 -4 -16 336.197 245.337 2
1 -4 -15 147.997 175.118 2
-1 -4 -15 22.2245 90.2484 2
1 -4 -14 779.207 303.346 2
-1 -4 -14 393.901 218.06 2
-1 -4 -13 532.735 250.787 2
1 -4 -13 309.071 183.554 2
1 -4 -12 26.4521 78.6618 2
-1 -4 -12 86.008 95.2934 2
1 4 -12 85.172 82.3432 3
1 -4 -11 878.066 273.567 2
1 4 -11 600.128 191.368 3
-1 -4 -11 1059.41 336.992 2
1 -4 -10 6865.44 765.89 2
1 4 -10 6544.16 685.824 3
-1 -4 -10 6759.95 752.724 2
-1 -4 -9 2089.79 403.991 2
1 -4 -9 2036.99 408.609 2
1 4 -9 1768.38 368.759 3
1 -4 -8 177.258 133.07 2
-1 -4 -8 168.61 138.097 2
1 4 -8 98.2511 125.926 3
-1 -4 -7 87.7378 78.0703 2
1 4 -7 272.166 164.083 3
1 -4 -7 57.6536 92.3177 2
-1 4 -6 5945.27 445.619 3
1 -4 -6 6857.05 694.234 2
1 4 -6 7191.66 765.77 3
-1 -4 -6 6918.12 703.927 2
-1 -4 -6 6522.74 306.463 1
1 4 -5 82.9479 80.8238 3
-1 -4 -5 213.646 53.584 1
-1 4 -5 297.43 118.547 3
1 -4 -5 298.551 81.213 1
1 -4 -5 240.62 152.348 2
-1 -4 -5 263.083 151.04 2
1 -4 -4 1403.87 161.461 1
-1 -4 -4 1261.64 132.869 1
-1 -4 -4 1112.41 256.2 2
1 -4 -4 1275.15 280.131 2
-1 4 -4 893.963 201.703 3
1 4 -4 1329.75 328.191 3
-1 -4 -3 4085.76 261.341 1
1 4 -3 4202.83 586.269 3
-1 4 -3 3489.62 407.447 3
-1 -4 -3 3666.08 486.284 2
1 -4 -3 3600.39 482.078 2
1 -4 -3 4238.77 294.523 1
1 -4 -2 8871.43 752.501 2
1 -4 -2 9067.61 446.998 1
-1 -4 -2 8651.85 422.741 1
-1 -4 -2 7900.28 281.016 7
1 4 -2 7416.84 803.831 3
-1 4 -2 7027.38 600.914 3
-1 -4 -2 8757.83 750.79 2
-1 4 -1 170.906 106.648 3
-1 -4 -1 104.385 33.1467 7
1 -4 -1 137.794 67.1322 1
-1 -4 -1 46.388 33.0428 1
-1 -4 -1 93.7089 43.1119 2
1 4 -1 139.692 120.281 3
1 -4 -1 83.3529 83.7287 2
-1 -4 0 1229.09 149.73 1
1 -4 0 1085.71 238.428 2
1 -4 0 1971.04 214.865 1
-1 4 0 1264.37 278.805 3
-1 -4 0 1237.36 263.988 2
1 4 0 1029.38 281.997 3
-1 -4 1 163.927 58.6397 1
1 -4 1 99.5108 55.3011 2
1 -4 1 121.07 54.4555 1
1 4 1 12.8236 67.9394 3
-1 -4 1 89.9669 67.5327 2
1 -4 2 8751.5 483.744 1
-1 -4 2 8559.31 459.388 1
-1 -4 2 8720.79 711.253 2
1 4 2 7730.85 807.342 3
1 -4 2 8754.91 688.733 2
1 -4 3 4184.24 325.052 1
-1 -4 3 3832.13 467.422 2
-1 4 3 4032.88 378.075 4
-1 -4 3 4276.35 320.846 1
1 -4 3 3991.98 444.469 2
1 -4 4 1227.74 173.703 1
-1 -4 4 1242.19 170.203 1
-1 -4 4 1226.6 257.924 2
-1 4 4 1141.39 200.394 4
1 -4 4 1051.88 225.225 2
1 -4 5 308.099 87.6423 1
-1 4 5 315.818 102.343 4
1 -4 5 234.605 114.469 2
-1 -4 5 261.71 83.2906 1
-1 -4 5 241.318 139.938 2
1 -4 6 7208.87 482.244 1
-1 -4 6 7636.91 645.402 2
-1 4 6 7730.29 547.717 4
-1 -4 6 7423.38 480.133 1
1 -4 6 7630.47 627.575 2
-1 4 7 72.2543 54.4358 4
1 -4 7 151.051 76.1975 1
-1 -4 7 71.8725 35.4771 1
1 4 7 117.529 76.8525 4
-1 -4 8 56.1339 28.9518 1
1 -4 8 83.8229 65.5048 1
1 4 8 125.917 74.8633 4
-1 4 8 197.579 80.4061 4
-1 -4 9 1934.3 255.237 1
1 4 9 2299.03 294.618 4
-1 4 9 2347.99 297.913 4
1 -4 9 1980.97 255.482 1
1 -4 10 7388.1 532.703 1
1 4 10 7951.87 566.626 4
-1 -4 10 6683.64 499.461 1
-1 4 10 7102.54 534.115 4
-1 4 11 748.184 169.158 4
1 -4 11 719.997 164.63 1
1 4 11 740.359 170.115 4
-1 -4 11 640.356 150.336 1
-1 4 12 -11.2778 24.4128 4
1 4 12 -27.3864 43.7958 4
-1 -4 12 4.40105 35.5331 1
1 -4 12 48.633 52.391 1
-1 -4 13 500.333 143.927 1
1 -4 13 572.418 164.078 1
1 4 13 480.389 131.923 4
-1 4 13 518.478 144.45 4
1 4 14 620.179 157.942 4
1 -4 14 369.299 140.902 1
-1 4 14 453.274 146.681 4
-1 -4 14 307.169 103.586 1
1 -4 15 157.568 89.4347 1
1 4 15 17.4366 45.7836 4
-1 -4 15 124.594 67.1731 1
-1 4 15 122.417 81.4913 4
-1 -4 16 77.3405 70.7129 1
1 -4 16 -17.4503 41.2426 1
-1 4 16 53.9741 58.1485 4
1 -4 17 144.285 114.328 1
-1 -4 17 134.541 109.762 1
-1 4 17 84.7487 76.4242 4
1 -5 -14 89.3883 139.105 2
-1 -5 -14 -5.57803 102.909 2
-1 -5 -13 109.818 147.632 2
1 -5 -13 62.5733 100.935 2
-1 -5 -12 21.5943 96.357 2
1 -5 -12 -21.4977 61.4068 2
-1 -5 -11 979.138 336.586 2
1 -5 -11 626.44 288.077 2
1 -5 -10 232.998 183.881 2
-1 -5 -10 248.92 163.388 2
1 -5 -9 -22.405 64.4913 2
-1 -5 -9 62.5655 111.193 2
-1 -5 -8 1464.6 378.493 2
1 -5 -8 1934.64 433.42 2
-1 -5 -7 7812.46 860.269 2
1 5 -7 7599.01 842.095 3
1 -5 -7 9517.24 960.944 2
1 5 -6 1282.8 355.516 3
-1 -5 -6 1669.82 372.103 2
1 -5 -6 1615.29 379.247 2
-1 -5 -5 6159.95 721.572 2
1 -5 -5 6136.18 720.436 2
1 5 -5 6654.84 798.241 3
1 5 -4 -21.4048 63.8519 3
-1 -5 -4 163.928 116.419 2
1 -5 -4 121.882 111.871 2
-1 -5 -4 26.2445 36.6846 1
1 -5 -4 59.9245 39.6451 1
1 -5 -3 147.496 65.4192 1
1 5 -3 87.6798 102.935 3
1 -5 -3 161.876 104.46 2
-1 -5 -3 44.8562 39.3194 1
-1 -5 -3 9.37527 71.8577 2
1 -5 -2 202.093 75.3969 1
-1 -5 -2 201.558 122.752 2
1 5 -2 143.708 141.812 3
1 -5 -2 282.812 150.948 2
-1 -5 -2 25.5586 24.88 1
1 -5 -1 219.011 78.8544 1
1 5 -1 179.432 154.813 3
1 -5 -1 447.1 184.065 2
-1 5 -1 38.6755 50.6834 3
-1 -5 -1 247.114 83.2567 1
-1 -5 -1 224.828 135.275 2
1 5 0 962.789 325.044 3
-1 -5 0 1099.82 164.542 1
1 -5 0 1159.05 178.766 1
1 -5 0 1312.23 298.423 2
-1 -5 0 922.291 283.459 2
-1 5 0 707.371 236.312 3
1 -5 1 276.032 90.0183 1
-1 -5 1 361.781 144.269 2
1 -5 1 196.372 112.89 2
-1 -5 1 279.331 84.2856 1
-1 5 1 194.052 152.843 3
1 5 1 71.844 51.7858 3
1 -5 2 106.993 61.399 1
-1 5 2 188.262 159.182 3
-1 -5 2 157.118 64.4968 1
1 -5 2 3.87003 61.7614 2
-1 -5 2 61.6079 33.0214 2
1 5 2 139.908 136.655 3
-1 -5 3 43.1699 45.7745 2
-1 -5 3 200.487 87.0937 1
1 5 3 139.685 143.643 3
1 -5 3 73.5834 45.8708 1
1 -5 3 45.5598 44.4753 2
-1 5 3 40.9208 71.8852 4
1 -5 4 154.95 73.7558 1
1 5 4 103.772 132.418 3
-1 -5 4 7.35826 40.3 1
-1 5 4 11.3709 35.0481 4
1 -5 4 138.207 105.655 2
-1 -5 4 88.6741 96.3006 2
1 -5 5 6570.36 488.637 1
-1 -5 5 6530.27 482.234 1
-1 -5 5 6902.73 664.824 2
-1 5 5 6936.47 574.926 4
1 -5 5 6730.17 644.378 2
-1 -5 6 1516.48 229.043 1
1 -5 6 1478.16 229.028 1
1 -5 6 1664.76 321.741 2
-1 5 6 1658.79 278.906 4
-1 -5 6 1509.32 316.46 2
-1 -5 7 8535.47 586.896 1
1 -5 7 8972.77 612.531 1
-1 5 7 9540.88 690.117 4
1 5 7 9210.34 699.106 4
1 -5 8 1771.26 269.849 1
-1 5 8 2051.58 308.445 4
-1 -5 8 1641.9 247.74 1
1 5 8 2000.96 313.556 4
1 5 9 175.865 101.598 4
-1 5 9 132.712 95.3976 4
-1 -5 9 46.9419 23.9022 1
1 -5 9 60.8531 77.7346 1
1 -5 10 249.066 113.117 1
1 5 10 341.971 126.248 4
-1 5 10 387.686 134.498 4
-1 -5 10 490.37 146.654 1
1 -5 11 735.999 184.573 1
1 5 11 699.275 173.737 4
-1 -5 11 836.299 194.251 1
-1 5 11 920.351 206.885 4
1 -5 12 -107.444 62.1654 1
-1 5 12 -34.5881 47.0856 4
1 5 12 13.6671 26.9444 4
-1 -5 13 57.7259 72.2257 1
1 5 13 71.4785 69.9402 4
-1 5 13 -25.8214 70.3613 4
1 -5 13 79.7591 101.863 1
1 -5 14 -29.3029 39.1029 1
1 5 14 -43.3817 60.4496 4
-1 -5 14 5.83196 68.4327 1
-1 5 14 41.0084 50.3256 4
-1 5 15 206.192 106.055 4
1 -6 -11 -35.4616 87.5662 2
-1 -6 -11 14.5125 86.9219 2
1 -6 -10 96.4551 112.611 2
-1 -6 -10 -13.4622 47.776 2
1 -6 -9 86.0195 105.9 2
-1 -6 -9 106.166 71.9665 2
-1 -6 -8 744.386 297.83 2
1 -6 -8 745.51 297.392 2
-1 -6 -7 65.5173 68.9024 2
1 -6 -7 223.195 173.015 2
1 -6 -6 3128.6 569.871 2
-1 -6 -6 3096.38 576.113 2
-1 -6 -5 358.405 198.952 2
1 -6 -5 277.314 168.938 2
1 -6 -4 5440.39 729.214 2
-1 -6 -4 5482.22 731.289 2
1 -6 -3 1512.4 371.169 2
-1 -6 -3 1645.19 397.969 2
1 6 -2 176.605 182.416 3
-1 -6 -2 490.835 122.71 1
-1 -6 -2 339.537 172.428 2
1 -6 -2 317.485 140.607 2
1 -6 -2 664.955 157.357 1
-1 -6 -1 -16.2588 67.512 2
1 -6 -1 293.498 182.744 2
1 -6 -1 159.988 69.7002 1
1 6 -1 212.77 182.404 3
-1 -6 -1 144.842 72.9526 1
1 -6 0 1382.77 226.379 1
1 6 0 729.59 286.569 3
-1 -6 0 1033.95 188.611 1
-1 -6 0 1046.41 306.719 2
1 -6 0 953.047 285.072 2
1 -6 1 44.5922 60.864 2
-1 -6 1 169.861 73.1996 1
1 6 1 -40.6269 82.654 3
-1 -6 1 -39.9853 88.6105 2
-1 -6 2 427.271 125.619 1
1 6 2 253.154 175.386 3
-1 -6 2 575.695 205.166 2
1 -6 2 464.611 184.258 2
1 -6 2 593.551 151.663 1
-1 -6 3 1474.13 347.313 2
1 -6 3 2097.94 294.9 1
-1 -6 3 1728.69 253.461 1
1 6 3 1054.09 368.348 3
1 -6 3 1641.13 372.223 2
-1 6 3 1691.47 318.652 4
-1 -6 4 6078.02 700.901 2
-1 -6 4 6137.23 511.702 1
-1 6 4 6272.07 611.469 4
1 -6 4 6012.47 510.776 1
-1 6 4 4231.85 693.276 3
1 6 4 4558.82 763.583 3
1 -6 4 6066.69 670.413 2
-1 -6 5 468.606 147.662 1
1 6 5 393.909 231.444 3
1 -6 5 211.792 88.7756 1
-1 6 5 318.825 141.138 4
-1 -6 5 229.682 143.856 2
1 -6 5 268.847 152.223 2
1 -6 6 3219.2 480.349 2
1 6 6 2449.55 568.319 3
1 6 6 3536.64 475.554 4
-1 -6 6 3062.14 487.8 2
-1 6 6 3793.85 470.442 4
-1 -6 6 3115.1 373.05 1
1 -6 6 3059.32 372.823 1
1 6 7 491.566 173.367 4
-1 6 7 296.417 122.465 4
-1 -6 7 454.417 195.31 2
-1 -6 7 395.97 139.025 1
1 -6 7 300.465 125.21 1
-1 -6 8 639.345 169.887 1
1 6 8 857.286 228.254 4
-1 6 8 755.368 210.264 4
1 -6 8 733.823 180.736 1
-1 -6 9 60.3744 74.1674 1
1 -6 9 113.139 104.039 1
1 6 9 96.3658 71.7812 4
-1 6 9 347.508 157.958 4
-1 -6 10 -29.6016 49.2883 1
1 6 10 50.0334 64.4543 4
-1 6 10 39.7548 40.2097 4
1 -6 10 56.9806 49.2625 1
-1 -6 11 45.9149 67.5752 1
1 -6 11 86.9591 96.51 1
-1 6 11 136.134 101.976 4
1 6 11 79.4614 67.4312 4
1 6 12 198.333 115.661 4
-1 6 12 59.6431 43.7331 4
1 6 13 -83.2871 80.1034 4
1 -7 -7 868.598 340.624 2
-1 -7 -6 5.96953 66.6479 2
1 -7 -6 -70.6406 104.255 2
1 -7 -5 1300.34 395.398 2
-1 -7 -5 1538.99 421.767 2
1 -7 -4 203.537 163.705 2
-1 -7 -4 297.969 187.786 2
-1 -7 -3 344.091 200.162 2
1 -7 -3 404.374 212.567 2
-1 -7 -2 668.711 269.711 2
1 -7 -2 533.19 227.13 2
1 -7 -1 1218.72 360.728 2
-1 -7 -1 1107.78 346.933 2
-1 -7 0 793.797 180.914 1
1 -7 0 729.093 262.736 2
-1 -7 0 834.972 283.117 2
1 -7 0 1045.73 223.487 1
1 -7 1 870.064 295.424 2
-1 7 1 1326.78 320.348 4
1 -7 1 1097.22 230.991 1
-1 -7 1 902.485 286.211 2
-1 -7 1 1049.64 216.332 1
-1 -7 2 798.652 189.648 1
-1 -7 2 587.512 235.178 2
1 -7 2 818.969 273.336 2
1 -7 2 645.108 179.919 1
-1 7 2 666.435 225.938 4
-1 7 3 514.405 198.153 4
-1 -7 3 446.958 212.658 2
1 -7 3 440.261 145.332 1
1 -7 3 442.55 190.059 2
-1 -7 3 545.95 158.302 1
-1 7 4 334.372 145.906 4
-1 -7 4 334.599 184.561 2
1 -7 4 347.534 206.513 2
-1 -7 4 192.195 94.5935 1
1 -7 4 291.795 138.9 1
1 -7 5 1538.42 300.787 1
1 -7 5 1605.31 368.845 2
1 7 5 1689.19 362.614 4
-1 -7 5 1303.91 251.503 1
-1 7 5 1607.47 336.467 4
-1 -7 5 1406.2 361.46 2
1 -7 6 122.172 97.7201 1
1 7 6 196.081 199.787 3
-1 -7 6 -2.07027 64.2577 1
1 7 6 96.7924 80.3908 4
-1 -7 6 199.136 160.193 2
1 -7 6 276.812 187.809 2
-1 7 6 196.503 136.277 4
1 7 7 691.878 345.83 3
1 7 8 341.463 275.149 3
1 7 9 250.919 190.166 3
2 0 -19 223.118 140.082 3
2 0 -18 -33.197 64.2602 3
2 0 -17 101.637 80.2253 3
2 0 -16 2046.97 309.938 3
2 0 -15 28.1847 31.5761 3
-2 0 -15 -28.1539 53.8295 3
-2 0 -14 3473.18 362.879 3
2 0 -14 4631.22 445.616 3
2 0 -13 1473.97 242.372 3
-2 0 -13 915.247 171.106 7
-2 0 -13 1025.01 193.894 3
-2 0 -12 23916.5 1068.66 3
-2 0 -12 27227 1089.5 7
-2 0 -11 4196.69 348.241 3
-2 0 -11 4827.29 366.791 7
-2 0 -11 4245.28 267.345 6
2 0 -11 5785.74 477.039 3
2 0 -10 9966.13 621.998 3
-2 0 -10 9296.18 406.209 6
-2 0 -10 7901 340.62 4
-2 0 -10 8412.86 489.831 3
-2 0 -10 8847.15 492.885 7
-2 0 -9 165.082 47.9917 6
2 0 -9 235.114 83.1598 3
-2 0 -9 160.9 52.8758 3
-2 0 -9 146.739 34.5996 4
-2 0 -9 151.307 65.1704 7
-2 0 -8 54.3468 28.7623 6
-2 0 -8 95.4116 58.3003 7
2 0 -8 60.5167 57.9677 3
-2 0 -7 70639.6 2038.83 6
2 0 -7 77453.2 2450.73 3
2 0 -6 4591.53 426.327 3
-2 0 -6 4241.21 280.201 6
-2 0 -5 4999.73 327.131 6
2 0 -5 5109.59 467.145 3
-2 0 -4 17399.9 754.462 6
2 0 -4 15704.2 884.049 3
-2 0 -3 31940.7 1183.16 6
2 0 -3 29985.2 1303.41 3
2 0 -2 6640.77 541.369 3
-2 0 -2 8225.93 526.037 6
2 0 -2 8360.5 362.078 4
-2 0 -1 842298 19183 5
-2 0 -1 742634 17504.1 3
2 0 -1 601739 17032.5 4
-2 0 -1 781105 17443 6
-2 0 -1 553018 17076.3 4
2 0 -1 642664 17554.4 3
2 0 0 256418 6673.73 4
-2 0 0 271738 7024.98 6
2 0 0 259787 7166.7 3
-2 0 0 264376 7142.64 3
-2 0 0 299850 8180.39 5
-2 0 0 221966 6744.13 4
2 0 1 669456 16229.1 3
2 0 1 658251 15686.6 4
-2 0 1 628310 16231.1 3
-2 0 2 6685.49 354.38 4
2 0 2 8282.99 255.379 4
2 0 2 6596.89 376.035 8
2 0 2 7713.4 526.333 3
-2 0 2 6791.94 526.967 3
-2 0 3 32235.6 1030.25 4
2 0 3 28667.3 997.709 8
-2 0 4 17357.3 678.477 4
2 0 4 14685.9 595.631 8
2 0 5 5701.72 324.492 8
-2 0 5 5292.49 354.272 4
2 0 6 3149.88 177.628 4
-2 0 6 4795.69 338.516 4
2 0 6 4661.7 272.966 8
-2 0 7 81620.9 2205.06 4
2 0 7 71693.2 1879.82 8
-2 0 8 112.103 61.0259 4
2 0 8 54.7666 35.3538 4
2 0 8 79.5714 37.4216 8
-2 0 9 172.599 45.8023 1
2 0 9 124.008 46.8033 8
2 0 9 54.9688 32.7057 4
-2 0 9 366.185 128.782 4
2 0 10 5439.8 416.174 4
-2 0 10 8367.6 352.285 1
-2 0 10 8272.59 622.288 4
2 0 11 2059.17 276.589 4
-2 0 11 4038.47 233.86 1
-2 0 11 3876.13 476.509 4
-2 0 12 20700.6 1203.52 4
-2 0 12 24643.5 771.907 1
-2 0 13 967.298 127.039 1
-2 0 13 747.162 235.466 4
-2 0 14 2461.22 458.999 4
-2 0 15 961.061 848.096 5
-2 0 15 79.4371 114.765 4
-2 0 16 2007.54 1108.48 5
-2 0 16 1253.09 367.621 4
-2 0 17 31.4582 122.356 4
-2 0 17 1526.23 959.429 5
-2 0 18 94.8009 135.797 4
-2 0 18 -24.0175 448.562 5
2 1 -19 96.786 104.368 3
2 -1 -19 140.031 108.816 3
2 1 -18 296.504 126.885 3
2 -1 -18 347.928 149.203 3
-2 1 -18 239.403 107.185 3
2 1 -17 520.598 169.791 3
2 -1 -17 390.777 145.294 3
-2 1 -17 511.432 153.204 3
-2 1 -16 514.456 145.122 3
2 1 -16 647.154 173.577 3
2 -1 -16 555.006 168.8 3
2 1 -15 178.674 87.2206 3
-2 1 -15 68.9883 41.7984 3
2 -1 -15 65.7627 56.6838 3
-2 1 -14 451.21 126.684 3
2 1 -14 552.118 172.675 3
2 -1 -14 674.067 170.006 3
2 -1 -13 4793.51 431.185 3
-2 -1 -13 3886.7 352.375 7
-2 1 -13 3705.51 330.981 3
-2 1 -13 3933.02 373.529 7
2 1 -13 4644.98 466.544 3
-2 1 -12 7068.9 493.975 7
-2 1 -12 6594.59 444.508 3
2 -1 -12 8435.99 569.3 3
-2 -1 -12 7646.98 477.968 7
2 1 -12 8538.61 644.143 3
-2 -1 -11 1545.24 194.681 7
-2 1 -11 1201.77 119.778 6
2 -1 -11 1709.21 242.614 3
2 1 -11 1458.86 257.718 3
-2 1 -11 1191.15 162.073 3
-2 1 -11 1263.11 194.659 7
-2 -1 -10 1426.41 174.593 7
-2 1 -10 1120.17 175.21 7
2 -1 -10 1486.29 208.926 3
-2 1 -10 1025.71 112.615 6
2 1 -10 1373.24 256.787 3
-2 -1 -10 1166.08 141.649 6
-2 1 -10 1051.72 142.229 3
-2 1 -10 1243.18 106.3 4
-2 1 -9 31.543 48.6777 7
-2 -1 -9 29.5109 22.956 6
-2 1 -9 45.0772 31.2413 6
2 -1 -9 41.3669 31.1638 3
2 1 -9 61.279 71.6935 3
-2 1 -9 16.1492 12.7871 3
-2 1 -9 19.5301 10.2613 4
-2 -1 -9 31.6206 31.7229 7
-2 1 -8 812.074 76.1972 4
-2 1 -8 637.125 116.371 7
-2 -1 -8 686.02 99.9504 6
2 1 -8 505.525 175.083 3
-2 -1 -8 726.386 124.276 7
2 -1 -8 741.709 145.232 3
-2 1 -8 543.674 94.2698 3
-2 1 -8 598.024 94.343 6
-2 1 -7 2146.96 200.816 6
-2 1 -7 3123.16 158.938 4
2 1 -7 1987.35 348.556 3
-2 -1 -7 2453.7 197.506 6
-2 1 -7 2186.33 180.071 3
-2 1 -7 2618.25 231.524 7
2 -1 -7 2773.14 259.795 3
-2 -1 -6 1318.19 142.08 6
2 -1 -6 1117.36 153.014 3
2 1 -6 1054.33 250.757 3
-2 1 -6 1157.28 161.821 6
-2 1 -6 900.364 102.613 4
-2 1 -5 16648.6 749.319 6
2 1 -5 17685.6 1075.82 3
-2 -1 -5 16849.1 654.757 6
2 -1 -5 18169.6 745.615 3
-2 1 -4 5866.89 420.384 6
2 1 -4 5945.38 598.725 3
-2 -1 -4 5530.17 336.229 6
2 -1 -4 5884.55 372.057 3
-2 -1 -4 5191.33 357.774 2
-2 1 -3 820.415 106.145 2
-2 -1 -3 516.59 90.2409 6
-2 1 -3 699.453 142.891 6
2 -1 -3 728.431 115.439 3
2 1 -3 952.469 243.953 3
-2 1 -3 566.393 55.6649 4
-2 -1 -3 685.292 117.314 2
2 -1 -2 8374.59 434.968 3
2 1 -2 9343.82 514.15 6
2 1 -2 9485.86 501.483 2
2 -1 -2 9029.48 446.261 8
-2 1 -2 8550.55 318.051 4
-2 1 -2 10321.9 422.264 2
-2 -1 -2 8775.18 460.772 2
-2 -1 -2 10772.5 526.394 6
-2 1 -2 9712.6 551.963 6
2 1 -2 10024.7 752.176 3
-2 -1 -1 526383 10855.3 6
2 -1 -1 422788 10616.4 8
-2 -1 -1 408843 10659.4 2
-2 1 -1 402809 10438.8 4
2 -1 -1 362823 10590.6 3
2 1 -1 413748 10784 6
-2 1 -1 418190 10610.5 3
-2 1 -1 428395 10521.8 2
2 1 -1 471046 11332.4 3
2 1 -1 477614 10776.3 2
2 -1 -1 412765 10527.8 2
2 -1 0 39218.8 1171.22 2
2 -1 0 46062.4 1292.43 8
-2 -1 0 44395.9 1423.21 6
2 -1 0 42996.8 1173.8 4
2 1 0 40031.6 1674.82 3
-2 1 0 39114.4 1128.98 4
-2 -1 0 40135.1 1305.85 2
2 -1 0 37376.5 1235.85 3
-2 1 0 39898.8 1143.4 2
2 1 0 30534.2 1590.73 5
2 1 0 42713.8 1341.62 2
-2 1 0 38905.6 1320.41 3
2 -1 1 431649 10456.8 2
2 -1 1 440376 10588.9 8
-2 1 1 378434 10669.3 3
-2 -1 1 452291 10657.9 2
2 1 1 429361 11159 3
-2 -1 1 428462 10763.5 6
2 -1 1 439298 10572.3 3
2 1 1 398279 11543.6 5
-2 1 1 408632 10461.1 4
2 1 1 441719 10657.8 2
-2 -1 2 9174.38 515.637 6
-2 -1 2 10000.4 465.527 2
-2 1 2 7767.62 494.06 3
2 1 2 9586.34 464.842 2
2 1 2 9873.73 672.784 3
-2 1 2 8491.78 372.702 4
2 -1 2 8360.62 422.081 3
2 -1 2 11141.1 478.515 1
2 -1 2 10470.6 462.782 8
2 -1 3 669.9 53.4761 3
2 -1 3 672.25 106.348 8
2 -1 3 826.77 119.489 1
-2 -1 3 634.333 128.8 6
-2 1 3 502.048 80.2061 4
2 -1 4 5722.23 221.609 3
2 -1 4 4809.76 1059.46 5
-2 -1 4 4889.91 356.608 6
2 -1 4 6639.69 362.649 1
-2 1 4 5776.6 308.018 4
2 -1 4 6002.43 338.303 8
-2 -1 5 8192.89 994.727 5
-2 -1 5 10423.2 864.302 4
2 -1 5 16603.3 647.142 8
2 -1 5 19115.4 718.505 1
2 -1 5 16902.6 2088.59 5
2 1 5 15010.9 617.604 8
-2 1 5 17377.6 646.52 4
2 -1 5 16991.6 537.764 3
2 -1 6 1274.77 156.04 1
2 1 6 995.69 117.631 8
2 -1 6 1066.12 133.577 8
-2 1 6 1043.9 131.349 4
-2 -1 6 665.608 455.213 5
-2 -1 6 312.923 118.179 4
2 1 6 1032.02 99.0758 4
-2 -1 7 1732.95 544.159 5
2 -1 7 2525.2 243.077 1
-2 -1 7 1196.81 277.814 4
-2 1 7 2637.66 228.066 4
2 1 7 2643.85 167.046 4
-2 -1 7 2867.81 191.814 1
2 -1 7 2444.41 211.704 8
2 1 7 2637.6 200.554 8
2 1 8 542.016 82.9881 8
2 -1 8 666.147 638.566 5
-2 -1 8 725.066 100.399 1
-2 -1 8 712.959 409.576 5
2 -1 8 595.393 108.285 8
-2 1 8 796.012 131.097 4
-2 -1 8 197.786 117.093 4
2 1 8 688.402 83.3633 4
2 -1 8 785.592 129.657 1
-2 1 9 64.0845 44.6999 4
2 1 9 52.2326 27.7085 8
2 -1 9 733.07 559.6 5
-2 -1 9 547.55 484.238 5
2 1 9 835.37 769.745 5
-2 -1 9 -87.1393 115.718 4
-2 1 9 42.1491 22.2101 1
2 1 9 1.23888 10.832 4
-2 -1 9 35.5398 36.8012 1
2 -1 9 47.5941 43.2296 1
2 1 10 1418.86 133.225 4
2 1 10 1098.57 125.475 8
2 1 10 2104.63 999.285 5
-2 -1 10 1028.41 128.063 1
-2 -1 10 1375.63 637.861 5
2 -1 10 1273.8 186.616 1
-2 1 10 1029.87 91.6861 1
2 -1 10 544.283 555.559 5
-2 1 10 1431.41 191.733 4
-2 -1 10 520.954 202.054 4
-2 -1 11 714.674 240.699 4
2 1 11 1456.77 145.182 4
-2 -1 11 1095.46 140.847 1
-2 1 11 1510.85 211.957 4
-2 -1 11 454.993 475.644 5
2 -1 11 1499.93 214.008 1
-2 1 11 952.549 95.3594 1
-2 -1 12 3726.81 600.644 4
-2 -1 12 6298.68 386.4 1
2 -1 12 8335.58 533.909 1
-2 -1 12 1660.22 770.066 5
2 1 12 3242.05 1279.13 5
-2 1 12 7780.13 539.422 4
2 1 12 8767.77 419.813 4
-2 1 12 5765.81 284.653 1
2 -1 13 4015.13 383.311 1
-2 1 13 4182.4 431.685 4
-2 -1 13 3681.35 292.296 1
-2 -1 13 1957.93 443.482 4
2 1 13 2362.31 1291.5 5
2 1 13 4332.3 321.9 4
2 1 14 375.481 837.512 5
-2 -1 14 479.994 111.405 1
2 -1 14 515.047 146.708 1
-2 1 14 383.007 132.737 4
2 -1 15 613.921 772.324 5
-2 -1 15 150.582 68.011 1
2 -1 15 92.2039 53.1092 1
-2 1 15 32.9795 66.8991 4
2 -1 16 1170.07 1052.09 5
2 1 16 -63.7017 563.878 5
2 -1 16 533.159 149.322 1
-2 1 16 423.833 187.371 4
2 -1 17 746.9 711.723 5
-2 1 17 155.326 124.246 4
2 -1 18 115.908 551.385 5
-2 1 18 315.375 191.852 4
-2 1 19 76.549 413.504 5
-2 1 19 42.4439 101.748 4
-2 1 20 649.687 897.765 5
2 2 -19 114.33 90.9846 3
2 2 -18 1017.98 237.827 3
2 -2 -18 1389.71 304.421 3
2 2 -17 98.1072 83.5021 3
2 -2 -17 147.128 108.897 3
2 2 -16 152.127 98.1472 3
2 -2 -16 141.628 101.252 3
2 2 -15 639.188 180.933 3
2 -2 -15 481.05 144.341 3
2 -2 -14 155.686 86.7288 3
2 2 -14 216.818 101.512 3
-2 2 -14 227.472 88.1991 3
-2 2 -13 746.707 137.55 3
2 -2 -13 1187.54 226.572 3
2 2 -13 1330.83 286.752 3
-2 2 -12 4056.21 311.988 3
2 2 -12 5053.97 542.135 3
-2 2 -12 3950.29 373.901 7
-2 -2 -12 4357.37 341.071 7
2 -2 -12 5070.01 439.664 3
-2 2 -11 82.6333 60.7714 7
-2 2 -11 51.5258 15.5738 6
-2 2 -11 87.0828 46.9781 3
2 2 -11 177.901 135.781 3
2 -2 -11 245.126 81.838 3
-2 -2 -11 57.0963 36.2469 7
-2 -2 -10 12596.9 547.367 7
-2 2 -10 9448.9 374.841 6
2 2 -10 12226 935.626 3
-2 2 -10 11609.9 610.335 7
2 -2 -10 8648.68 382.248 8
2 -2 -10 13527.2 679.284 3
-2 2 -10 11836.3 497.119 3
2 -2 -9 24.8262 12.428 8
-2 2 -9 45.5729 26.8021 6
-2 -2 -9 -60.5133 57.8016 6
-2 -2 -9 71.8651 38.4293 7
2 2 -9 -60.9061 94.2652 3
2 -2 -9 1.97431 22.8757 3
-2 2 -9 17.8759 10.7053 3
-2 2 -9 -31.1325 46.7591 7
-2 -2 -8 467.182 149.942 2
-2 -2 -8 412.139 92.0986 7
-2 2 -8 275.774 57.5973 3
-2 2 -8 272.44 64.2331 6
2 2 -8 273.963 168.737 3
-2 -2 -8 325.32 75.9337 6
-2 -2 -8 285.378 61.385 1
2 -2 -8 326.803 86.7863 3
-2 2 -8 235.629 74.1315 7
2 -2 -8 273.263 52.4447 8
-2 2 -7 6039.11 269.337 3
2 -2 -7 6439.52 401.334 3
-2 2 -7 6559.88 393.284 7
-2 -2 -7 7020.18 365.538 6
2 2 -7 6228.24 680.385 3
-2 2 -7 5748.16 364.596 6
2 -2 -7 5438 284.327 8
-2 -2 -7 6180.15 518.654 2
-2 2 -6 29678 875.433 3
-2 -2 -6 35460.4 1047.4 6
-2 2 -6 30300.3 1059.98 7
2 -2 -6 33509.5 1096.67 3
2 -2 -6 28544.5 945.508 8
-2 -2 -6 30872.8 1308.31 2
2 2 -6 34199.4 1736.93 3
-2 2 -6 31000.7 1134.62 6
-2 -2 -5 2077.38 273.628 2
2 -2 -5 2387.76 206.369 3
-2 -2 -5 2698.27 205.139 6
-2 2 -5 2001.65 232.124 6
2 2 -5 2444.64 436.581 3
2 -2 -5 2074.61 165.99 8
2 -2 -5 2517.17 290.831 2
-2 2 -5 2314.27 207.594 7
2 -2 -4 2367.99 184.009 8
-2 -2 -4 2588.08 198.349 6
-2 2 -4 2157.96 252.38 6
2 -2 -4 2464.84 275.487 2
2 -2 -4 2406.04 191.507 3
-2 -2 -4 2105.57 261.901 2
2 2 -4 2205.11 406.322 3
2 2 -3 2897.57 269.701 6
2 -2 -3 3250.85 227.903 8
2 -2 -3 3115.17 207.743 3
-2 -2 -3 3400.59 227.655 6
2 -2 -3 3378.7 316.568 2
-2 -2 -3 3235.37 338.557 2
2 2 -3 3314.21 491.88 3
-2 -2 -2 9552.24 424.968 6
2 -2 -2 9213.7 376.939 3
2 2 -2 9310.06 801.759 3
2 -2 -2 10708.4 470.037 8
2 -2 -2 8901.16 541.706 2
-2 -2 -2 8848.45 581.91 2
-2 -2 -1 64.9932 40.3899 6
2 2 -1 98.3009 114.269 3
2 -2 -1 151.78 61.688 1
2 -2 -1 99.9285 50.2172 8
-2 2 -1 60.2145 29.2879 3
2 -2 -1 -4.2631 31.8223 2
-2 -2 -1 100.072 62.5637 2
2 -2 -1 30.939 11.402 3
-2 2 -1 17.4635 19.0493 4
2 -2 0 2842.86 225.151 1
-2 2 0 2073.8 169.554 3
-2 2 0 2339.86 192.398 4
2 -2 0 2287.93 245.085 2
2 -2 0 2491.44 129.855 3
2 -2 0 2660.16 202.903 8
-2 -2 0 2845.07 212.339 6
-2 -2 0 2640.12 299.574 2
2 2 0 2311.51 370.537 3
-2 -2 1 42.6442 41.0272 6
-2 2 1 39.0025 30.4104 3
-2 2 1 14.3765 23.6343 4
2 -2 1 46.7942 40.0807 2
2 -2 1 54.9878 35.8503 8
-2 -2 1 32.1415 38.0499 2
2 -2 1 26.6395 19.6384 1
2 2 1 67.5085 109.863 3
-2 -2 2 9255.35 567.391 2
2 -2 2 9691.93 443.906 8
-2 2 2 8905.59 433.119 4
-2 -2 2 8407 421.544 6
2 -2 2 10796.7 499.728 1
2 -2 2 9061.23 493.308 2
2 2 2 8816.25 740.353 3
2 -2 3 3762.87 277.532 1
-2 -2 3 3376.45 324.74 2
-2 2 3 3063.47 232.655 4
-2 -2 3 3020.72 231.724 6
2 -2 3 2984.35 252.613 2
2 -2 3 2912.88 227.069 8
2 -2 4 2448.97 224.074 1
2 -2 4 2264.82 207.754 8
-2 2 4 2206.91 195.466 4
-2 2 4 1753.64 144.536 1
-2 -2 4 2464.9 286.377 2
-2 -2 4 2278.54 203.249 6
-2 2 5 1803.51 143.798 1
-2 2 5 2337.14 207.828 4
2 -2 5 2674.29 238.181 1
2 -2 5 2634.63 222.105 8
-2 -2 5 2651.92 198.02 1
-2 -2 5 2148.51 191.267 6
2 -2 5 1677.89 179.829 3
-2 -2 6 28596 950.422 6
2 -2 6 34196.8 1096.18 1
2 2 6 29194.7 954.735 8
-2 -2 6 33950.7 961.487 1
-2 2 6 31203.4 1029.97 4
2 -2 6 33336.1 1032.39 8
2 -2 6 26050.8 1006.98 3
2 -2 7 6701 420.532 1
-2 -2 7 5180.91 314.844 6
2 -2 7 5438.55 406.902 3
-2 2 7 3583.61 216.614 1
-2 -2 7 7069.06 348.559 1
-2 2 7 6364.23 383.989 4
2 2 7 6444.13 361.22 4
2 2 7 5744.32 300.143 8
-2 -2 8 212.444 66.8115 6
-2 -2 8 143.578 219.242 5
2 2 8 337.398 63.5909 8
2 -2 8 277.852 87.9646 1
-2 2 8 307.111 81.5961 4
-2 2 8 26.1174 22.9241 1
2 2 8 353.798 80.9242 4
-2 -2 8 382.437 81.4676 1
2 2 9 28.6086 20.0646 8
-2 2 9 62.2794 56.7947 4
2 -2 9 69.9991 60.167 1
-2 -2 9 25.0219 22.833 6
-2 -2 9 27.6443 35.6401 1
2 2 9 28.385 20.5465 4
-2 2 9 24.5592 13.8455 1
2 -2 10 12677 663.063 1
-2 -2 10 8892.94 475.612 6
-2 2 10 12377.5 630.676 4
2 2 10 12173.8 541.021 4
-2 -2 10 11605.7 545.785 1
2 -2 11 130.964 74.7728 1
-2 2 11 39.1213 50.4375 4
-2 -2 11 95.2684 43.6666 1
2 2 11 66.3414 35.9409 4
2 -2 12 1799.13 1108.13 5
2 -2 12 4973.91 442.605 1
-2 2 12 4560.13 386.759 4
-2 -2 12 3914.52 323.612 1
-2 -2 12 910.945 622.658 5
2 2 12 4347.25 310.866 4
-2 2 13 966.144 186.498 4
2 -2 13 178.208 386.76 5
-2 -2 13 1277.03 739.753 5
2 2 13 745.313 127.829 4
2 -2 13 795.277 185.076 1
-2 -2 13 1071.79 173.38 1
-2 -2 14 233.005 87.6422 1
2 -2 14 651.087 901.562 5
-2 -2 14 -116.809 331.184 5
2 -2 14 282.149 113.945 1
-2 2 14 165.247 74.693 4
-2 2 15 594.838 161.019 4
2 -2 15 2.20059 385.284 5
2 2 15 311.824 618.997 5
2 -2 15 280.604 123.806 1
-2 -2 15 392.746 111.861 1
2 -2 16 668.845 930.778 5
2 2 16 211.785 972.987 5
-2 2 16 125.451 96.4881 4
2 -2 16 189.044 90.1712 1
-2 -2 16 107.994 69.6829 1
2 -2 17 747.054 852.609 5
2 2 17 1165.78 1094.36 5
-2 2 17 228.622 122.756 4
2 -2 17 241.354 116.656 1
2 -2 18 -187.15 517.986 5
2 2 18 36.7065 521.199 5
-2 2 18 842.115 242.105 4
-2 2 19 -7.90718 90.4871 4
2 -2 19 704.81 584.57 5
2 3 -18 1295.48 280.073 3
2 3 -17 134.005 87.8116 3
-2 -3 -17 292.632 210.84 2
2 -3 -17 291.973 148.931 3
-2 -3 -16 363.612 199.964 2
2 3 -16 243.721 113.133 3
2 -3 -16 103.866 109.218 3
2 3 -15 120.57 92.8398 3
-2 -3 -15 38.6459 126.538 2
2 -3 -15 37.6537 50.106 3
-2 -3 -14 799.384 270.264 2
2 3 -14 1013.62 241.649 3
2 -3 -14 1108.37 244.645 3
2 -3 -13 340.74 118.407 3
-2 -3 -13 495.797 211.323 2
2 3 -13 506.831 179.013 3
2 -3 -12 2169.77 302.206 3
2 3 -12 2067.45 403.593 3
2 -3 -12 2144.81 410.567 2
-2 -3 -12 2277.98 412.431 2
-2 -3 -11 655.784 231.007 2
2 3 -11 635.107 231.967 3
2 -3 -11 459.76 136.483 3
2 -3 -11 542.24 213.873 2
-2 -3 -10 3661.89 257.348 7
-2 3 -10 2881.7 305.014 7
2 -3 -10 3636.83 492.003 2
-2 -3 -10 3338.78 470.27 2
2 -3 -10 3396.33 345.705 3
2 3 -10 3365.07 539.447 3
-2 -3 -9 773.264 106.075 7
2 -3 -9 851.065 234.94 2
-2 -3 -9 642.161 194.883 2
2 3 -9 777.077 269.125 3
2 -3 -9 782.08 152.044 3
-2 3 -9 720.089 146.415 7
-2 3 -8 3274.9 295.829 7
2 3 -8 2784.15 518.958 3
-2 3 -8 2828.89 213.838 6
-2 -3 -8 3917.95 236.937 7
2 -3 -8 3560.56 328.657 3
2 -3 -8 3975.36 478.919 2
-2 -3 -8 3109.69 434.203 2
-2 3 -8 3002.95 169.831 3
-2 -3 -7 29357.1 1442.43 2
-2 3 -7 28990 1083.44 7
-2 3 -7 28339 1052.28 6
2 -3 -7 32070.8 1158.01 3
-2 3 -7 26907.9 815.694 3
2 -3 -7 33300.8 876.939 8
2 3 -7 32178.1 1804.35 3
2 -3 -7 31765.4 1477.35 2
-2 3 -6 2642.25 267.422 6
-2 3 -6 2588 238.595 7
2 3 -6 2337.18 461.98 3
-2 -3 -6 2708.48 231.718 6
2 -3 -6 2957 176.291 8
2 -3 -6 2706.41 258.682 3
2 -3 -6 2925.17 388.926 2
-2 -3 -6 2203.7 350.947 2
-2 3 -5 16513.5 690.745 7
-2 -3 -5 17562.1 686.993 6
-2 3 -5 15903.5 803.76 6
2 -3 -5 18092.6 605.095 8
2 -3 -5 17236.5 724.823 3
2 -3 -5 17352.6 994.671 2
-2 -3 -5 16307.1 1002.28 2
2 3 -5 18290.6 1321.24 3
2 -3 -4 23.6505 46.2266 3
-2 3 -4 22.974 27.692 7
2 -3 -4 44.8535 33.6123 8
-2 -3 -4 22.3573 57.515 2
2 -3 -4 -6.88743 53.3392 2
-2 -3 -4 4.33708 18.5305 6
-2 3 -3 2679.3 218.221 7
2 -3 -3 3132.89 214.761 8
-2 -3 -3 3328.25 232.417 6
2 -3 -3 2969.75 235.918 3
2 -3 -3 3026.25 373.488 2
-2 -3 -3 2661 362.101 2
2 -3 -3 3389.49 268.317 1
2 3 -3 3276.23 510.644 3
-2 -3 -2 3714.29 236.218 6
-2 3 -2 2619.14 126.808 3
2 -3 -2 3748.85 235.284 8
-2 -3 -2 3153.07 391.051 2
-2 3 -2 3192.01 222.938 7
2 -3 -2 3873.51 288.081 1
2 -3 -2 3190.83 365.294 2
2 3 -2 2926.08 496.302 3
-2 3 -2 1726.92 161.837 3
2 -3 -1 3526.52 239.923 8
-2 -3 -1 3454.89 217.864 6
-2 -3 -1 2870.87 367.826 2
-2 3 -1 2954.5 161.12 3
2 -3 -1 3591.52 286.057 1
-2 3 -1 2688.4 251.408 3
2 3 -1 2923.28 480.434 3
2 -3 -1 3110.98 358.619 2
-2 3 0 340.566 66.9647 3
-2 -3 0 94.5827 62.7763 2
-2 -3 0 150.978 48.0159 1
2 -3 0 309.649 99.4291 8
2 -3 0 123.41 83.7505 2
-2 -3 0 275.374 65.9118 6
2 3 0 -0.1478 89.0692 3
2 3 1 3240.84 492.391 3
2 -3 1 3751.35 300.561 1
2 -3 1 3379.18 254.88 8
-2 -3 1 3350.04 393.206 2
-2 -3 1 3555.54 233.539 1
-2 3 1 2887.29 265.809 4
-2 -3 1 3717.48 211.598 6
2 -3 1 3199.45 357.915 2
2 -3 2 3922.76 304.593 1
-2 -3 2 3841.63 419.558 2
-2 -3 2 3666.88 207.392 6
-2 3 2 3501.83 294.528 4
2 -3 2 3641.5 269.428 8
-2 -3 2 3682.87 246.072 1
2 -3 2 3415.6 354.791 2
2 3 2 3299.08 499.405 3
2 -3 3 3278.97 268.5 8
-2 -3 3 3264.42 387.851 2
-2 3 3 3081.03 278.246 4
-2 -3 3 3272.39 242.296 1
2 -3 3 3371.86 279.929 1
2 -3 3 3007.41 322.92 2
-2 -3 3 3477.96 186.478 6
2 -3 4 -4.97227 27.8966 1
-2 -3 4 27.9757 32.0938 1
-2 -3 4 92.5748 34.3395 6
2 -3 4 76.9206 69.9041 2
-2 -3 4 43.1341 61.9205 2
-2 3 4 3.88124 28.9695 4
-2 -3 5 17116.4 706.089 1
-2 -3 5 19961.6 996.869 2
-2 -3 5 17419.3 529.439 6
2 -3 5 17743.2 783.319 1
-2 3 5 17131.3 771.574 4
-2 -3 6 2325.25 112.867 6
2 -3 6 2874.85 281.028 1
-2 3 6 2738.86 267.551 4
-2 -3 6 2971.57 247.862 1
2 -3 7 33116.3 1235.7 1
-2 3 7 31689 1195.98 4
-2 -3 7 31673.9 1120.19 1
2 3 7 32197.7 1228.44 4
2 -3 8 3588.73 330.925 1
-2 -3 8 3437.03 283.885 1
2 3 8 2760.2 191.875 8
-2 3 8 3395.99 318.316 4
2 3 8 3700.17 325.301 4
2 3 9 918.026 158.733 4
2 -3 9 900.785 168.029 1
-2 -3 9 578.242 123.301 1
-2 3 9 766.191 150.236 4
2 -3 10 3385.47 344.535 1
-2 -3 10 3378.7 313.975 1
2 3 10 3671.46 322.241 4
-2 3 10 3358.98 331.413 4
2 -3 11 638.283 162.832 1
-2 -3 11 386.639 108.803 1
2 3 11 711.936 150.798 4
-2 3 11 660.127 147.329 4
-2 -3 12 2109.66 263.932 1
2 -3 12 2471.31 320.361 1
-2 3 12 2308.97 283.432 4
2 3 12 2248.16 254.094 4
2 -3 13 489.376 154.373 1
-2 -3 13 403.589 116.36 1
-2 3 13 439.729 124.624 4
2 3 13 383.3 103.957 4
2 -3 14 945.864 218.366 1
-2 -3 14 762.238 166.676 1
-2 3 14 995.045 197.32 4
2 -3 15 -17.8903 46.1581 1
-2 3 15 116.077 81.6246 4
-2 -3 15 93.0403 66.3861 1
2 -3 16 142.939 108.645 1
-2 -3 16 82.4171 70.4551 1
-2 3 17 148.173 86.5113 4
2 -3 17 98.4177 84.4555 1
2 -3 18 962.996 259.632 1
-2 -3 18 589.507 165.401 1
-2 3 18 914.169 229.434 4
-2 3 19 480.218 177.396 4
-2 -4 -16 285.766 213.193 2
2 -4 -16 243.995 132.286 3
2 -4 -16 332.738 226.677 2
2 -4 -15 815.953 316.7 2
-2 -4 -15 466.337 246.961 2
2 -4 -15 510.195 189.937 3
-2 -4 -14 132.013 133.09 2
2 4 -14 53.8251 69.5783 3
2 -4 -14 15.8461 80.1335 2
2 -4 -14 -9.93017 54.2652 3
2 -4 -13 125.619 136.312 2
-2 -4 -13 278.007 171.557 2
2 4 -13 193.393 124.548 3
2 -4 -13 15.8308 59.9592 3
2 -4 -12 568.837 235.669 2
2 4 -12 454.47 215.732 3
2 -4 -12 343.752 139.097 3
-2 -4 -12 457.438 218.18 2
2 -4 -11 -3.73405 68.4626 2
-2 -4 -11 116.685 147.279 2
2 4 -11 -34.7676 77.7879 3
2 -4 -11 55.3235 45.7622 3
2 -4 -10 496.137 209.457 2
-2 -4 -10 444.223 190.294 2
2 4 -10 480.001 237.35 3
2 -4 -10 223.116 101.097 3
2 4 -9 3371.18 583.316 3
-2 -4 -9 3281.88 508.525 2
2 -4 -9 3476.73 378.086 3
2 -4 -9 3422.97 530.554 2
2 -4 -8 774.164 239.297 2
2 -4 -8 803.571 171.343 3
-2 -4 -8 803.869 251.585 2
2 4 -8 771.164 296.696 3
-2 4 -7 7661 481.725 7
2 4 -7 8550.74 954.858 3
2 -4 -7 9282.17 831.862 2
-2 -4 -7 7959.93 786.661 2
-2 4 -6 7627.3 456.747 7
2 4 -6 9069.67 978.957 3
2 -4 -6 7697.6 741.481 2
-2 4 -6 7413.72 505.908 6
-2 -4 -6 7149.06 344.97 1
-2 -4 -6 8265.09 786.674 2
-2 -4 -5 280.013 61.0654 1
-2 -4 -5 232.668 120.299 2
2 4 -5 379.507 210.384 3
-2 4 -5 385.604 86.7031 7
2 -4 -5 310.81 141.923 2
-2 -4 -4 5995.85 629.498 2
-2 -4 -4 6318.67 333.139 1
-2 4 -4 6253.2 372.082 7
2 -4 -4 6629.5 651.345 2
2 -4 -4 7035.03 446.49 1
2 4 -4 7177.21 850.721 3
-2 4 -3 219.345 68.4834 7
2 4 -3 318.156 203.177 3
-2 4 -3 83.235 42.3974 3
2 -4 -3 147.607 90.0259 2
-2 -4 -3 201.071 57.6843 1
2 -4 -3 272.62 85.9132 1
-2 -4 -3 124.939 107.046 2
2 4 -2 374.221 199.115 3
-2 4 -2 205.301 81.2761 3
2 -4 -2 407.559 161.331 2
-2 4 -2 238.572 65.4384 7
-2 -4 -2 271.889 129.514 2
-2 -4 -2 407.205 84.7158 1
2 -4 -2 398.738 104.058 1
2 4 -1 4602.17 654.005 3
-2 -4 -1 5431.43 578.79 2
-2 -4 -1 5514.18 322.84 1
2 -4 -1 5943.04 414.28 1
-2 4 -1 3843.58 403.639 3
2 -4 -1 5308.88 551.12 2
-2 4 -1 4927.46 281.424 7
-2 4 0 177.821 102.501 3
2 4 0 93.7693 93.1129 3
-2 4 0 232.413 60.9624 7
-2 -4 0 105.236 45.6241 1
2 -4 0 39.2907 65.8873 2
-2 -4 0 44.8386 35.4258 2
2 -4 0 102.362 61.8757 1
-2 -4 1 5066.86 554.8 2
2 -4 1 5811.32 560.852 2
-2 4 1 5178.54 248.83 7
-2 -4 1 5719.45 351.774 1
-2 4 1 5661.55 439.803 4
2 -4 1 6029.72 421.838 1
2 4 1 4689.51 668.683 3
2 -4 2 428.173 113.902 1
2 -4 2 235.449 105.283 2
-2 4 2 326.575 51.2549 7
2 4 2 251.516 158.679 3
-2 -4 2 113.048 81.2604 2
-2 4 2 333.028 108.1 4
-2 -4 2 557.352 119.141 1
2 -4 3 196.256 80.2876 1
-2 4 3 115.603 25.2071 7
2 4 3 121.419 147.538 3
-2 -4 3 161.508 66.5615 1
-2 -4 3 228.449 114.696 2
2 -4 3 80.1749 31.8027 2
-2 4 3 160.102 80.715 4
-2 -4 4 6563.87 604.721 2
2 -4 4 6445.56 559.72 2
2 -4 4 7474.62 490.953 1
-2 -4 4 6784.6 420.177 1
-2 4 4 6782.03 499.889 4
2 4 4 5677.97 774.53 3
2 -4 5 419.334 115.626 1
-2 -4 5 268.793 80.1138 1
-2 4 5 224.381 85.5856 4
-2 -4 5 457.394 160.614 2
2 -4 5 440.778 153.481 2
-2 4 6 9203.78 589.777 4
-2 -4 6 8469.47 516.298 1
2 -4 6 9299.62 588.446 1
-2 -4 6 9707.9 757.933 2
2 -4 7 9394.83 608.793 1
-2 -4 7 8309.33 522.254 1
-2 4 7 9252.5 589.487 4
2 -4 8 1010.27 197.057 1
-2 -4 8 820.458 157.857 1
-2 4 8 797.517 165.799 4
2 4 8 1008.39 197.283 4
2 -4 9 3946.57 401.65 1
-2 -4 9 4182.03 382.187 1
2 4 9 4233.6 411.067 4
-2 4 9 3603.46 370.418 4
2 -4 10 350.397 119.676 1
-2 -4 10 402.11 117.216 1
2 4 10 358.664 121.476 4
-2 4 10 421.432 130.903 4
2 4 11 -4.7125 23.7796 4
-2 -4 11 53.6685 66.2674 1
-2 4 11 41.6946 56.6823 4
2 -4 11 -36.5178 29.521 1
2 -4 12 453.604 148.993 1
-2 -4 12 255.191 101.555 1
2 4 12 323.513 107.493 4
-2 4 12 330.759 115.736 4
2 -4 13 93.6451 75.4944 1
-2 -4 13 312.601 116.893 1
-2 4 13 202.17 95.3512 4
2 4 13 56.2358 67.0928 4
2 -4 14 43.6321 71.8294 1
-2 -4 14 62.9422 67.106 1
-2 4 14 -22.7883 33.6578 4
2 -4 15 710.907 209.117 1
-2 4 15 558.757 167.152 4
-2 -4 15 470.365 151.122 1
2 -4 16 213.32 138.948 1
-2 4 16 337.621 137.144 4
-2 -4 16 78.5457 83.8102 1
-2 4 17 54.2207 69.4629 4
-2 -4 17 154.531 103.761 1
-2 -5 -14 209.741 180.832 2
2 -5 -14 -1.30612 99.7399 2
2 -5 -13 286.783 206.456 2
-2 -5 -13 149.012 124.556 2
2 -5 -12 -40.1014 132.506 2
-2 -5 -12 86.2223 71.174 2
2 -5 -11 100.186 86.7575 2
-2 -5 -11 -38.875 108.327 2
-2 -5 -10 475.95 215.648 2
2 -5 -10 639.356 275.233 2
2 5 -9 3762.75 636.332 3
2 -5 -9 4629.17 696.48 2
-2 -5 -9 4161 663.305 2
-2 -5 -8 56.6746 70.8542 2
2 5 -8 155.712 161.706 3
2 -5 -8 55.9978 81.8653 2
2 5 -7 5645.24 809.2 3
2 -5 -7 5218.58 705.638 2
-2 -5 -7 4583.03 643.409 2
2 -5 -6 37.5128 81.9328 2
-2 -5 -6 55.4979 69.0084 2
2 5 -6 78.2857 73.8956 3
2 5 -5 1787.08 481.477 3
2 -5 -5 1486.62 351.317 2
-2 -5 -5 1275.45 322.356 2
-2 -5 -4 7611.75 431.354 1
2 -5 -4 8778.94 842.185 2
2 5 -4 7825.77 975.442 3
2 -5 -4 8814.79 569.471 1
-2 -5 -4 6872.63 754.511 2
2 5 -3 192.418 172.846 3
-2 -5 -3 213.704 142.142 2
2 -5 -3 124.725 122.295 2
-2 -5 -3 101.101 50.1551 1
2 -5 -3 140.364 75.8047 1
-2 -5 -2 4596.98 594.98 2
2 5 -2 4376.88 692.095 3
-2 -5 -2 4617.92 343.701 1
2 -5 -2 5392.15 432.088 1
2 -5 -2 4561.45 598.088 2
2 5 -1 655.847 286.15 3
2 -5 -1 775.461 232.617 2
-2 -5 -1 869.279 254.93 2
-2 -5 -1 743.716 137.079 1
2 -5 -1 1064.67 190.291 1
2 5 0 -36.051 100.892 3
2 -5 0 28.5179 70.3603 2
-2 -5 0 -59.0277 86.3312 2
-2 -5 0 -28.1532 50.0693 1
2 5 1 257.581 180.062 3
-2 -5 1 881.07 156.848 1
2 -5 1 1350.19 212.116 1
2 -5 1 895.864 247.917 2
-2 -5 1 827.596 241.408 2
-2 5 1 1122.69 218.57 4
2 -5 2 5286.89 449.886 1
-2 5 2 5429.13 489.108 4
-2 -5 2 4767.92 380 1
2 -5 2 4589.2 536.781 2
-2 -5 2 4275.02 537.072 2
2 5 2 3275.39 659.815 3
2 -5 3 262.827 108.649 1
2 5 3 115.223 182.38 3
-2 -5 3 132.217 65.1118 1
-2 -5 3 120.603 119.012 2
2 -5 3 121.966 39.4637 2
-2 5 3 135.837 64.7721 4
-2 -5 4 7896.4 526.653 1
2 -5 4 8159.01 698.778 2
-2 5 4 8196.95 618.807 4
-2 -5 4 7453.38 734.613 2
2 -5 4 8279.89 584.705 1
2 5 4 6419.29 867.577 3
2 5 5 1093.7 355.156 3
2 -5 5 1624.88 252.171 1
2 -5 5 1769.97 317.174 2
-2 -5 5 1626.84 233.05 1
-2 -5 5 1660.04 334.227 2
-2 5 5 1778.74 277.995 4
2 -5 6 117.781 88.0947 1
-2 5 6 -3.71794 45.506 4
-2 -5 6 19.6326 38.1412 1
-2 -5 6 66.9909 92.3668 2
2 -5 6 22.424 81.2131 2
2 -5 7 5444.1 493.969 1
-2 -5 7 4962.73 438.222 1
-2 5 7 5107.78 483.48 4
2 -5 8 78.8158 93.3395 1
-2 -5 8 42.8972 56.8307 1
-2 5 8 22.5006 63.5328 4
2 5 8 67.5426 67.9026 4
2 -5 9 4326.03 458.898 1
-2 5 9 3863.29 425.959 4
-2 -5 9 4367.19 426.688 1
2 5 9 4494.13 481.214 4
-2 -5 10 616.417 164.303 1
2 -5 10 670.776 181.464 1
2 5 10 675.547 189.7 4
-2 5 10 646.701 185.702 4
2 -5 11 -95.3938 88.1446 1
-2 -5 11 173.771 108.591 1
-2 5 11 97.3605 68.4653 4
2 5 11 127.979 82.7998 4
2 -5 12 187.202 110.755 1
-2 -5 12 182.476 108.821 1
-2 5 12 122.058 87.5935 4
2 5 12 58.303 59.3551 4
2 -5 13 61.4161 71.3383 1
-2 5 13 83.3789 73.9234 4
2 5 13 25.8029 45.1159 4
-2 -5 13 12.6852 58.7969 1
2 -5 14 287.556 147.532 1
-2 -5 14 134.865 90.4435 1
-2 5 14 64.9065 55.7332 4
2 -6 -11 148.274 168.851 2
2 -6 -10 112.497 127.423 2
-2 -6 -10 -5.32773 108.947 2
2 -6 -9 120.502 101.989 2
-2 -6 -9 103.677 135.1 2
-2 -6 -8 103.589 162.54 2
2 -6 -8 -28.7958 108.111 2
2 -6 -7 192.051 201.678 2
-2 -6 -7 25.6297 53.1849 2
2 -6 -6 160.354 153.295 2
-2 -6 -6 168.883 152.292 2
2 -6 -5 429.391 212.158 2
-2 -6 -5 508.211 237.306 2
2 6 -4 2436.9 590.76 3
2 -6 -4 2132.17 453.892 2
-2 -6 -4 1747.18 406.085 2
-2 -6 -3 578.463 245.87 2
2 6 -3 497.471 241.134 3
2 -6 -3 513.43 217.258 2
2 6 -2 712.136 303.074 3
-2 -6 -2 722.195 145.802 1
2 -6 -2 696.352 253.739 2
-2 -6 -2 624.676 236.257 2
2 -6 -2 617.143 164.131 1
2 -6 -1 3113.04 374.94 1
-2 -6 -1 2573.4 289.545 1
-2 -6 -1 2522.9 474.023 2
2 6 -1 2091.86 531.379 3
2 -6 -1 2614.79 476.721 2
-2 -6 0 199.928 82.1726 1
2 6 0 167.07 149.028 3
2 -6 0 263.458 149.769 2
-2 -6 0 292.962 145.253 2
-2 6 0 191.532 116.392 4
2 -6 0 440.197 147.521 1
-2 -6 1 2199.04 428.364 2
2 -6 1 3525.31 406.481 1
2 6 1 2457.18 580.062 3
-2 6 1 2583.3 378.643 4
2 -6 1 2305.9 426.626 2
-2 -6 1 2532.13 303.023 1
-2 6 2 603.639 182.339 4
-2 -6 2 459.901 134.893 1
2 6 2 630.565 310.579 3
-2 -6 2 554.414 221.608 2
2 -6 2 698.948 225.695 2
2 -6 2 803.588 189.361 1
2 6 3 444.268 240.087 3
-2 -6 3 766.887 170.64 1
-2 -6 3 574.682 216.014 2
2 -6 3 512.124 198.082 2
-2 6 3 761.178 197.695 4
2 -6 3 862.113 201.033 1
-2 -6 4 1868.65 383.524 2
2 -6 4 1875.25 362.712 2
2 6 4 1530.7 464.045 3
2 -6 4 2449.21 344.733 1
-2 -6 4 2043.23 286.726 1
-2 6 4 2262.68 358.478 4
2 -6 5 616.097 175.199 1
2 6 5 333.024 218.59 3
-2 6 5 608.394 182.27 4
-2 -6 5 453.571 174.303 2
2 -6 5 371.254 160.552 2
-2 -6 5 510.756 150.298 1
-2 -6 6 141.726 83.0563 1
2 -6 6 78.4613 47.6354 1
2 6 6 174.783 199.395 3
-2 -6 6 332.735 179.954 2
-2 6 6 123.327 96.8399 4
2 -6 6 120.264 108.264 2
2 6 7 130.444 179.22 3
-2 -6 7 150.526 94.678 1
2 -6 7 115.14 95.7485 1
-2 6 7 4.92496 51.7985 4
2 6 7 119.771 92.265 4
-2 -6 8 -2.85543 26.1291 1
2 -6 8 198.484 118.577 1
2 6 8 -0.91936 91.8129 3
-2 6 8 94.1092 69.2282 4
2 6 8 28.7748 78.5901 4
-2 -6 9 129.536 90.1589 1
2 -6 9 339.563 154.322 1
-2 6 9 231.028 125.387 4
2 6 9 217.254 120.855 4
2 -6 10 -2.37781 67.7239 1
-2 6 10 86.715 84.4628 4
2 6 10 167.255 108.322 4
-2 -6 10 67.4209 72.2415 1
-2 6 11 52.5509 57.4029 4
2 6 11 182.194 109.335 4
2 6 12 775.55 219.385 4
2 6 13 35.1058 56.6307 4
2 -7 -7 -33.0503 94.6891 2
2 -7 -6 -91.915 116.716 2
2 -7 -5 136.307 147.164 2
-2 -7 -5 233.818 139.409 2
2 -7 -4 -24.9017 117.055 2
-2 -7 -4 58.7245 110.64 2
-2 -7 -3 1014.07 335.226 2
2 -7 -3 994.444 341.406 2
2 -7 -2 272.334 194.551 2
-2 -7 -2 518.157 245.205 2
2 -7 -1 1600.59 399.409 2
-2 -7 -1 1029.03 314.367 2
-2 7 -1 1354.17 303.567 4
2 -7 0 799.259 268.119 2
-2 -7 0 650.891 254.931 2
-2 -7 0 845.472 194.005 1
-2 7 0 917.873 255.83 4
2 -7 1 1756.7 319.233 1
-2 -7 1 1222.94 352.573 2
2 -7 1 1215.14 332.652 2
-2 -7 1 1535.38 264.27 1
-2 7 1 1390.52 301.458 4
2 7 2 139.89 155.05 3
-2 -7 2 419.534 204.397 2
2 -7 2 488.647 204.839 2
-2 -7 2 305.673 123.809 1
-2 7 2 472.227 186.105 4
2 -7 2 502.63 181.955 1
2 -7 3 873.283 228.181 1
-2 -7 3 649.171 256.703 2
2 -7 3 947.174 282.886 2
-2 -7 3 850.134 200.265 1
-2 7 3 883.262 243.146 4
2 7 3 967.983 396.153 3
2 7 4 67.7148 116.918 3
2 -7 4 193.199 122.91 1
-2 -7 4 173.919 133.885 2
-2 -7 4 106.648 79.9129 1
2 -7 4 116.546 124.656 2
-2 7 4 42.2896 70.1641 4
2 -7 5 95.581 96.7539 1
2 -7 5 151.392 122.997 2
-2 -7 5 54.2214 67.2464 1
-2 -7 5 316.479 181.525 2
-2 7 5 295.674 148.386 4
2 7 5 -168.727 192.843 3
2 7 6 30.4695 217.578 3
2 -7 6 183.596 139.972 1
-2 -7 6 -32.6097 72.6958 1
2 7 6 52.854 36.598 4
2 -7 6 123.605 121.909 2
2 7 7 338.035 261.107 3
2 7 8 106.063 152.618 3
3 0 -19 43.4338 61.7472 3
3 0 -18 107.237 84.8674 3
3 0 -17 29.0871 66.2479 3
-3 0 -16 9.413 55.2498 7
3 0 -16 46.6058 90.7432 3
-3 0 -15 -4.04956 64.3039 7
3 0 -15 21.6336 55.8267 3
-3 0 -14 -14.9745 54.7474 7
-3 0 -14 -76.9739 60.5209 6
3 0 -14 -4.35509 91.0417 3
-3 0 -13 25.8407 26.1095 6
-3 0 -13 191.169 99.0261 7
3 0 -13 166.963 114.888 3
-3 0 -12 6.84318 31.6892 7
-3 0 -12 8.9809 29.1275 6
3 0 -12 49.0905 62.4387 3
-3 0 -11 125.241 79.9943 7
3 0 -11 67.4758 88.3647 3
-3 0 -11 193.129 85.2611 6
3 0 -10 -2.56367 70.684 3
-3 0 -10 118.897 64.0556 6
-3 0 -10 -4.22378 31.767 7
-3 0 -9 29.5627 42.2443 6
3 0 -9 38.1877 68.2555 3
-3 0 -8 62.2239 46.5334 6
3 0 -8 84.1065 113.76 3
3 0 -7 55.6476 99.8147 3
-3 0 -7 16.7705 43.35 6
-3 0 -6 -73.0443 99.8512 6
3 0 -6 -9.46782 53.308 3
3 0 -5 -5.39856 74.2235 3
-3 0 -5 88.6559 91.8843 6
-3 0 -4 40.9778 57.4739 6
3 0 -4 -73.1033 97.0539 3
3 0 -3 152.793 153.904 3
-3 0 -3 -68.8951 80.7966 6
3 0 -2 -83.576 88.7226 3
-3 0 -2 -139.077 117.974 6
-3 0 -2 4.3388 14.0242 2
-3 0 -2 -18.2376 32.9029 4
3 0 -2 7.98639 18.5964 2
3 0 -1 140.421 98.0425 3
-3 0 -1 75.6393 75.7275 6
-3 0 -1 77.3721 78.577 4
3 0 -1 -8.84685 10.8754 2
3 0 0 179.655 124.776 3
-3 0 0 353.87 142.901 6
-3 0 0 -29.9265 239.423 5
3 0 0 92.5406 45.4304 4
-3 0 1 39.1427 75.698 6
-3 0 1 -40.8735 33.4455 4
3 0 1 2.59485 12.2316 4
3 0 2 1.10352 37.1816 8
3 0 2 17.6948 75.4096 3
3 0 2 -64.3206 215.693 5
-3 0 2 1.99345 24.1388 4
3 0 2 2.38731 12.4081 4
3 0 3 35.2203 94.8208 3
3 0 3 12.9662 29.511 8
-3 0 3 11.6401 33.5671 4
3 0 3 22.0789 12.1793 4
3 0 4 16.1043 40.9393 8
-3 0 4 30.2859 33.7033 4
3 0 5 19.55 29.145 8
-3 0 5 -20.9665 46.7499 4
3 0 6 -19.0788 23.1918 8
-3 0 6 -35.294 46.9887 4
-3 0 7 -49.6587 82.516 4
3 0 7 51.3927 50.205 8
3 0 8 -30.1309 35.0968 8
-3 0 8 86.6649 114.619 4
3 0 9 35.5801 35.1051 8
-3 0 9 21.4466 37.4219 4
3 0 10 29.724 30.6241 8
-3 0 10 -110.452 95.5471 4
3 0 11 148.349 72.849 8
-3 0 11 80.0064 42.7697 1
-3 0 11 7.86038 77.2499 4
-3 0 12 -47.979 92.9838 4
-3 0 12 -30.985 25.5247 1
-3 0 13 -2.51465 15.4903 1
-3 0 13 34.7758 140.328 4
-3 0 14 33.1602 94.373 4
-3 0 15 -72.3244 107.039 4
-3 0 16 1656.94 1087.22 5
-3 0 16 -11.3957 72.3914 4
-3 0 17 63.4097 104.207 4
-3 0 17 645.311 736.976 5
-3 0 18 -7.18594 83.3947 4
-3 0 19 -151.841 165.045 4
-3 0 20 9.82843 128.876 4
3 1 -19 979.359 249.024 3
3 1 -18 191.061 123.407 3
3 -1 -18 173.74 104.675 3
3 1 -17 171.513 124.807 3
3 -1 -17 158.026 120.88 3
3 -1 -16 926.328 224.737 3
3 1 -16 955.239 248.752 3
-3 1 -15 61.9377 42.7195 7
-3 -1 -15 -6.44972 35.484 7
3 1 -15 20.0512 78.3832 3
-3 -1 -14 565.091 146.139 7
3 1 -14 880.056 232.461 3
-3 1 -14 569.671 144.091 7
3 -1 -14 928.374 213.79 3
-3 1 -13 2298.7 198.867 6
3 -1 -13 3304.24 390.354 3
-3 1 -13 2582.93 306.177 7
-3 -1 -13 2528.44 244.91 6
3 1 -13 2908.44 439.914 3
-3 -1 -13 2978.25 317.244 7
3 -1 -12 2389.43 318.068 3
-3 1 -12 2045.88 265.675 7
-3 -1 -12 2023.94 244.858 7
-3 -1 -12 1675.55 192.546 6
-3 1 -12 1854.33 175.102 6
3 1 -12 2317.14 377.641 3
3 1 -11 3055.52 465.956 3
-3 -1 -11 3301.54 311.791 7
3 -1 -11 3561.75 388.602 3
-3 1 -11 2678.87 288.171 7
-3 -1 -11 3034.66 258.047 6
-3 1 -11 2567.62 220.323 6
3 -1 -10 1195.39 213.769 3
-3 1 -10 924.776 136.364 6
-3 -1 -10 1053.72 151.308 6
-3 -1 -10 1053.89 173.897 7
3 1 -10 1381.44 312.417 3
-3 1 -10 990.482 175.216 7
-3 -1 -9 460.929 105.913 6
-3 1 -9 361.865 85.4785 6
3 -1 -9 443.246 131.682 3
-3 1 -9 413.26 101.593 7
3 1 -9 333.408 184.209 3
-3 -1 -8 5726.26 371.728 6
-3 1 -8 4675.35 379.604 6
3 -1 -8 5822.76 472.418 3
3 1 -8 4974 629.179 3
3 1 -7 2385.29 450.405 3
-3 -1 -7 2363.63 237.832 6
-3 1 -7 2507.45 294.466 6
3 -1 -7 2840.92 321.634 3
3 -1 -6 28659.5 1179.41 3
-3 1 -6 24532.2 1111.48 6
-3 -1 -6 24560.7 1001.22 6
3 1 -6 25965.6 1540.68 3
3 -1 -5 1387.11 225.753 3
-3 -1 -5 1146.88 177.74 6
-3 1 -5 1405 231.924 6
-3 1 -5 1184.52 62.6823 4
-3 -1 -5 1263.17 177.793 2
3 1 -5 1582.89 378.906 3
-3 1 -4 3183.26 222.434 2
3 -1 -4 2637.81 299.607 3
-3 -1 -4 2794.04 292.934 6
3 1 -4 2956.81 483.213 3
-3 1 -4 2820.05 345.963 6
-3 1 -4 2693.04 124.837 4
-3 -1 -4 2462.03 246.608 2
-3 -1 -3 117.606 124.002 6
-3 -1 -3 65.9164 30.7865 2
-3 1 -3 8.2246 84.7099 6
-3 1 -3 41.1534 21.1158 2
3 -1 -3 -11.6829 57.068 3
-3 1 -3 22.8103 11.7398 4
-3 1 -2 2018.03 283.679 6
-3 -1 -2 2153.13 282.774 6
3 -1 -2 1773.34 251.35 3
-3 1 -2 1820.11 141.495 2
3 1 -2 2218.11 412.05 3
-3 1 -2 1897.92 123.205 4
3 -1 -2 2004.37 231.804 8
-3 -1 -2 1757.69 195.399 2
3 1 -1 9022.8 496.967 2
3 -1 -1 8101.52 551.913 3
-3 -1 -1 11794.1 675.629 6
-3 1 -1 8364.88 331.485 4
-3 -1 -1 8776.94 458.546 2
-3 1 -1 7068.25 276.656 2
3 -1 -1 8072.82 349.215 2
-3 1 -1 9057.05 565.271 3
-3 1 -1 12791.8 830.156 6
3 1 -1 9081.21 828.936 3
3 -1 -1 9271.86 516.604 8
-3 -1 0 187887 4555.42 6
-3 -1 0 157925 4101.71 2
3 -1 0 174339 4243.06 8
3 -1 0 141311 3861.69 2
-3 1 0 151102 3922.49 4
3 1 0 160438 4169.04 2
3 1 0 179669 4982.52 3
-3 1 0 152562 4350.04 3
3 -1 0 161281 4349.38 3
-3 -1 1 8523.44 582.589 6
-3 1 1 8189.27 370.154 4
-3 -1 1 9168.94 465.133 2
3 -1 1 8202.86 364.523 4
3 1 1 8898.03 463.17 2
3 1 1 9629.66 778.295 3
3 -1 1 9490.72 601.464 3
3 -1 1 9047.69 498.709 8
-3 -1 2 1803.49 261.835 6
-3 1 2 1832.66 159.475 4
3 -1 2 1778.01 137.427 4
3 1 2 1984.77 195.873 2
-3 -1 2 522.324 144.127 5
3 1 2 2207.18 361.858 3
3 -1 2 1982.36 257.003 3
3 -1 2 2058.5 216.823 8
3 -1 3 30.6658 29.9563 8
3 1 3 136.406 134.692 3
3 -1 3 7.37823 31.1467 3
-3 -1 3 128.924 105.428 6
-3 1 3 52.6587 30.237 4
-3 -1 4 2450.71 294.781 6
3 -1 4 2780.7 171.583 3
-3 1 4 2859.66 222.957 4
3 -1 4 3144.72 278.705 8
3 -1 4 2700.34 304.925 3
3 -1 5 1272.45 111.052 3
3 -1 5 1426.75 181.587 8
-3 -1 5 937.037 186.814 6
3 1 5 1125.99 166.516 8
3 -1 5 1291.48 759.177 5
-3 -1 5 747.294 229.012 4
-3 1 5 1384.5 159.101 4
3 1 5 678.038 398.517 5
3 -1 6 26930.4 980.122 8
3 -1 6 26647.9 2938.46 5
3 1 6 13548.9 1824.19 5
-3 -1 6 16637.2 1233.54 4
-3 1 6 28400 960.308 4
3 1 6 23193.8 943.132 8
3 -1 7 2395.2 242.156 8
3 1 7 2318.88 223.753 8
3 -1 7 852.369 843.307 5
-3 1 7 2625.73 247.707 4
3 1 7 2530.85 157.607 4
-3 -1 7 1489.48 323.84 4
3 -1 7 2571.54 282.331 1
3 1 7 1229.93 705.827 5
3 -1 8 5022.36 363.309 8
3 1 8 5302.98 239.174 4
-3 -1 8 3153.68 508.769 4
-3 1 8 5375.34 384.933 4
3 -1 8 5681.76 432.723 1
3 1 8 5170.82 351.52 8
3 -1 9 411.045 102.952 8
3 1 9 372.316 90.9042 8
3 1 9 1035.09 703.556 5
3 1 9 468.986 61.0216 4
3 -1 9 581.651 139.021 1
-3 -1 9 167.246 103.742 4
-3 1 9 469.16 118.253 4
3 1 10 885.319 128.278 8
-3 -1 10 1932.15 874.184 5
3 1 10 158.933 571.245 5
-3 1 10 1126.42 189.999 4
-3 -1 10 951.089 131.2 1
3 1 10 1202.24 106.649 4
3 -1 10 1100.93 172.016 8
-3 -1 10 385.216 166.167 4
3 -1 10 1230.28 210.356 1
3 -1 11 2990.28 293.044 8
3 1 11 3170.55 251.989 8
3 1 11 1816.6 1021.6 5
-3 -1 11 878.034 703.141 5
-3 -1 11 2627.28 218.911 1
-3 1 11 2973.33 329.705 4
-3 1 11 2067.43 161.13 1
-3 -1 11 1050.17 326.904 4
3 -1 11 2996.57 340.682 1
3 1 12 1821.4 183.991 8
-3 -1 12 1396.32 175.119 1
3 1 12 407.211 439.659 5
-3 -1 12 2237.81 744.273 5
-3 1 12 1883.41 289.407 4
-3 -1 12 790.701 300.439 4
3 -1 12 2222.59 302.507 1
-3 -1 13 1872.43 776.162 5
-3 1 13 2163.74 319.67 4
-3 -1 13 2082.49 215.137 1
-3 -1 13 759.494 288.055 4
-3 -1 14 841.909 710.624 5
-3 1 14 563.514 187.258 4
-3 -1 14 481.937 100.822 1
-3 -1 15 -14.7592 18.8208 1
-3 1 15 43.4891 108.16 4
-3 1 16 336.386 155.322 4
-3 1 17 93.7715 88.1702 4
-3 1 18 503.333 249.033 4
-3 1 19 1371.23 1315.25 5
-3 1 19 859.205 326.803 4
-3 1 20 39.4247 110.365 4
3 2 -18 211.887 120.399 3
3 -2 -18 300.42 148.86 3
3 2 -17 139.888 119.111 3
3 -2 -17 117.503 91.7121 3
3 2 -16 53.6187 60.6245 3
3 -2 -16 14.0865 34.7686 3
-3 -2 -15 36.3737 31.1448 7
-3 2 -15 -28.1563 52.3089 7
3 2 -15 -79.4155 67.2374 3
3 -2 -15 124.533 88.2157 3
-3 2 -14 562.082 156.815 7
-3 -2 -14 588.389 133.331 7
3 2 -14 938.675 264.265 3
3 -2 -14 678.63 178.42 3
3 2 -13 7202.94 728.039 3
3 -2 -13 6639.3 553.975 3
-3 -2 -13 5696.69 439.448 7
-3 2 -13 5893.76 492.806 7
-3 -2 -12 157.65 119.413 2
-3 -2 -12 88.8011 48.9999 7
3 2 -12 219.524 153.57 3
-3 2 -12 58.4895 73.8596 7
3 -2 -12 166.703 82.1142 3
-3 -2 -12 -68.427 65.6901 6
-3 2 -11 543.375 136.315 7
-3 -2 -11 649.022 190.608 2
-3 2 -11 582.731 93.1654 6
3 2 -11 532.994 232.498 3
-3 -2 -11 529.201 115.593 6
3 -2 -11 969.634 193.572 3
-3 -2 -11 480.544 112.026 7
-3 -2 -10 72.8409 50.1663 7
-3 2 -10 29.4245 63.7122 7
-3 -2 -10 112.721 96.0044 2
-3 2 -10 80.5727 52.5619 6
3 2 -10 -160.413 78.9167 3
3 -2 -10 146.99 81.2762 3
3 -2 -10 68.7452 36.85 8
-3 -2 -10 86.8767 52.7026 6
3 -2 -9 483.948 110.173 8
-3 -2 -9 487.027 161.681 2
-3 2 -9 556.247 125.24 7
-3 -2 -9 599.115 114.684 6
-3 2 -9 438.23 105.677 6
3 2 -9 625.413 233.408 3
3 -2 -9 663.75 153.856 3
-3 2 -8 12842.4 669.744 7
-3 -2 -8 15319 660.895 6
3 -2 -8 15762.4 744.367 3
-3 2 -8 13652.9 726.707 6
3 2 -8 14220.2 1179.22 3
-3 -2 -8 12411 815.038 2
3 -2 -8 12945.2 641.36 8
3 -2 -7 4624.57 358.352 3
-3 2 -7 4078.67 385.224 6
3 -2 -7 3841.33 312.609 8
3 2 -7 4428.41 671.01 3
-3 -2 -7 5099.18 341.755 6
-3 -2 -7 4160.6 426.706 2
-3 2 -6 5101.17 452.759 6
-3 -2 -6 5889.05 375.513 6
3 2 -6 5553.37 722.251 3
3 -2 -6 4516.35 340.582 8
3 -2 -6 5577.37 379.166 3
-3 -2 -6 4422.36 434.691 2
3 -2 -5 2314.55 235.897 8
3 -2 -5 2889.33 249.501 3
3 2 -5 3137.17 542.634 3
-3 -2 -5 3206.03 277.754 6
-3 2 -5 2882 344.579 6
-3 2 -5 2135.71 162.018 4
3 -2 -5 2808.85 311.177 2
-3 -2 -5 2311.47 296.607 2
3 -2 -4 5587.76 342.483 3
-3 2 -4 5363.04 477.795 6
3 -2 -4 5047.15 348.275 8
-3 -2 -4 5685.47 383.994 6
-3 2 -4 4619.56 262.444 4
3 -2 -4 5896.16 438.619 2
-3 -2 -4 4945.92 443.896 2
3 2 -4 5976.62 741.262 3
-3 -2 -3 4626.77 353.133 6
3 -2 -3 4536.57 331.39 8
-3 2 -3 4078.87 246.727 4
-3 2 -3 4559.26 434.25 6
3 -2 -3 4574.66 295.54 3
3 -2 -3 4162.45 356.035 2
-3 -2 -3 4361.88 403.045 2
3 2 -3 5823.27 722.336 3
3 -2 -2 17841.4 641.835 3
-3 -2 -2 18167.6 794.998 6
-3 2 -2 16074.5 612.381 4
3 -2 -2 17835.7 802.337 2
3 2 -2 18712.8 1311.28 3
-3 -2 -2 16258.8 850.011 2
3 -2 -2 16376.8 719.401 8
-3 -2 -1 11351.8 668.526 2
3 -2 -1 11635.6 443.614 3
-3 2 -1 10967.9 468.017 4
-3 -2 -1 16876 774.973 6
3 -2 -1 12653.4 588.929 8
3 2 -1 4165.73 512.896 5
-3 2 -1 10929.3 545.775 2
3 -2 -1 11091.2 580.889 2
-3 2 -1 9203.64 487.405 3
3 2 -1 11397.9 971.381 3
-3 -2 0 189763 4769.25 6
-3 2 0 167081 4455.25 4
3 -2 0 173122 4612.54 2
3 -2 0 182993 4361.63 3
-3 -2 0 176033 4826.49 2
-3 2 0 167845 4541.55 2
3 2 0 179709 5591.99 3
-3 2 0 162447 4652.91 3
3 -2 1 11128.5 531.446 2
-3 -2 1 11951.3 665.073 2
-3 2 1 9121.44 578.391 3
-3 -2 1 11702.6 644.233 6
-3 2 1 10488.3 474.63 4
3 -2 1 11388.7 360.63 3
3 2 1 10083.8 947.701 3
3 -2 1 14178.7 650.814 8
3 -2 2 16197.7 669.477 2
-3 -2 2 18427.7 871.041 2
-3 2 2 15454.3 647.331 4
-3 -2 2 16963.6 828.795 6
3 2 2 17340.6 1227.95 3
3 -2 2 18564.8 814.126 1
3 -2 2 20018.8 802.229 8
-3 -2 3 4828.46 398.462 2
-3 -2 3 4528.73 384.998 6
-3 2 3 4519.42 297.941 4
3 2 3 4335.62 569.65 3
3 -2 3 5373.25 392.672 1
3 -2 3 4973.11 360.197 8
3 -2 4 5639.13 387.561 8
-3 2 4 5285.18 335.376 4
-3 -2 4 5285.03 417.185 6
3 -2 4 6717.01 455.087 1
-3 -2 5 2698.27 296.747 6
-3 2 5 2493.97 232.512 4
3 -2 5 2896.73 292.222 1
3 -2 5 2841.08 264.211 8
3 -2 6 4952.62 344.692 8
-3 -2 6 4182.47 374.508 6
3 -2 6 3675.97 242.25 3
3 -2 6 5542.51 419.379 1
-3 2 6 4786.53 334.48 4
3 -2 6 3476.28 290.786 3
3 -2 7 4325.56 328.99 8
3 2 7 4112.41 328.043 8
3 -2 7 5000.42 412.76 1
-3 -2 7 3864.42 354.389 6
-3 2 7 4233.18 328.952 4
3 -2 7 3569.5 278.58 3
3 -2 8 14050.5 668.67 8
-3 -2 8 11872.3 671.622 6
3 2 8 11787.7 586.504 8
-3 2 8 13325.1 659.082 4
-3 -2 8 15142.9 614.151 1
3 2 8 13981 594.092 4
3 -2 8 15662.7 778.337 1
3 2 9 531.928 98.4792 8
-3 -2 9 422.419 115.941 6
-3 -2 9 518.431 109.046 1
3 2 9 559.716 97.6264 4
-3 2 9 598.5 127.311 4
3 -2 9 583.283 147.807 1
3 -2 9 546.56 131.318 8
-3 -2 10 60.498 56.3059 6
3 -2 10 -10.5313 530.398 5
-3 2 10 152.772 73.2652 4
3 -2 10 118.219 62.5174 1
3 2 10 140.48 45.9307 4
-3 -2 10 124.557 51.8353 1
3 2 10 58.8412 26.0198 8
3 2 11 1403.44 934.541 5
3 -2 11 753.531 732.45 5
3 2 11 650.648 103.744 4
-3 2 11 608.042 140.657 4
3 -2 11 498.305 144.663 1
-3 -2 11 585.944 116.683 1
-3 -2 12 72.2347 43.0613 1
3 -2 12 1122.32 846.138 5
3 2 12 1484.3 1083.88 5
-3 2 12 103.375 72.2298 4
3 -2 12 82.646 55.7371 1
3 -2 13 6826.7 576.805 1
-3 -2 13 5102.72 396.955 1
3 -2 13 3481.63 1594.01 5
3 2 13 3533.98 1417.44 5
-3 2 13 6258.44 504.932 4
-3 -2 14 613.095 136.811 1
3 -2 14 517.819 753.134 5
3 2 14 698.863 826.681 5
3 -2 14 910.851 211.764 1
-3 2 14 892.139 202.765 4
-3 -2 15 57.8545 51.0073 1
3 -2 15 -7.21249 546.703 5
3 -2 15 22.3545 50.4525 1
-3 2 15 -30.3694 60.8522 4
-3 -2 16 80.2462 62.5994 1
3 -2 16 57.989 43.5826 1
-3 2 16 -9.57222 29.6504 4
3 -2 17 241.03 931.085 5
3 -2 17 50.8989 68.22 1
3 -2 18 900.388 973.535 5
-3 2 18 183.157 123.466 4
-3 2 19 1195.44 328.756 4
3 3 -18 -51.79 79.6004 3
-3 -3 -17 190.988 176.474 2
3 3 -17 127.41 96.4633 3
3 -3 -17 74.7248 55.5643 3
-3 -3 -16 337.372 206.62 2
3 3 -16 199.541 129.621 3
3 -3 -16 233.435 134.179 3
-3 -3 -15 270.106 181.032 2
3 3 -15 349.392 157.794 3
3 -3 -15 464.931 162.321 3
3 3 -14 409.388 201.497 3
-3 -3 -14 167.871 143.755 2
3 -3 -14 129.502 91.586 3
-3 3 -13 904.174 196.482 7
-3 -3 -13 823.189 253.318 2
3 3 -13 1043.39 302.119 3
3 -3 -13 991.626 212.752 3
3 -3 -12 269.06 192.269 2
-3 3 -12 124.648 94.0947 7
-3 -3 -12 -101.102 118.728 2
3 -3 -12 116.032 61.8837 3
3 3 -12 286.276 181.183 3
3 3 -11 5597.41 748.118 3
-3 -3 -11 6085.74 397.976 7
-3 3 -11 5287.29 454.082 7
3 -3 -11 6220.25 510.924 3
3 -3 -11 6634.26 710.344 2
-3 -3 -11 5463.85 633.264 2
3 -3 -10 2783.67 317.544 3
-3 3 -10 2298.21 280.515 7
-3 -3 -10 2262.42 251.816 6
3 3 -10 2723.66 547.397 3
-3 -3 -10 2557.53 245.108 7
3 -3 -10 2982.89 457.954 2
-3 -3 -10 2421.61 412.455 2
3 -3 -9 678.502 238.312 2
-3 3 -9 474.043 115.208 7
-3 -3 -9 437.837 105.945 6
-3 -3 -9 605.383 210.497 2
3 3 -9 416.83 196.982 3
3 -3 -9 563.766 140.133 3
-3 3 -8 1917.48 234.213 7
-3 -3 -8 1856.45 211.397 6
3 -3 -8 1828.1 169.033 8
3 3 -8 1954.68 495.819 3
-3 3 -8 1436.33 212.425 6
3 -3 -8 1945.57 344.307 2
-3 -3 -8 1773.89 324.221 2
3 -3 -8 1861.92 232.183 3
-3 -3 -7 2065.93 218.661 6
-3 3 -7 1475.16 237.283 6
3 3 -7 1672.21 446.892 3
-3 3 -7 1700.25 213.394 7
3 -3 -7 1983.36 227.344 3
3 -3 -7 1826.15 317.872 2
-3 -3 -7 1603.99 304.548 2
3 -3 -7 2052.44 185.26 8
3 -3 -6 -43.2679 60.1775 2
-3 -3 -6 68.9598 20.0515 6
-3 -3 -6 -49.3865 49.1733 2
-3 3 -6 9.10445 29.9053 6
-3 3 -6 22.4742 27.3613 7
3 -3 -6 36.4747 33.7118 8
3 -3 -6 0.37232 33.0141 3
3 -3 -5 198.558 61.4731 8
-3 -3 -5 315.542 76.84 6
-3 -3 -5 255.319 132.385 2
3 3 -5 186.513 135.949 3
-3 3 -5 230.683 107.797 6
-3 3 -5 249.558 74.0042 7
3 -3 -5 248.979 71.99 3
3 -3 -5 224.142 117.024 2
3 -3 -4 878.855 128.288 3
3 -3 -4 859.527 133.279 8
3 -3 -4 789.778 198.077 2
3 3 -4 975.829 296.953 3
-3 -3 -4 1004.32 140.159 6
-3 -3 -4 597.434 156.544 2
-3 3 -4 485.807 145.174 6
3 -3 -3 3926.55 293.388 8
3 -3 -3 3611.88 253.507 3
-3 -3 -3 4488.08 305.415 6
-3 3 -3 3228 268.643 4
3 -3 -3 3705.01 420.895 2
-3 -3 -3 3830.92 439.148 2
3 3 -3 4572.73 673.325 3
3 -3 -2 2788.84 203.162 3
-3 -3 -2 3184.46 247.907 6
3 -3 -2 3281.5 266.729 8
-3 3 -2 2422.37 230.349 4
-3 -3 -2 2657.18 361.854 2
3 -3 -2 2833.68 346.565 2
3 3 -2 3022.25 544.651 3
3 3 -1 169.234 127.333 3
3 -3 -1 196.926 69.2895 8
-3 3 -1 174.857 63.3583 4
-3 -3 -1 413.471 92.4694 6
-3 3 -1 105.363 39.75 3
3 -3 -1 234.031 103.889 2
-3 -3 -1 141.862 85.0125 2
3 -3 -1 167.295 42.3601 3
-3 -3 0 2974.11 245.665 6
3 -3 0 2566.01 310.774 2
3 3 0 2084.46 445.974 3
3 -3 0 2963.29 257.845 8
-3 3 0 2540.06 243.571 4
3 -3 0 2809.07 299.184 1
-3 -3 0 2376.37 335.45 2
-3 3 0 2041.67 214.428 3
3 -3 1 196.634 90.3311 8
3 3 1 -28.8032 131.473 3
-3 -3 1 399.527 106.179 6
3 -3 1 90.6727 54.6591 2
-3 -3 1 129.157 66.3064 2
3 -3 1 247.104 103.871 1
-3 3 1 60.9503 36.3228 4
3 -3 2 2752.46 255.292 8
-3 -3 2 2938.94 362.817 2
3 -3 2 2996.43 300.774 1
3 -3 2 2390.67 274.24 2
-3 -3 2 2836.72 233.124 6
-3 3 2 2726.15 253.666 4
3 3 2 2593.72 496.721 3
-3 -3 3 3777.32 412.099 2
-3 -3 3 3422.39 258.247 6
3 -3 3 4336.36 370.708 1
3 -3 3 3538.51 302.679 8
-3 3 3 3382.83 287.592 4
3 -3 3 3639.31 334.469 2
3 3 3 3557.93 565.542 3
-3 -3 4 750.501 110.802 6
3 -3 4 774.634 143.127 8
3 3 4 774.625 279.118 3
3 -3 4 935.002 176.077 1
-3 3 4 637.853 124.656 4
3 -3 4 949.576 164.017 2
-3 -3 4 807.064 187.546 2
-3 -3 5 243.905 70.3825 6
-3 -3 5 319.735 85.0281 1
-3 3 5 345.243 98.8332 4
3 -3 5 368.924 104.374 1
-3 -3 5 414.249 152.681 2
3 -3 5 326.399 102.981 8
3 -3 6 107.214 65.359 8
-3 -3 6 -17.9204 23.6044 6
-3 -3 6 22.8178 31.3515 1
-3 3 6 -12.4977 25.9889 4
3 -3 6 -58.5541 36.6984 1
3 -3 7 1984.07 238.462 8
3 -3 7 2227.01 278.158 1
-3 -3 7 1340.86 143.755 6
-3 -3 7 1901.69 205.387 1
-3 3 7 1638.34 217.057 4
3 -3 8 1920.18 271.593 1
3 3 8 1804.29 233.02 4
3 3 8 1975.3 216.044 8
-3 -3 8 1687.09 205.93 1
-3 3 8 1804.5 234.036 4
-3 -3 9 538.621 120.943 1
-3 3 9 496.307 125.248 4
3 3 9 584.259 130.547 4
3 -3 9 617.118 149.685 1
3 -3 10 2644.95 353.225 1
-3 -3 10 2598.88 267.336 1
-3 3 10 2382.4 283.992 4
3 3 10 2866.27 285.506 4
-3 -3 11 5102.51 405.815 1
3 -3 11 6424.58 557.045 1
-3 3 11 5993.03 474.907 4
3 3 11 6481.24 434.635 4
-3 3 12 177.923 91.4963 4
3 -3 12 131.923 112.091 1
-3 -3 12 9.71505 29.5388 1
-3 3 13 1036.61 203.684 4
-3 -3 13 716.137 159.027 1
3 -3 13 1209.65 257.529 1
-3 -3 14 182.957 88.3257 1
-3 3 14 233.453 106.156 4
3 -3 14 337.97 143.607 1
-3 -3 15 511.943 145.857 1
-3 3 15 408.846 138.924 4
3 -3 15 322.327 159.055 1
-3 -3 16 261.914 114.199 1
3 3 16 959.894 1070.91 5
-3 3 16 259.059 117.705 4
3 -3 16 214.448 136.185 1
3 -3 17 132.204 109.05 1
-3 3 17 135.611 92.0653 4
-3 -3 17 82.9188 63.8974 1
3 -3 18 -37.8081 93.3303 1
-3 3 18 144.29 116.285 4
3 -4 -16 59.5229 77.4477 2
3 -4 -15 204.244 139.795 2
-3 -4 -15 321.025 210.591 2
3 4 -15 37.4423 70.9768 3
3 -4 -15 191.638 108.928 3
-3 -4 -14 268.872 177.789 2
3 -4 -14 193.927 202.579 2
3 4 -14 208.917 122.587 3
3 -4 -14 243.646 123.826 3
3 -4 -13 1530.59 300.415 3
3 -4 -13 1471.3 397.959 2
3 4 -13 1291.95 381.32 3
-3 -4 -13 1302.37 361.361 2
3 -4 -12 240.779 154.116 2
-3 -4 -12 255.975 150.907 2
3 -4 -12 770.388 218.062 3
3 4 -12 386.857 214.602 3
-3 4 -11 4.49788 26.4119 7
3 -4 -11 148.386 190.969 2
-3 -4 -11 74.9715 137.193 2
3 4 -11 55.961 117.233 3
3 -4 -11 16.9823 35.5591 3
-3 4 -10 244.628 104.512 7
-3 -4 -10 378.522 223.603 2
3 4 -10 261.35 157.462 3
3 -4 -10 294.264 166.357 2
3 -4 -10 337.323 122.861 3
-3 4 -9 1978.68 259.399 7
3 4 -9 2053.19 491.745 3
3 -4 -9 2294.12 301.152 3
3 -4 -9 2483.52 444.259 2
-3 -4 -9 2021.36 403.947 2
-3 -4 -8 346.624 170.839 2
3 -4 -8 162.448 100.161 2
3 4 -8 735.691 360.492 3
-3 4 -8 341.952 105.994 7
3 -4 -8 266.564 104.182 3
3 -4 -7 1131.27 289.614 2
-3 4 -7 860.625 157.785 7
-3 -4 -7 882.285 249.168 2
3 4 -7 1014.6 372.199 3
3 -4 -7 787.704 161.844 3
3 -4 -6 4766.8 292.676 8
3 -4 -6 4603.1 383.761 3
-3 4 -6 3972.86 331.964 7
-3 -4 -6 4168.52 331.672 6
3 4 -6 4601.77 765.841 3
-3 4 -6 3772.52 418.145 6
3 -4 -6 3751.32 515.351 2
-3 -4 -6 3910.96 530.068 2
-3 -4 -6 3959.81 254.133 1
-3 4 -5 321.245 101.277 7
-3 -4 -5 290.733 79.0612 6
3 4 -5 73.5548 126.902 3
3 -4 -5 208.779 136.137 2
-3 4 -5 339.102 135.979 6
3 -4 -5 358.027 84.6057 8
-3 -4 -5 341.901 73.5115 1
3 -4 -5 212.407 73.668 3
-3 -4 -5 104.145 73.0291 2
-3 4 -4 2775.13 250.369 7
-3 -4 -4 3183.14 275.416 6
3 -4 -4 3201.75 253.429 8
-3 -4 -4 3046.08 230.574 1
3 -4 -4 3104.63 450.944 2
-3 -4 -4 2582.33 417.814 2
3 4 -4 3137.09 639.902 3
3 -4 -3 6790.29 394.428 8
-3 -4 -3 6565.73 393.729 6
-3 4 -3 5920.79 373.476 7
-3 -4 -3 5720.84 629.647 2
-3 -4 -3 6322.9 351.346 1
3 -4 -3 6186.45 616.336 2
3 4 -3 5430.77 792.458 3
-3 -4 -2 377.167 89.3694 1
3 -4 -2 309.096 86.7827 8
-3 -4 -2 307.095 81.8511 6
3 -4 -2 241.851 110.003 2
-3 -4 -2 249.938 128.908 2
-3 4 -2 276.621 72.3188 7
3 4 -2 234.882 170.617 3
-3 4 -2 241.469 81.2162 4
3 -4 -1 1463.87 184.754 8
-3 -4 -1 1520.44 165.388 6
3 4 -1 962.808 327.746 3
3 -4 -1 1039.26 237.935 2
-3 -4 -1 1060.55 257.673 2
-3 -4 -1 1199.34 150.527 1
-3 4 -1 1120.15 184.993 4
-3 4 -1 1075.66 142.814 7
3 -4 -1 1273.05 218.53 1
3 -4 0 3655.4 360.411 1
-3 -4 0 3368.44 247.626 6
3 -4 0 3717.71 300.73 8
-3 -4 0 3058.94 428.347 2
-3 -4 0 3546.11 267.495 1
-3 4 0 2954.28 303.399 4
3 4 0 3299.57 594.462 3
3 -4 0 2926.01 388.995 2
-3 -4 1 1290.1 139.716 6
3 4 1 1068.83 319.836 3
3 -4 1 1455.76 189.524 8
-3 -4 1 1274.12 162.69 1
3 -4 1 1533.95 231.295 1
-3 4 1 1119.67 184.576 4
3 -4 1 1088.08 231.052 2
-3 -4 1 1162.91 254.353 2
3 4 2 231.594 140.229 3
-3 -4 2 299.032 71.4914 6
3 -4 2 448.924 131.929 8
3 -4 2 217.321 85.2629 2
-3 -4 2 263.207 114.903 2
3 -4 2 253.891 109.1 1
-3 4 2 246.627 91.4166 4
-3 -4 2 506.466 108.508 1
-3 -4 3 6089 592.308 2
3 -4 3 7147.07 531.258 1
3 -4 3 5809.25 515.841 2
-3 -4 3 6298.11 322.671 6
-3 -4 3 7028.6 419.622 1
-3 4 3 6473.85 468.536 4
3 4 3 4641.04 722.033 3
3 -4 4 3273.96 358.992 1
-3 -4 4 2884.94 401.357 2
-3 -4 4 3063.27 201.205 6
3 -4 4 3069.16 355.252 2
-3 -4 4 3201.26 281.963 1
-3 4 4 3281.08 327.673 4
3 4 4 2569.01 548.303 3
3 4 5 258.655 204.844 3
-3 -4 5 230.163 47.8588 6
-3 4 5 257.786 94.1527 4
-3 -4 5 292.03 96.5758 1
-3 -4 5 359.867 150.88 2
3 -4 5 430.984 131.967 1
3 -4 5 272.901 114.256 2
-3 -4 6 4536.11 360.451 1
-3 4 6 4611.64 401.112 4
3 -4 6 5189.94 475.986 1
3 4 6 4133.04 687.932 3
-3 -4 7 883.401 160.116 1
-3 4 7 1048.35 193.734 4
3 -4 7 875.545 201.763 1
-3 -4 8 265.77 85.8768 1
-3 4 8 263.389 93.5109 4
3 -4 8 440.628 156.614 1
-3 -4 9 1964.33 248.307 1
-3 4 9 2018.38 278.922 4
3 -4 9 2218.84 334.237 1
3 4 9 2187.21 295.857 4
-3 4 10 148.809 78.2454 4
-3 -4 10 262.621 88.6945 1
3 4 10 286.006 109.171 4
3 -4 10 317.745 121.765 1
-3 -4 11 -36.7861 42.318 1
-3 4 11 98.164 68.8034 4
3 4 11 16.6315 54.9662 4
3 -4 11 15.0372 43.4036 1
-3 -4 12 243.212 101.839 1
-3 4 12 333.908 118.351 4
3 -4 12 282.208 139.127 1
-3 -4 13 1107.83 219.205 1
-3 4 13 1360.62 244.424 4
3 -4 13 1281.98 279.018 1
-3 -4 14 175.364 99.1129 1
-3 4 14 232.484 106.031 4
3 -4 14 351.303 163.972 1
-3 -4 15 138.118 80.7631 1
-3 4 15 85.155 70.7394 4
3 -4 15 104.59 92.6869 1
-3 -4 16 49.0462 52.0608 1
-3 4 16 46.3493 75.1082 4
3 -4 16 34.1236 84.0843 1
3 -5 -14 153.658 196.496 2
3 -5 -13 61.7549 148.813 2
-3 -5 -13 317.534 212.487 2
-3 -5 -12 21.4687 93.4795 2
3 -5 -12 258.338 228.86 2
3 -5 -11 1220.49 368.706 2
3 5 -11 1290.45 392.262 3
-3 -5 -11 867.887 312.233 2
3 -5 -10 219.813 127.804 2
-3 -5 -10 272.881 199.024 2
3 5 -10 8.83496 116.22 3
-3 -5 -9 1868.54 430.297 2
3 -5 -9 1476.16 399.638 2
3 5 -9 2156.05 539.099 3
-3 -5 -8 336.719 182.043 2
3 5 -8 487.148 264.147 3
3 -5 -8 755.475 270.455 2
3 5 -7 306.878 235.019 3
-3 -5 -7 238.762 146.468 2
3 -5 -7 268.002 185.142 2
-3 -5 -6 1712.85 387.298 2
-3 5 -6 1947.53 237.387 7
3 5 -6 2527.74 611.82 3
3 -5 -6 2452.53 442.718 2
-3 5 -5 2020.56 232.248 7
3 5 -5 1755.52 495.143 3
3 -5 -5 2125.7 420.024 2
-3 -5 -5 1987.99 405.777 2
-3 -5 -4 171.861 60.921 1
-3 5 -4 272.66 85.2702 7
3 5 -4 209.016 170.222 3
-3 -5 -4 166.133 131.732 2
3 -5 -4 179.729 128.466 2
-3 -5 -3 17.0627 84.0497 2
-3 5 -3 74.3914 50.0398 7
-3 -5 -3 2.33504 40.9668 1
3 -5 -3 55.2859 71.0342 2
3 5 -3 -130.115 125.198 3
-3 5 -3 59.3607 53.0511 4
3 5 -2 696.865 277.852 3
-3 -5 -2 915.291 153.238 1
3 -5 -2 1019.38 265.742 2
-3 -5 -2 788.944 250.433 2
-3 5 -2 1097.53 210.254 4
3 -5 -2 1473.59 245.279 1
-3 -5 -1 2137.39 402.491 2
3 -5 -1 2519.26 419.829 2
3 -5 -1 3077.56 366.823 1
-3 -5 -1 2218.72 237.551 1
-3 5 -1 2675.19 328.397 4
3 5 -1 2120.13 521.566 3
-3 -5 0 6164.69 671.133 2
3 -5 0 7452.28 583.916 1
3 -5 0 6350.85 659.89 2
-3 -5 0 6115.28 417.269 1
-3 5 0 6402.91 520.088 4
3 5 0 5199.2 800.516 3
3 -5 1 3021.81 367.545 1
3 -5 1 2405.01 383.581 2
-3 -5 1 2236.88 391.226 2
3 5 1 2058.62 519.204 3
-3 -5 1 2165.98 244.335 1
-3 5 1 2412.22 314.317 4
3 -5 2 1533.38 275.893 1
3 5 2 769.695 306.577 3
-3 -5 2 1020.06 168.321 1
-3 -5 2 964.236 250.621 2
3 -5 2 1033.45 244.322 2
-3 5 2 962.179 201.067 4
-3 -5 3 43.1369 50.8993 1
3 5 3 -170.986 155.744 3
-3 -5 3 51.228 72.122 2
3 -5 3 112.222 95.772 2
-3 5 3 82.2458 76.1572 4
3 -5 3 61.8495 71.686 1
3 5 4 60.1609 164.409 3
-3 -5 4 166.716 75.4376 1
-3 -5 4 202.713 133.858 2
3 -5 4 126.305 65.2135 2
-3 5 4 147.312 67.6837 4
3 -5 4 213.194 129.183 1
3 -5 5 2655.67 358.856 1
-3 -5 5 2172.53 385.697 2
3 5 5 1538.34 474.367 3
-3 -5 5 2003.6 254.499 1
3 -5 5 2346.32 349.123 2
-3 5 5 2046.36 289.774 4
3 -5 6 2549.59 369.242 1
3 5 6 2110.9 529.217 3
-3 -5 6 2207.77 386.13 2
-3 -5 6 2110.31 275.369 1
-3 5 6 2112.69 299.398 4
3 5 7 430.1 272.235 3
-3 -5 7 435.262 128.906 1
-3 5 7 551.968 155.591 4
3 -5 7 697.205 196.098 1
3 5 8 398.733 321.522 3
-3 -5 8 559.143 148.372 1
-3 5 8 544.016 153.934 4
3 -5 8 949.84 231.671 1
-3 -5 9 1396.32 236.361 1
3 5 9 1399.09 271.312 4
-3 5 9 1222.67 238.147 4
3 -5 9 1515.42 296.76 1
-3 -5 10 292.856 114.327 1
-3 5 10 298.306 127.321 4
3 5 10 289.213 120.364 4
3 -5 10 369.88 155.374 1
-3 -5 11 1134.9 238.23 1
3 5 11 1435.89 265.334 4
-3 5 11 995.625 222.595 4
3 -5 11 1242.83 284.936 1
-3 -5 12 92.9025 87.9995 1
-3 5 12 73.6976 67.1959 4
3 -5 12 91.7147 89.9683 1
-3 -5 13 191.643 117.292 1
-3 5 13 165.483 97.3054 4
3 -5 13 269.283 139.144 1
3 -6 -11 133.064 127.852 2
3 -6 -10 -56.0376 126.779 2
-3 -6 -10 31.3059 55.7203 2
3 -6 -9 1221.78 393.454 2
-3 -6 -9 894.48 324.052 2
-3 -6 -8 2259.67 510.901 2
3 -6 -8 2675.95 547.88 2
3 -6 -7 492.669 249.799 2
-3 -6 -7 557.461 230.397 2
3 6 -6 3804.35 760.506 3
-3 -6 -6 4273.99 661.865 2
3 -6 -6 3952.19 644.891 2
3 6 -5 918.386 366.545 3
3 -6 -5 1207.82 359.791 2
-3 -6 -5 780.127 274.897 2
3 6 -4 244.862 256.929 3
3 -6 -4 516.449 209.176 2
-3 -6 -4 520.519 253.157 2
-3 6 -4 436.78 149.702 4
3 -6 -3 1286.84 349.153 2
-3 -6 -3 994.628 320.525 2
-3 6 -3 1002.36 224.421 4
3 6 -3 915.586 358.532 3
-3 -6 -2 48.8309 43.2374 1
3 -6 -2 194.178 134.673 2
-3 -6 -2 165.983 157.315 2
3 -6 -2 182.613 82.1984 1
-3 6 -2 98.7127 73.0404 4
3 6 -2 433.088 327.46 3
3 6 -1 264.126 210.904 3
3 -6 -1 -0.82034 87.3525 2
-3 -6 -1 200.229 164.468 2
-3 -6 -1 27.0404 23.7488 1
3 -6 -1 9.52557 32.5904 1
-3 6 -1 110.081 91.2183 4
3 6 0 243.931 288.854 3
-3 -6 0 255.324 89.0351 1
3 -6 0 103.41 57.5865 2
-3 -6 0 64.6277 43.3411 2
3 -6 0 415.235 153.543 1
-3 6 0 177.461 96.3332 4
3 6 1 -13.6328 86.5693 3
-3 -6 1 -50.6604 43.4669 1
3 -6 1 34.4214 43.2497 2
-3 -6 1 22.0649 98.0102 2
3 -6 1 93.0532 43.4051 1
-3 6 1 155.873 110.701 4
3 6 2 208.461 170.057 3
-3 -6 2 92.9584 66.8415 1
-3 -6 2 7.49868 51.8405 2
3 -6 2 105.209 109.007 2
3 -6 2 128.084 98.6541 1
-3 6 2 131.877 84.1275 4
3 6 3 835.936 361.05 3
-3 -6 3 1058.58 199.013 1
-3 -6 3 982.133 285.09 2
3 -6 3 1202.52 283.925 2
3 -6 3 1479.7 294.426 1
-3 6 3 1167.11 247.709 4
3 6 4 335.391 235.766 3
-3 -6 4 569.948 154.261 1
-3 -6 4 587.404 210.775 2
-3 6 4 462.878 151.958 4
3 -6 4 586.236 208.3 2
3 -6 4 715.657 199.963 1
3 6 5 843.755 376.287 3
-3 -6 5 994.116 208.215 1
-3 6 5 1022.78 231.68 4
-3 -6 5 943.872 281.864 2
3 -6 5 947.647 244.691 1
3 -6 5 1187.88 276.65 2
3 -6 6 4851.2 558.536 1
-3 -6 6 4132.35 575.825 2
-3 -6 6 4106.1 437.033 1
-3 6 6 4201.98 482.456 4
3 6 6 2558.64 656.936 3
3 6 7 473.898 296.613 3
-3 -6 7 509.812 162.265 1
-3 6 7 610.796 182.14 4
3 -6 7 865.582 246.229 1
3 -6 8 3239.94 475.799 1
3 6 8 2070.68 594.142 3
-3 -6 8 2446.46 357.522 1
-3 6 8 2896.33 395.623 4
3 6 8 2906.6 445.296 4
3 6 9 820.209 392.932 3
-3 -6 9 1193.24 252.081 1
-3 6 9 1021.46 242.969 4
3 6 9 1082.11 265.101 4
3 -6 9 1217.75 297.102 1
3 6 10 210.284 236.709 3
3 6 10 63.6054 74.634 4
3 6 11 184.652 104.54 4
3 -7 -7 438.681 245.869 2
3 -7 -6 -36.8871 101.671 2
-3 7 -6 -40.0173 27.4307 4
-3 7 -5 2982.06 435.855 4
3 -7 -5 3236.4 604.977 2
3 -7 -4 670.978 281.284 2
-3 7 -4 818.556 230.349 4
-3 -7 -3 2777.57 545.698 2
3 -7 -3 3246.69 594.171 2
-3 7 -3 3241.6 451.691 4
3 -7 -2 627.694 262.699 2
-3 -7 -2 677.84 281.057 2
-3 7 -2 635.967 206.897 4
3 -7 -1 304.472 166.316 2
-3 -7 -1 145.322 102.301 2
-3 7 -1 347.42 143.422 4
3 7 0 157.587 184.859 3
-3 -7 0 52.3221 56.1115 1
3 -7 0 -34.102 51.3686 2
-3 -7 0 -57.3162 80.9902 2
-3 7 0 139.932 111.691 4
-3 -7 1 224.232 104.323 1
3 7 1 42.2287 89.884 3
3 -7 1 446.689 174.339 1
-3 -7 1 219.275 127.917 2
3 -7 1 36.4875 36.911 2
-3 7 1 180.166 100.763 4
-3 -7 2 637.3 187.538 1
3 7 2 208.963 207.623 3
3 -7 2 1007.83 270.516 1
-3 -7 2 803.237 274.184 2
3 -7 2 459.545 207.299 2
-3 7 2 558.817 189.332 4
-3 -7 3 2812.05 507.709 2
3 7 3 2470.29 652.707 3
3 -7 3 3198.16 512.563 2
-3 -7 3 3271.05 406.929 1
-3 7 3 3458.44 476.475 4
3 -7 3 3572.74 496.9 1
-3 -7 4 1176.03 246.142 1
3 7 4 572.04 305.787 3
3 -7 4 1100.86 286.177 1
3 -7 4 993.991 288.567 2
3 -7 5 3804.41 540.136 1
3 7 5 2503.86 695.463 3
3 -7 5 3220.26 491.202 2
-3 -7 5 3250.87 421.839 1
3 7 6 -92.8429 79.6064 3
4 0 -18 42.9658 70.3738 3
-4 0 -17 156.761 85.5855 7
4 0 -17 332.223 149.542 3
-4 0 -16 139.546 75.6891 7
4 0 -16 32.9747 82.9709 3
-4 0 -15 419.088 132.659 7
-4 0 -15 264.18 75.7452 6
4 0 -15 724.846 217.174 3
-4 0 -14 1086.89 216.273 7
4 0 -14 1424.69 295.52 3
-4 0 -14 899.535 146.291 6
4 0 -13 15185.9 1020.22 3
-4 0 -13 12633.1 757.391 7
-4 0 -13 11896.9 609.21 6
-4 0 -12 7736.95 572.291 7
-4 0 -12 8572.31 495.188 6
4 0 -12 9549.8 807.504 3
4 0 -11 9632.72 818.9 3
-4 0 -11 8339.1 501.558 6
-4 0 -11 7890.94 560.53 7
4 0 -10 3677.01 515.326 3
-4 0 -10 3271.13 320.689 6
-4 0 -9 103.774 92.1561 6
4 0 -9 161.474 113.363 3
-4 0 -8 13727.1 795.323 6
4 0 -8 15929.5 1121.71 3
-4 0 -7 7172.18 563.67 6
4 0 -7 7207.09 746.124 3
4 0 -6 34261.2 1833.37 3
-4 0 -6 36556.5 1563 6
-4 0 -5 11818.8 797.35 6
4 0 -5 10818.8 946.154 3
-4 0 -4 1.82753 10.1793 2
-4 0 -4 -115.82 119.66 6
4 0 -4 13.1621 66.4399 3
-4 0 -3 3505.43 431.297 6
-4 0 -3 2845.83 190.357 2
4 0 -3 2920.35 209.118 2
4 0 -3 3608.23 523.03 3
4 0 -2 5366.58 288.712 2
-4 0 -2 6640.36 603.252 6
-4 0 -2 4773.88 420.091 4
4 0 -2 5540.06 646.821 3
-4 0 -2 5110.54 225.957 2
4 0 -1 10.9962 91.3702 3
-4 0 -1 11.3752 58.0734 6
4 0 -1 12.1833 15.6429 2
-4 0 -1 -43.6643 61.3242 4
-4 0 0 3221.14 405.49 6
-4 0 0 3096.98 339.272 4
4 0 0 3444.05 491.869 3
4 0 1 -101.058 103.597 3
-4 0 1 37.7289 75.5377 6
-4 0 1 27.515 44.3495 4
-4 0 2 5605.83 548.685 6
-4 0 2 4889.95 461.25 4
4 0 2 6683.9 297.495 4
4 0 2 6665.99 672.561 3
4 0 2 5574.29 462.058 8
-4 0 3 2245.17 343.384 6
-4 0 3 2845.3 343.316 4
4 0 3 3763.33 191.309 4
4 0 3 3786.68 492.747 3
4 0 3 3212.22 335.272 8
4 0 4 -17.0998 58.3638 3
4 0 4 -51.0059 61.0331 8
4 0 4 11.8185 434.927 5
-4 0 4 -11.9282 62.7849 4
4 0 4 3.80709 4.9908 4
-4 0 5 9037.6 646.314 4
4 0 5 11614.5 887.042 3
4 0 5 9965.83 601.751 8
4 0 6 31750.1 1209.57 8
-4 0 6 28744.2 1343.87 4
4 0 6 31017.3 1577.46 3
4 0 7 6575.47 1487.91 5
-4 0 7 6237.47 560.413 4
4 0 7 7842.59 510.619 8
4 0 8 8247.92 1855.95 5
-4 0 8 12316.7 919.601 4
4 0 9 24.2234 35.3533 8
4 0 9 260.896 546.147 5
-4 0 9 104.531 78.4662 4
-4 0 10 2476.41 401.418 4
4 0 10 3321.8 309.937 8
4 0 11 7740.48 484.339 8
-4 0 11 6138.37 709.997 4
4 0 12 7456.12 477.482 8
-4 0 12 5403.35 708.675 4
-4 0 12 6344.78 363.189 1
-4 0 13 7920 879.95 4
-4 0 13 9567.5 481.894 1
-4 0 14 528.383 226.24 4
-4 0 15 208.62 150.321 4
4 0 16 785.025 1116.2 5
-4 0 16 23.7489 69.715 4
4 0 17 1260.88 1491.34 5
-4 0 17 173.288 223.784 4
-4 0 18 -79.2379 63.8557 4
-4 0 19 836.814 362.368 4
4 1 -18 240.351 165.544 3
-4 1 -17 513.795 166.298 7
-4 -1 -17 547.764 161.236 7
4 1 -17 531.053 202.242 3
4 -1 -17 898.283 252.065 3
-4 1 -16 154.89 91.9049 7
-4 -1 -16 91.7467 75.401 7
4 1 -16 67.6262 89.8314 3
4 -1 -16 158.965 113.244 3
-4 1 -15 145.187 94.0085 7
-4 -1 -15 125.885 80.6258 7
-4 -1 -15 9.23635 49.5602 6
4 1 -15 415.972 182.836 3
4 -1 -15 145.478 90.441 3
-4 1 -14 784.476 182.286 7
4 1 -14 1048.21 281.442 3
4 -1 -14 877.803 214.978 3
-4 -1 -14 535.994 123.494 6
-4 -1 -14 1043.36 203.813 7
-4 -1 -13 823.956 147.962 6
-4 -1 -13 1278.29 226.904 7
-4 1 -13 1212.29 227.23 7
-4 1 -13 1188.27 160.268 6
4 1 -13 859.129 267.671 3
4 -1 -13 1159.94 244.971 3
-4 -1 -12 21.8855 50.874 7
-4 -1 -12 51.5936 49.9662 6
-4 1 -12 103.142 66.5543 6
-4 1 -12 144.401 87.2672 7
4 1 -12 20.3639 129.872 3
4 -1 -12 65.8641 57.3829 3
-4 -1 -11 2615.22 268.456 6
-4 1 -11 2200.09 249.379 6
4 -1 -11 2877.87 374.503 3
4 1 -11 2325.95 445.766 3
-4 1 -11 2433.32 302.961 7
4 -1 -10 1898.97 308.425 3
-4 -1 -10 2024.54 245.692 6
-4 1 -10 1631.85 232.293 6
4 1 -10 1645.98 399.429 3
4 -1 -9 5711.91 540.653 3
4 1 -9 4629.02 681.907 3
-4 -1 -9 4288.22 375.379 6
-4 1 -9 3740.45 385.033 6
-4 1 -8 2483.09 331.021 6
4 1 -8 2058.85 464.043 3
4 -1 -8 2767.59 378.329 3
-4 -1 -8 2484.8 283.977 6
-4 -1 -8 2150.37 280.476 2
-4 -1 -7 493.652 128.764 2
-4 -1 -7 323.798 112.227 6
-4 1 -7 460.267 159.312 6
4 1 -7 332.363 167.401 3
4 -1 -7 446.227 142.709 3
-4 1 -6 6929.75 589.313 6
-4 -1 -6 7210.18 551.16 6
4 -1 -6 7796.22 668.653 3
-4 -1 -6 6496.29 465.556 2
4 1 -6 7521.02 878.228 3
4 -1 -5 17025.3 1001.4 3
-4 -1 -5 15658.2 859.086 6
-4 1 -5 16720.8 976.363 6
-4 1 -5 16035.3 602.109 2
-4 1 -5 11906.4 465.039 4
-4 -1 -5 13952.4 694.745 2
4 1 -5 17615.8 1332.14 3
-4 1 -4 1839.69 164.366 2
-4 -1 -4 2196.86 333.527 6
-4 1 -4 2075.49 334.029 6
4 1 -4 2047.55 452.595 3
4 -1 -4 1566.7 292.701 3
-4 1 -4 2052.17 134.992 4
-4 -1 -4 1698.02 212.195 2
4 1 -3 180.124 135.596 3
-4 -1 -3 189.449 97.262 6
-4 -1 -3 80.3179 30.1135 2
-4 1 -3 -51.6141 82.6271 6
4 -1 -3 130.625 89.6664 3
-4 1 -3 115.194 32.8959 2
-4 1 -3 156.295 39.0647 4
-4 -1 -2 12838.8 811.963 6
-4 1 -2 13387.1 895.05 6
4 -1 -2 10780.5 674.838 8
-4 1 -2 11785.5 442.592 4
4 -1 -2 10714.3 452.452 2
4 1 -2 13630.8 1135.12 3
-4 -1 -2 10121 540.528 2
4 -1 -2 10345.5 766.442 3
-4 1 -1 82932.9 2549.17 6
-4 -1 -1 77613.1 2505.39 6
-4 -1 -1 65258.8 1959.74 2
-4 1 -1 80897.7 1875.59 4
4 -1 -1 58298.7 1745.16 2
4 1 -1 77486.9 2985.99 3
4 -1 -1 68839.5 2213.62 8
4 -1 -1 68362.6 2426.57 3
-4 -1 0 161046 4403.87 2
-4 -1 0 173827 4985.52 6
-4 1 0 161814 4900.81 6
4 -1 0 166877 4703.25 8
-4 1 0 160389 4305.76 4
4 1 0 161146 4487.14 2
4 -1 0 167188 4959.81 3
-4 -1 1 68840.1 2486.72 6
-4 1 1 70614.7 1994.35 4
-4 -1 1 72456.6 2046.03 2
4 1 1 67580.2 2063.97 2
4 1 1 77441.5 2963.66 3
4 -1 1 75871.5 2569.68 3
4 -1 1 76012.6 2325.13 8
-4 -1 2 10491.3 765.639 6
-4 1 2 13577.8 563.471 4
4 1 2 12825.6 1035.24 3
4 -1 2 12448.3 852.268 3
4 -1 2 11820.5 675.588 8
4 -1 3 120.025 58.5224 8
4 -1 3 178.186 85.8606 3
4 1 3 130.981 95.376 3
-4 -1 3 64.3382 73.3826 6
-4 -1 3 -12.2788 104.918 5
4 1 3 363.846 304.374 5
-4 1 3 133.411 54.0568 4
-4 -1 4 1640.44 280.573 6
-4 1 4 1828.88 198.295 4
4 1 4 2765.23 456.469 3
4 -1 4 1586.5 283.066 3
4 -1 4 1853.12 239.081 8
4 1 5 16179.2 818.4 8
-4 -1 5 9637.42 909.177 4
4 1 5 9553.24 617.548 4
-4 1 5 17589.1 706.28 4
4 -1 5 17899.5 813.876 8
-4 -1 5 14521 880.292 6
4 1 5 17094.9 1179.93 3
4 -1 5 15411.4 927.421 3
-4 -1 6 5832.23 527.149 6
4 1 6 6809.56 488.408 8
4 1 6 3738.03 337.405 4
-4 -1 6 4592.44 617.799 4
4 -1 6 9119.04 566.486 8
4 -1 6 6706.01 595.447 3
-4 1 6 7591.18 446.34 4
4 1 7 259.258 94.634 8
4 -1 7 369.529 99.4475 8
-4 -1 7 411.752 141.422 6
4 -1 7 205.924 121.791 3
4 1 7 380.122 57.9071 4
-4 -1 7 148.646 82.8881 4
-4 1 7 340.437 95.592 4
4 1 8 2133.99 251.715 8
4 -1 8 2494.59 272.494 8
4 -1 8 2760.06 1201.67 5
-4 1 8 2395.07 272.621 4
4 1 8 2485.44 134.414 4
-4 -1 8 1148.27 327.913 4
4 -1 9 4128.01 356.958 8
4 -1 9 1990 1054.37 5
-4 1 9 4778.28 420.51 4
-4 -1 9 2223.37 485.223 4
4 1 9 4430.98 368.721 8
4 -1 10 1722.17 228.25 8
4 -1 10 1013.31 893.345 5
-4 1 10 1671.19 253.522 4
-4 -1 10 636.826 275.106 4
4 1 10 1728.16 221.231 8
4 -1 11 2244.72 270.548 8
4 1 11 2351.75 246.471 8
-4 -1 11 2161.99 214.045 1
-4 -1 11 900.222 710.613 5
-4 1 11 2265.81 316.806 4
-4 -1 11 1093.57 325.444 4
4 -1 12 96.1746 71.1938 8
4 1 12 -11.6252 29.6002 8
-4 1 12 -62.5098 74.9097 4
-4 -1 12 71.522 50.7996 1
-4 -1 13 933.03 145.561 1
-4 -1 13 249.675 244.985 4
-4 1 13 915.501 224.975 4
-4 -1 14 694.31 129.655 1
-4 1 14 600.66 221.061 4
-4 1 15 61.403 55.9313 4
-4 -1 15 31.3202 29.6154 1
-4 1 16 24.1108 105.929 4
-4 1 17 474.703 249.113 4
-4 1 18 59.401 139.129 4
-4 -2 -18 192.082 155.887 2
-4 -2 -17 171.581 158.238 2
4 2 -17 -15.9998 42.0424 3
4 -2 -17 66.0713 97.135 3
-4 -2 -16 543.408 228.052 2
4 2 -16 807.947 258.195 3
4 -2 -16 644.586 200.071 3
-4 2 -16 507.018 168.718 7
-4 -2 -15 153.668 118.971 2
-4 2 -15 -11.7553 28.2589 7
-4 -2 -15 34.3875 38.103 7
4 2 -15 58.993 80.2477 3
4 -2 -15 84.495 90.1811 3
-4 2 -14 15.0478 38.932 7
-4 -2 -14 16.1775 36.8421 7
-4 -2 -14 34.4231 79.3732 2
-4 -2 -14 -134.639 80.7643 6
4 2 -14 90.9969 142.811 3
4 -2 -14 222.595 123.358 3
-4 -2 -13 89.056 84.7088 2
-4 2 -13 96.6521 67.412 7
-4 -2 -13 -2.1705 28.5071 6
4 2 -13 34.1722 82.34 3
4 -2 -13 90.9623 73.9386 3
-4 -2 -13 170.301 86.5437 7
4 -2 -12 2359.69 322.375 3
-4 2 -12 1874.47 273.503 7
-4 -2 -12 2051.7 262.889 7
-4 -2 -12 1774.93 226.84 6
4 2 -12 2143.39 484 3
-4 -2 -12 2006.87 356.425 2
4 -2 -11 3817.11 406.129 3
-4 2 -11 2993.86 336.807 7
-4 2 -11 2387.9 257.24 6
4 2 -11 3643.06 652.192 3
-4 -2 -11 3678.65 324.987 6
-4 -2 -11 2997.42 415.506 2
4 -2 -10 416.544 122.023 8
-4 2 -10 312.433 103.548 7
-4 -2 -10 475.964 163.672 2
-4 2 -10 253.689 95.6585 6
4 2 -10 433.548 245.873 3
-4 -2 -10 615.51 134.79 6
4 -2 -10 707.188 164.534 3
4 -2 -9 5499.52 461.143 8
-4 2 -9 6141.28 470.335 7
-4 -2 -9 7518.56 477.279 6
-4 2 -9 6008 522.64 6
4 -2 -9 7287.63 533.811 3
-4 -2 -9 5179.43 529.128 2
4 2 -9 6680.95 896.303 3
4 -2 -8 1183.14 201.831 8
4 -2 -8 1709.8 248.611 3
-4 -2 -8 1561.28 209.394 6
-4 2 -8 1319.47 247.374 6
4 2 -8 1138.21 381.132 3
-4 -2 -8 1174.7 235.135 2
-4 -2 -7 1391.75 214.401 6
4 -2 -7 1570.23 228.133 3
-4 2 -7 1284.13 251.371 6
4 2 -7 1381.09 425.349 3
-4 2 -7 1167.17 89.7647 4
-4 -2 -7 1129.9 230.828 2
4 -2 -7 1341.14 210.268 8
-4 2 -6 5245.28 528.359 6
-4 -2 -6 5383.09 425.737 6
4 2 -6 4433.37 730.821 3
-4 2 -6 5274.14 235.826 4
4 -2 -6 5282.36 419.678 3
-4 -2 -6 4093.9 427.381 2
4 -2 -6 4443.36 399.855 8
4 -2 -5 523.617 135.938 8
4 -2 -5 488.157 126.661 2
-4 2 -5 683.149 187.319 6
-4 -2 -5 431.77 126.697 2
-4 -2 -5 512.597 131.524 6
4 2 -5 898.074 346.567 3
4 -2 -5 463.472 105.091 3
-4 2 -5 515.743 68.6013 4
-4 -2 -4 2525.99 299.919 6
-4 2 -4 2632.5 380.882 6
4 2 -4 2333.89 516.945 3
4 -2 -4 2471.26 259.764 3
-4 2 -4 2035.93 154.623 4
4 -2 -4 2281.8 269.512 2
-4 -2 -4 2064.52 284.006 2
4 -2 -4 2250.97 273.388 8
4 -2 -3 4530.82 350.192 3
-4 -2 -3 3627.42 384.443 6
-4 2 -3 4270.2 500.429 6
-4 2 -3 3782.11 229.16 4
4 -2 -3 3596.78 331.482 2
-4 2 -3 3912.52 301.468 2
-4 -2 -3 3607.78 371.73 2
4 2 -3 4943.25 727.286 3
4 -2 -3 3988.77 359.685 8
4 -2 -2 11528.2 641.432 8
-4 2 -2 11966.8 831.826 6
4 -2 -2 12127.4 582.324 3
-4 2 -2 10565.8 451.475 4
-4 -2 -2 12968.4 757.948 6
-4 2 -2 10578.7 500.117 2
4 -2 -2 11193.5 603.993 2
4 2 -2 12761.9 1145.08 3
-4 -2 -2 9891.5 647.239 2
4 -2 -1 7816.03 446.16 3
-4 -2 -1 10963.8 789.007 6
-4 2 -1 7084.46 363.574 4
-4 2 -1 7143.17 360.198 2
-4 2 -1 7548.62 518.27 3
4 2 -1 8296.57 904.333 3
4 -2 -1 7735.22 441.154 2
4 -2 -1 8100.26 524.267 8
-4 -2 -1 8095.4 562.39 2
-4 -2 0 55342.7 1902.99 2
4 -2 0 55718.2 1691 3
-4 2 0 53419.9 1617.96 4
4 2 0 62639.1 2750.64 3
-4 2 0 50098.7 1909.14 3
4 -2 0 70633 1971.4 8
4 -2 0 53729 1642.14 2
-4 -2 0 64776 2133.44 6
4 -2 1 7003.89 384.684 3
-4 -2 1 8483.39 622.411 6
4 -2 1 8562.13 542.113 8
4 -2 1 7041.84 350.354 2
-4 -2 1 7519.29 521.944 2
-4 2 1 7086.33 387.074 4
4 2 1 8030.83 851.553 3
4 -2 2 13180.1 698.033 8
-4 -2 2 11814.5 663.599 2
4 -2 2 10613.6 491.242 3
-4 -2 2 10825.2 723.464 6
-4 2 2 10148.1 500.027 4
4 2 2 11756.2 1078.56 3
-4 -2 3 3773.27 410.032 6
4 -2 3 3256.29 240.054 3
-4 2 3 3693.57 278.549 4
4 2 3 4059.03 605.286 3
-4 -2 3 4489.81 384.338 2
4 -2 3 5078.51 423.828 8
4 -2 4 2246.48 106.809 3
4 2 4 747.157 543.191 5
-4 2 4 2239.26 221.656 4
-4 -2 4 2287.62 314.061 6
4 2 4 2769.66 513.065 3
4 -2 4 1720.33 178.585 3
4 -2 4 2826.68 298.069 8
4 -2 5 523.537 123.925 8
4 2 5 365.85 206.915 3
4 -2 5 362.104 91.817 3
-4 -2 5 642.06 172.77 6
4 2 5 414.924 343.575 5
-4 2 5 478.343 101.654 4
4 -2 5 571.524 52.2685 3
4 -2 6 5005.44 225.313 3
-4 -2 6 4411.65 455.502 6
4 -2 6 5249.7 411.059 8
4 2 6 3997.51 1077.8 5
-4 2 6 4906.7 360.11 4
4 2 6 4684.04 646.2 3
4 -2 6 3778.98 337.552 3
4 -2 7 1105.86 183.71 8
4 2 7 1257.46 210.051 8
-4 -2 7 1073.33 219.687 6
4 2 7 528.643 600.423 5
-4 2 7 1353.16 186.816 4
4 -2 7 1033.42 185.609 3
4 -2 8 1289.95 202.185 8
-4 -2 8 1269.69 239.671 6
4 2 8 1283.17 657.526 5
-4 2 8 1500.28 205.074 4
4 2 8 1431.42 163.797 4
4 -2 8 1133.1 214.56 3
4 2 8 1276.4 196.654 8
4 -2 9 6701.33 474.974 8
-4 -2 9 4771.95 466.009 6
4 2 9 4786.29 1323.17 5
-4 2 9 6550.23 466.559 4
4 2 9 6732.89 369.867 4
4 2 9 5309.86 408.206 8
4 -2 10 620.795 146.879 8
4 2 10 420.963 108.407 8
-4 -2 10 148.187 76.302 6
4 2 10 955.032 775.817 5
-4 2 10 584.353 140.9 4
-4 -2 10 464.754 111.188 1
4 -2 11 3392.88 350.056 8
4 2 11 1501.28 966.45 5
-4 -2 11 3306.27 293.659 1
-4 2 11 3440.72 364.188 4
4 2 12 747.919 876.089 5
-4 -2 12 1767.66 217.532 1
-4 2 12 2265.46 310.307 4
-4 -2 13 83.4784 43.9898 1
4 2 13 -193.576 333.992 5
-4 2 13 95.1838 89.4314 4
-4 -2 14 40.6374 38.4085 1
4 -2 14 -160.443 365.185 5
-4 2 14 132.287 98.8842 4
-4 2 15 12.1244 55.8352 4
-4 -2 15 -42.368 43.5455 1
4 -2 16 796.364 937.297 5
-4 -2 16 347.081 110.803 1
-4 2 16 565.393 182.206 4
4 -2 17 -1551.56 1092.82 5
-4 2 17 38.4371 75.6518 4
-4 2 18 220.806 174.556 4
4 -3 -17 419.061 258.656 2
-4 -3 -17 393.789 192.259 2
4 3 -17 218 133.559 3
-4 -3 -16 123.569 139.164 2
4 3 -16 -37.1458 118.962 3
4 -3 -16 178.748 127.199 3
-4 3 -15 124.441 40.9213 7
-4 -3 -15 -90.9746 94.3385 2
4 3 -15 145.852 165.3 3
4 -3 -15 6.23563 60.4157 3
-4 3 -14 1557.45 272.385 7
4 -3 -14 1810.06 420.413 2
-4 -3 -14 1110.16 310.505 2
4 3 -14 1466.36 410.263 3
4 -3 -14 1757.26 311.105 3
4 3 -13 3179.57 602.285 3
-4 3 -13 2678.68 352.301 7
4 -3 -13 3459.42 562.95 2
-4 -3 -13 2374.28 440.036 2
4 -3 -13 3393.91 415.986 3
-4 3 -12 1995.79 293.361 7
-4 -3 -12 1971.75 256.641 6
4 -3 -12 2656.76 349.559 3
4 3 -12 2702.92 592.132 3
4 -3 -12 2766.68 479.092 2
-4 -3 -12 1897.41 383.011 2
4 -3 -11 3570.7 390.458 3
-4 3 -11 3059.03 349.673 7
-4 -3 -11 3150.47 322.056 6
-4 -3 -11 3428.89 324.318 7
4 3 -11 3030.81 618.964 3
4 -3 -11 3949.13 554.804 2
-4 -3 -11 2486.57 425.798 2
-4 3 -10 101.185 67.5457 7
4 -3 -10 244.974 154.283 2
-4 -3 -10 37.4455 63.9524 2
-4 -3 -10 104.154 63.1749 6
4 3 -10 -178.381 241.768 3
4 -3 -10 22.0304 27.9651 3
-4 3 -9 1585.71 239.368 7
-4 -3 -9 1873.51 234.009 6
-4 3 -9 1273.73 234.304 6
-4 -3 -9 1534.98 317.214 2
4 3 -9 1389.38 439.18 3
4 -3 -9 1602.37 240.38 3
4 -3 -9 1621.9 334.71 2
4 -3 -8 6543.3 480.96 3
-4 3 -8 6169.09 467.662 7
-4 -3 -8 7492.02 477.274 6
-4 3 -8 5358.1 512.947 6
4 -3 -8 6455.41 635.47 2
-4 -3 -8 4940.56 570.924 2
4 3 -8 5903.19 890.569 3
4 -3 -8 6897.61 445.509 8
4 -3 -7 10895.8 607.212 3
4 -3 -7 10969 591.637 8
-4 3 -7 9587.32 589.54 7
-4 3 -7 9708.73 747.708 6
-4 3 -7 8920.81 443.444 4
-4 -3 -7 12254.3 623.422 6
4 -3 -7 10553.6 790.238 2
-4 -3 -7 8904.13 760.638 2
4 3 -7 10825 1186.72 3
4 -3 -6 16833.8 759.119 3
-4 -3 -6 18784.8 813.21 6
-4 3 -6 16241 1005.52 6
-4 3 -6 14733.7 623.932 4
4 -3 -6 17042 786.456 8
4 -3 -6 15993.1 980.245 2
-4 -3 -6 13982.8 979.241 2
4 3 -6 17512.3 1525.37 3
4 -3 -5 6861.56 423.139 3
-4 -3 -5 7636.77 469.567 6
-4 3 -5 6281.35 618.738 6
-4 3 -5 5925.52 353.62 4
4 -3 -5 7720.89 501.941 8
4 -3 -5 6011.48 559.423 2
-4 -3 -5 5724.31 569.058 2
4 3 -5 6906.81 946.794 3
4 3 -4 635.218 232.851 3
4 -3 -4 847.211 129.945 3
-4 -3 -4 893.266 156.752 6
4 -3 -4 604.387 171.468 2
-4 -3 -4 868.019 216.523 2
-4 3 -4 761.434 214.791 6
-4 3 -4 719.128 114.123 4
4 -3 -4 1101.13 187.909 8
4 -3 -3 1551.16 166.426 3
-4 -3 -3 1762.69 224.332 6
4 3 -3 1130.11 378.519 3
-4 3 -3 1686.31 190.597 4
4 -3 -3 1577.44 261.981 2
-4 -3 -3 1544.04 279.543 2
4 -3 -3 1786.44 247.039 8
4 -3 -2 1071.35 124.31 3
4 3 -2 942.577 323.424 3
-4 -3 -2 1475.88 215.526 6
-4 -3 -2 925.537 214.177 2
-4 3 -2 1151.65 147.874 4
4 -3 -2 1080.71 205.714 2
4 -3 -2 1363.61 196.447 8
4 -3 -1 722.704 92.0174 3
-4 -3 -1 1664.13 231.451 6
4 3 -1 712.739 267.258 3
4 -3 -1 635.8 146.08 2
-4 -3 -1 557.334 164.493 2
-4 3 -1 670.251 115.101 4
4 -3 -1 1010.66 181.377 8
-4 -3 0 6480.98 562.798 2
4 -3 0 6945.35 290.499 3
-4 -3 0 6639.85 467.407 6
4 3 0 3175.34 652.141 5
-4 3 0 6669.32 404.333 4
4 -3 0 8075.39 508.961 8
4 3 0 6505.75 833.197 3
-4 3 0 5488.21 432.973 3
4 -3 0 6945.97 497.664 2
4 -3 1 731.18 150.349 8
4 3 1 527.234 253.546 3
-4 -3 1 696.546 151.37 6
4 -3 1 579.02 123.434 2
-4 -3 1 656.31 168.257 2
-4 3 1 594.513 112.38 4
4 3 2 810.33 284.609 3
-4 -3 2 1196.11 198.921 6
4 -3 2 1320.44 194.928 8
4 -3 2 920.875 150.751 2
-4 3 2 1000.42 152.377 4
-4 -3 2 967.304 206.756 2
4 -3 3 1477.87 215.113 8
-4 -3 3 1477.7 257.828 2
4 -3 3 1534.83 188.069 2
4 3 3 1443.86 407.849 3
-4 3 3 1388.25 186.718 4
-4 -3 3 1238.63 190.732 6
4 -3 4 775.028 152.351 8
-4 -3 4 636.014 141.344 6
-4 3 4 919.098 154.29 4
4 -3 4 899.729 193.493 1
4 3 4 550.076 255.258 3
-4 -3 4 702.248 179.921 2
4 -3 5 6427.63 461.718 8
-4 -3 5 5448.42 433.287 6
-4 3 5 6177.88 426.832 4
4 3 5 6094.91 799.944 3
4 -3 5 7574.93 579.766 1
4 -3 6 16883.2 807.087 8
-4 -3 6 14377.2 753.069 6
-4 3 6 14638.7 732.892 4
4 3 6 13951 1233.06 3
4 -3 6 17926.6 958.435 1
4 -3 7 11295.7 643.588 8
-4 -3 7 9308.05 570.993 6
-4 3 7 9610.48 587.967 4
-4 -3 7 10897.8 569.607 1
4 3 7 8944.2 1001.05 3
4 -3 7 12245.8 783.77 1
4 -3 8 5982.14 472.548 8
-4 -3 8 6664.62 424.15 1
4 3 8 5738.05 463.132 8
-4 3 8 5932.33 451.91 4
4 -3 8 7025.75 593.805 1
4 -3 9 1641.72 239.36 8
-4 -3 9 1494.47 204.578 1
4 3 9 1765.56 1032.44 5
-4 3 9 1460.34 225.204 4
4 3 9 1615.11 214.428 4
4 -3 9 1522.41 275.215 1
-4 -3 10 199.822 79.4051 1
4 -3 10 -46.2079 68.5183 1
-4 3 10 90.0618 68.5867 4
4 3 10 115.579 66.2413 4
-4 -3 11 3187.02 310.482 1
4 3 11 2104.99 1184.12 5
-4 3 11 3467.42 368.41 4
4 -3 11 3366.83 447.112 1
-4 -3 12 1801.79 244.901 1
4 3 12 1025.91 1062.79 5
-4 3 12 2341.11 313.291 4
4 -3 12 2965.79 417.698 1
-4 -3 13 2161.47 275.076 1
4 3 13 1515.64 1151.19 5
-4 3 13 3114.08 371.598 4
4 -3 13 3290.69 453.861 1
-4 -3 14 1230.39 215.889 1
4 3 14 450.857 792.398 5
-4 3 14 1609.15 281.192 4
4 -3 14 1705.1 344.902 1
4 3 15 393.747 818.232 5
-4 -3 15 164.76 90.6949 1
4 -3 15 -69.463 49.5198 1
-4 3 15 92.7083 89.4629 4
-4 -3 16 339.016 122.685 1
4 -3 16 84.5722 100.435 1
-4 3 16 196.39 99.0086 4
-4 -3 17 195.044 92.9576 1
4 4 -16 107.594 142.24 3
4 -4 -15 42.1587 131.682 2
-4 -4 -15 175.221 133.742 2
4 4 -15 -27.9014 90.2722 3
4 -4 -15 419.428 198.718 3
4 -4 -14 69.1109 130.16 2
-4 -4 -14 164.011 142.307 2
4 4 -14 153.921 179.61 3
4 -4 -14 26.7987 41.0693 3
-4 4 -13 327.794 124.876 7
4 -4 -13 354.948 220.721 2
-4 -4 -13 282.064 170.155 2
4 4 -13 529.47 297.005 3
4 -4 -13 227.397 112.537 3
-4 4 -12 32.7614 52.2026 7
4 -4 -12 84.9455 96.2999 2
-4 -4 -12 137.258 142.863 2
4 4 -12 155.35 189.691 3
4 -4 -12 -37.1317 42.8001 3
-4 4 -11 17.2188 51.1242 7
4 -4 -11 150.476 179.934 2
-4 -4 -11 8.80731 90.8935 2
4 4 -11 159.44 118.553 3
4 -4 -11 72.7329 74.6002 3
-4 4 -10 77.7805 63.0363 7
4 -4 -10 192.235 140.264 2
-4 -4 -10 40.0711 110.261 2
4 4 -10 220.185 211.374 3
4 -4 -10 43.4342 53.6924 3
-4 4 -9 245.551 83.8187 7
4 -4 -9 298.162 174.704 2
-4 -4 -9 56.5088 24.3308 6
-4 -4 -9 154.348 83.0456 2
4 4 -9 624.27 334.126 3
4 -4 -9 309.262 107.012 3
-4 4 -8 87.0667 49.4405 7
4 -4 -8 50.92 79.5362 2
-4 -4 -8 -19.0108 57.4108 6
-4 -4 -8 23.9003 46.8246 2
4 4 -8 111.139 150.735 3
4 -4 -8 241.666 101.569 3
-4 4 -7 74.5648 65.357 7
-4 -4 -7 213.365 84.8077 6
4 4 -7 466.537 284.913 3
-4 -4 -7 54.7396 62.0631 2
4 -4 -7 244.219 146.533 2
4 -4 -7 110.674 65.7919 3
-4 4 -7 56.3461 37.4633 4
4 -4 -6 3571.69 329.934 3
-4 4 -6 3330.69 322.271 7
-4 -4 -6 3798.12 331.765 6
-4 4 -6 3160.9 434.309 6
4 -4 -6 3641.86 298.298 8
-4 4 -6 2913.2 280.214 4
4 -4 -6 3334.93 490.071 2
-4 -4 -6 3244.95 477.55 2
4 4 -6 4075.11 765.187 3
4 -4 -5 4797.13 351.437 8
4 -4 -5 4216.28 344.996 3
-4 4 -5 3877.4 347.235 7
-4 -4 -5 4306.13 346.746 6
-4 4 -5 3869.81 480.663 6
-4 4 -5 3601.07 317.085 4
4 -4 -5 3811.2 509.461 2
-4 -4 -5 3414.39 488.125 2
4 4 -5 3892.62 765.412 3
4 -4 -4 2654.62 264.121 8
4 -4 -4 2440.58 246.117 3
-4 4 -4 2492.08 259.814 7
-4 -4 -4 2900.86 276.222 6
4 4 -4 2583.95 591.949 3
-4 -4 -4 1774.46 345.197 2
-4 4 -4 1693.28 326.138 6
-4 4 -4 2409.84 256.434 4
4 -4 -4 2653.25 400.81 2
4 -4 -3 4793.3 368.883 8
4 -4 -3 4060.31 309.81 3
-4 -4 -3 4896.26 357.639 6
-4 -4 -3 3848.68 511.129 2
-4 4 -3 3909.97 340.322 4
4 4 -3 4222.31 744.735 3
4 -4 -3 4377.15 503.799 2
-4 -4 -2 3095.88 274.979 6
4 4 -2 1856.72 480.675 3
4 -4 -2 2486.52 262.381 8
4 -4 -2 1781.94 310.095 2
-4 4 -2 2219.58 251.102 4
-4 -4 -2 2068.63 355.18 2
-4 -4 -1 2265.88 376.888 2
4 -4 -1 2459.89 272.04 8
-4 -4 -1 3866.93 300.012 6
4 4 -1 2621.94 575.287 3
-4 4 -1 2487.21 274.893 4
4 -4 -1 2380.64 346.195 2
4 -4 0 10852.2 763.526 2
4 -4 0 12950.7 672.692 8
-4 -4 0 10834.6 841.01 2
-4 -4 0 13581.6 617.364 6
-4 4 0 11788.8 645.729 4
4 4 0 10541.5 1161.19 3
4 -4 1 4285.81 356.378 8
-4 -4 1 2250.18 364.772 2
4 -4 1 2445.99 322.24 2
-4 -4 1 3106.79 262.2 6
4 4 1 1960.65 489.743 3
-4 4 1 2511.31 279.315 4
4 -4 2 2334.86 272.586 8
-4 -4 2 2221.81 360.012 2
4 -4 2 1975.99 273.239 2
4 4 2 2146.2 494.974 3
-4 -4 2 2572.41 229.445 6
-4 4 2 2184.6 257.051 4
4 -4 2 2478.28 331.283 1
4 -4 3 4845.91 401.656 8
-4 -4 3 4161.73 481.502 2
4 -4 3 3988.73 388.369 2
-4 -4 3 4554.77 310.008 6
-4 4 3 4233.69 376.586 4
-4 -4 3 5128.54 364.02 1
4 4 3 3595.26 708.356 3
4 -4 3 5217.02 503.46 1
4 -4 4 2572.46 295.822 8
4 -4 4 2705.28 363.634 1
-4 -4 4 2791.08 396.606 2
4 -4 4 2557.88 300.635 2
4 4 4 1522.02 428.897 3
-4 -4 4 2863.6 271.011 1
-4 4 4 2467.56 280.78 4
-4 -4 4 2677.92 224.337 6
4 -4 5 4478.69 401.428 8
-4 -4 5 4537.85 287.778 6
-4 -4 5 4279.52 487.519 2
-4 -4 5 4229.1 343.47 1
-4 4 5 4015.55 376.678 4
4 4 5 3855.82 683.023 3
4 -4 5 4990.6 509.383 1
4 -4 6 3790.48 370.803 8
-4 -4 6 3717.22 333.7 1
-4 4 6 3370.82 344.245 4
4 4 6 3021.78 630.975 3
4 -4 6 3677.85 429.535 1
4 4 7 217.84 206.606 3
-4 -4 7 170.783 86.3335 1
4 -4 7 44.4047 35.6897 1
-4 4 7 129.122 68.2319 4
4 4 8 254.899 197.804 3
4 -4 8 173.699 90.8096 1
-4 4 8 192.054 89.5047 4
-4 -4 8 208.888 85.3679 1
-4 -4 9 190.132 85.1648 1
4 -4 9 82.2137 72.5304 1
-4 4 9 209.379 76.8466 4
4 4 9 246.586 100.841 4
-4 -4 10 56.5857 48.4206 1
4 -4 10 102.936 85.1147 1
-4 4 10 83.271 71.645 4
4 4 10 1.80373 28.2233 4
-4 -4 11 -33.203 29.6932 1
4 -4 11 126.312 100.834 1
-4 4 11 -41.788 42.1505 4
4 -4 12 129.984 47.0807 1
-4 4 12 61.2581 56.251 4
-4 -4 12 -21.1177 29.7046 1
4 -4 13 404.596 189.937 1
-4 4 13 298.844 128.536 4
-4 -4 14 -171.384 90.2308 1
4 -4 14 74.1711 101.158 1
-4 4 14 47.483 77.1888 4
-4 -4 15 204.416 103.086 1
4 -4 15 77.817 108.153 1
4 -5 -13 175.134 168.344 2
-4 -5 -13 76.0148 129.799 2
4 5 -13 -65.1351 120.642 3
4 -5 -13 -65.5832 90.5094 3
-4 -5 -12 -44.179 103.327 2
4 5 -12 -142.34 170.463 3
4 -5 -12 230.894 196.927 2
4 -5 -12 4.70906 47.9846 3
4 -5 -11 412.857 223.888 2
-4 -5 -11 412.187 207.984 2
4 5 -11 99.1945 140.476 3
-4 5 -10 1594.53 264.038 7
4 -5 -10 2245.73 492.837 2
-4 -5 -10 1818.93 424.903 2
4 5 -10 2035.12 575.065 3
-4 5 -9 82.72 71.299 7
4 -5 -9 99.181 144.372 2
-4 -5 -9 -94.4491 127.548 2
4 5 -9 113.524 239.452 3
-4 5 -8 3517.9 366.872 7
4 -5 -8 4206.27 646.704 2
-4 -5 -8 3448.35 570.766 2
4 5 -8 4479.17 849.45 3
-4 5 -7 2053.91 265.989 7
4 5 -7 2298.31 595.842 3
-4 -5 -7 1922.28 419.89 2
4 -5 -7 2444.71 463.194 2
-4 5 -6 348.71 108.239 7
4 5 -6 482.051 305.681 3
4 -5 -6 322.664 176.198 2
-4 -5 -6 218.27 134.232 2
-4 5 -6 458.534 129.004 4
-4 5 -5 489.113 119.565 7
4 5 -5 783.077 325.18 3
4 -5 -5 570.734 212.433 2
-4 -5 -5 390.832 189.082 2
-4 5 -5 419.86 123.915 4
-4 5 -4 96.8998 61.7875 7
-4 -5 -4 -36.6216 48.2682 6
4 5 -4 -101.751 157.291 3
4 -5 -4 157.462 96.9448 2
-4 -5 -4 104.637 103.027 2
-4 -5 -4 148.167 60.5284 1
-4 5 -4 63.0978 47.2652 4
-4 5 -3 698.115 131.029 7
-4 -5 -3 525.254 131.447 6
4 5 -3 879.984 365.42 3
4 -5 -3 569.814 193.581 2
-4 -5 -3 564.66 201.731 2
-4 -5 -3 496.25 109.138 1
-4 5 -3 647.065 153.064 4
4 5 -2 122.353 205.717 3
-4 -5 -2 87.3737 50.1183 6
4 -5 -2 -31.6559 50.007 2
-4 -5 -2 50.7403 89.8833 2
-4 -5 -2 60.1644 60.4779 1
-4 5 -2 0.88701 22.8684 4
4 5 -1 132.948 147.356 3
-4 -5 -1 57.3898 33.0238 6
-4 -5 -1 188.456 72.8716 1
4 -5 -1 244.316 140.08 2
-4 -5 -1 265.841 150.779 2
-4 5 -1 99.2982 60.3648 4
4 5 0 147.291 185.471 3
-4 -5 0 15.3735 36.3436 6
-4 -5 0 225.935 82.7067 1
4 -5 0 193.519 112.519 2
-4 -5 0 -134.616 132.253 2
-4 5 0 128.052 76.111 4
4 5 1 289.371 237.068 3
-4 -5 1 206.034 89.6813 1
-4 -5 1 7.51519 32.1207 6
4 -5 1 253.582 124.492 1
4 -5 1 113.689 55.69 2
-4 -5 1 32.6223 50.4998 2
-4 5 1 145.038 81.0945 4
-4 -5 2 71.375 52.7412 1
4 5 2 97.7338 150.369 3
-4 -5 2 -11.8618 19.1192 6
4 -5 2 56.104 43.9614 1
-4 -5 2 44.2884 59.7005 2
4 -5 2 62.1551 71.8593 2
-4 5 2 105.342 68.6048 4
4 5 3 348.158 243.285 3
4 -5 3 571.279 192.555 1
-4 -5 3 633.854 218.87 2
4 -5 3 687.59 185.072 2
-4 5 3 549.364 144.471 4
-4 -5 3 699.916 149.649 1
4 5 4 190.256 215.253 3
4 -5 4 179.151 126.395 1
-4 -5 4 56.2727 31.7538 1
-4 5 4 138.389 83.1251 4
-4 -5 4 200.899 141.119 2
4 -5 4 102.396 75.2136 2
4 5 5 528.053 337.289 3
-4 -5 5 539.646 143.396 1
4 -5 5 863.074 233.229 1
-4 5 5 437.942 131.638 4
-4 -5 5 648.526 219.453 2
4 5 6 123.789 154.224 3
-4 -5 6 469.461 129.963 1
4 -5 6 240.513 107.378 1
-4 5 6 385.273 134.278 4
4 -5 7 2402.93 393.978 1
4 5 7 1427.37 486.736 3
-4 -5 7 2099.26 282.848 1
-4 5 7 1913.74 291.957 4
4 5 8 2725.8 677.259 3
4 -5 8 4211.72 528.206 1
-4 -5 8 3785.1 389.779 1
-4 5 8 3814.23 420.101 4
4 5 9 149.843 183.199 3
4 -5 9 70.0494 78.5956 1
-4 5 9 -5.63613 25.6394 4
4 5 9 -4.15877 25.3766 4
-4 -5 9 15.0646 41.3236 1
4 5 10 1870.2 588.823 3
-4 -5 10 1700.28 270.965 1
-4 5 10 1683.69 288.485 4
4 5 10 2017.56 323.782 4
4 -5 10 2291.75 406.325 1
4 5 11 817.497 386.058 3
-4 -5 11 148.128 78.6724 1
4 -5 11 449.888 180.707 1
-4 5 11 382.835 138.132 4
-4 -5 12 -38.3642 60.0506 1
-4 5 12 -15.9519 26.1628 4
4 -6 -11 -94.1102 139.523 2
4 -6 -10 4.98512 62.2427 2
4 -6 -9 67.8052 111.925 2
-4 -6 -9 208.275 160.695 2
4 6 -8 1231.22 462.772 3
4 -6 -8 1054.75 330.758 2
-4 -6 -8 909.896 317.498 2
4 6 -7 683.205 344.992 3
4 -6 -7 883.4 328.071 2
-4 -6 -7 623.211 271.198 2
4 6 -6 1240.87 483.233 3
4 -6 -6 1241.88 350.133 2
-4 -6 -6 1193.08 355.637 2
4 6 -5 183.074 230.12 3
4 -6 -5 539.96 237.983 2
-4 -6 -5 361.677 178.583 2
-4 6 -5 350.339 125.929 4
4 6 -4 544.263 313.07 3
4 -6 -4 896.446 286.582 2
-4 -6 -4 1083.08 323.398 2
-4 6 -4 635.413 176.201 4
-4 6 -3 4058.45 439.852 4
4 6 -3 3761.29 815.349 3
4 -6 -3 3979.62 593.264 2
-4 -6 -3 3886.59 605.066 2
-4 -6 -2 223.082 79.0962 1
4 6 -2 524.589 344.793 3
4 -6 -2 194.287 115.807 2
-4 -6 -2 251.118 147.456 2
-4 6 -2 392.132 153.583 4
-4 -6 -1 297.633 99.5957 1
4 6 -1 429.894 312.93 3
4 -6 -1 375.661 152.94 2
-4 -6 -1 311.841 129.578 2
-4 6 -1 465.44 146.391 4
-4 -6 0 188.553 82.8704 1
4 6 0 269.132 213.241 3
4 -6 0 71.04 72.3491 2
-4 -6 0 149.006 119.21 2
-4 6 0 203.958 98.0112 4
-4 -6 1 372.236 122.937 1
4 6 1 205.645 218.298 3
4 -6 1 395.422 164.791 1
-4 -6 1 264.727 151.971 2
4 -6 1 295.648 152.447 2
-4 6 1 393.264 145.409 4
4 6 2 226.903 248.797 3
4 -6 2 481.319 187.507 1
-4 -6 2 426.083 177.602 2
4 -6 2 180.892 98.2286 2
-4 6 2 344.04 133.814 4
-4 -6 2 282.591 109.794 1
4 -6 3 4403.6 509.37 2
-4 -6 3 3921.72 562.015 2
4 -6 3 4544.38 563.746 1
-4 -6 3 3860.09 394.303 1
-4 6 3 3826.18 441.049 4
4 6 3 3658.47 763.928 3
4 6 4 424.933 316.86 3
4 -6 4 823.681 250.186 1
-4 6 4 731.603 194.217 4
-4 -6 4 657.409 219.815 2
4 -6 4 907.945 228.099 2
-4 -6 4 687.699 165.416 1
4 6 5 568.04 315.75 3
4 -6 5 654.127 221.536 1
-4 6 5 441.947 158.939 4
-4 -6 5 197.08 73.3267 1
-4 -6 5 635.873 239.442 2
4 6 6 939.395 467.608 3
-4 6 6 1343.1 264.038 4
4 -6 6 1330.23 310.729 1
-4 -6 6 1031.71 214.9 1
-4 -6 6 1330.24 326.764 2
4 6 7 608.623 359.227 3
-4 -6 7 499.251 152.161 1
4 -6 7 909.157 265.532 1
-4 6 7 488.253 161.763 4
4 6 8 930.308 412.058 3
-4 -6 8 913.804 218.071 1
4 -6 8 1148.54 290.659 1
-4 6 8 925.78 221.852 4
4 6 9 -25.2852 32.485 4
-4 7 -4 522.155 169.259 4
-4 7 -3 239.141 132.668 4
4 7 -2 1012.54 454.511 3
-4 7 -2 1053.46 250.624 4
4 7 -1 1128.26 453.24 3
-4 7 -1 1168.87 267.797 4
4 7 0 900.782 405.962 3
-4 -7 0 972.348 212.452 1
-4 7 0 924.172 234.848 4
4 7 1 629.926 371.655 3
-4 -7 1 883.821 205.394 1
-4 7 1 886.515 226.376 4
4 7 2 942.22 470.752 3
-4 -7 2 993.223 222.132 1
4 -7 2 1361.82 324.402 1
4 7 3 116.453 206 3
-4 -7 3 332.86 133.751 1
4 -7 3 195.201 113.321 1
-5 0 -17 -56.8014 74.7357 7
5 0 -17 81.3823 94.5287 3
5 0 -16 78.244 126.339 3
-5 0 -16 43.9184 39.6534 7
-5 0 -15 68.2448 81.0145 7
-5 0 -15 -35.7396 33.7504 6
5 0 -15 39.1881 82.6116 3
-5 0 -14 -26.828 35.2619 7
-5 0 -14 129.798 75.1796 6
5 0 -14 144.924 96.3603 3
-5 0 -13 281.218 139.257 7
-5 0 -13 1.66682 26.959 6
5 0 -13 284.564 228.293 3
-5 0 -12 464.407 144.836 6
5 0 -12 -2.66469 153.062 3
-5 0 -11 122.912 83.9048 6
5 0 -11 185.911 212.528 3
-5 0 -10 -115.377 72.4271 6
5 0 -10 -72.7264 52.6586 3
-5 0 -9 -15.2714 72.9415 6
5 0 -9 303.623 188.008 3
-5 0 -8 -220.139 142.728 6
5 0 -8 42.8774 58.8208 3
-5 0 -7 197.481 155.457 6
5 0 -7 146.244 143.635 3
-5 0 -6 60.3248 44.3624 2
-5 0 -6 -17.1901 75.8782 6
5 0 -6 74.7669 160.317 3
-5 0 -5 13.6211 19.7829 2
-5 0 -5 -69.8304 59.61 6
5 0 -5 -37.7642 98.6005 3
-5 0 -4 1.27366 10.9015 2
-5 0 -4 -118.426 93.1809 6
5 0 -4 68.9643 159.937 3
-5 0 -3 -112.817 150.685 6
5 0 -3 49.6414 119.856 3
-5 0 -3 -4.34364 8.43605 2
5 0 -3 -13.985 22.1447 2
5 0 -2 125.511 121.549 3
-5 0 -2 -23.8458 89.8267 6
5 0 -2 19.7626 22.5104 2
5 0 -1 -10.2911 9.99342 2
5 0 -1 74.3035 158.831 3
-5 0 -1 -65.857 73.7225 6
-5 0 -1 -52.6438 86.839 4
5 0 0 51.107 63.7746 3
-5 0 0 73.1266 78.716 6
-5 0 0 37.2333 73.2786 4
5 0 1 110.757 165.441 3
-5 0 1 108.627 106.38 6
-5 0 1 6.11457 60.5464 4
5 0 2 -18.4079 50.3225 8
5 0 2 141.087 140.166 3
-5 0 2 68.4394 84.6257 6
-5 0 2 188.364 120.113 4
5 0 3 -111.374 84.8385 8
5 0 3 31.3436 111.71 3
-5 0 3 142.222 88.3885 6
-5 0 3 105.499 101.864 4
5 0 4 61.5375 69.2573 8
5 0 4 8.6692 96.2521 3
-5 0 4 17.3898 91.1471 6
-5 0 4 33.8689 38.896 4
5 0 4 -10.9468 15.3525 4
5 0 5 -44.8006 48.5796 8
5 0 5 39.3762 60.9402 3
5 0 5 -179.031 323.582 5
-5 0 5 -64.2189 83.0551 4
5 0 5 -1.74321 4.421 4
5 0 6 53.5761 32.6079 8
5 0 6 105 92.4661 3
-5 0 6 86.1054 126.92 4
5 0 7 112.459 86.3239 8
5 0 7 -16.1629 58.125 3
-5 0 7 -61.0726 103.378 4
5 0 8 44.0043 31.5574 8
5 0 8 169.877 180.75 3
-5 0 8 25.8712 54.8776 4
5 0 9 113.864 85.7383 8
5 0 9 80.8445 88.7806 3
-5 0 9 150.448 142.009 4
5 0 10 -91.8599 73.3867 8
-5 0 10 101.81 154.754 4
5 0 11 65.5767 64.1144 8
-5 0 11 -6.01894 87.6513 4
5 0 12 290.092 105.155 8
-5 0 12 83.5645 127.291 4
5 0 13 187.542 76.9469 8
-5 0 13 39.4153 89.3494 4
5 0 14 33.9005 50.9809 8
-5 0 14 -17.3058 78.832 4
-5 0 15 -88.8055 117.106 4
-5 0 16 2.18471 55.5277 4
-5 0 17 -181.831 201.881 4
-5 -1 -18 437.011 163.293 7
-5 1 -17 -33.0309 70.2299 7
-5 -1 -17 -34.0016 75.9104 7
5 1 -17 88.9538 113.211 3
-5 1 -16 298.709 159.862 7
-5 -1 -16 412.329 149.063 7
-5 -1 -16 205.462 85.7888 6
5 1 -16 260.662 151.84 3
5 -1 -16 502.128 195.671 3
-5 1 -15 335.504 135.901 7
-5 -1 -15 334.462 105.538 6
5 1 -15 281.389 157.109 3
5 -1 -15 547.74 203.134 3
-5 -1 -15 184.413 108.338 7
5 -1 -14 1925.8 361.711 3
-5 -1 -14 1491.85 256.915 7
-5 1 -14 1342.28 257.853 7
-5 -1 -14 1368.74 210.962 6
5 1 -14 1745.73 418.571 3
-5 -1 -13 209.88 116.852 7
-5 -1 -13 166.809 77.8778 6
-5 1 -13 186.3 74.3325 6
5 1 -13 196.798 172.656 3
-5 1 -13 78.748 55.1964 7
5 -1 -13 172.379 133.947 3
5 -1 -12 7252.74 677.463 3
-5 1 -12 6022.09 530.068 7
-5 -1 -12 6324.65 478.138 6
-5 1 -12 4973.51 433.436 6
5 1 -12 5628.04 772.487 3
-5 -1 -12 5410.69 552.535 2
-5 -1 -11 150.19 106.296 2
-5 -1 -11 58.8412 64.0485 6
-5 1 -11 82.998 64.0088 6
5 1 -11 199.619 206.441 3
5 -1 -11 100.414 105.661 3
-5 -1 -10 47.1013 54.137 2
-5 -1 -10 260.63 115.949 6
-5 1 -10 -71.8355 78.7447 6
5 1 -10 169.504 109.923 3
5 -1 -10 56.1471 51.7514 3
-5 -1 -9 545.613 151.38 2
-5 -1 -9 795.558 185.285 6
-5 1 -9 754.9 197.33 6
5 1 -9 433.418 261.637 3
5 -1 -9 716.75 206.493 3
-5 -1 -8 581.337 152.853 2
-5 -1 -8 497.339 151.548 6
-5 1 -8 933.147 247.56 6
5 1 -8 769.829 283.329 3
5 -1 -8 715.598 228.141 3
5 -1 -7 2749.97 433.403 3
-5 1 -7 2786.35 408.703 6
5 1 -7 2611.55 564.174 3
-5 -1 -7 2457.08 351.588 6
-5 -1 -7 2029.06 265.926 2
5 -1 -6 2410.25 411.591 3
-5 1 -6 2264.66 374.278 6
-5 -1 -6 2060.64 332.642 6
5 1 -6 2855.82 607.983 3
-5 -1 -6 2126.41 260.608 2
-5 -1 -5 1872.25 343.162 6
-5 1 -5 1992.11 354.935 6
5 1 -5 2042.26 485.467 3
-5 1 -5 822.437 130.659 4
-5 -1 -5 1688.33 222.867 2
5 -1 -5 1954.22 381.409 3
-5 1 -4 6.21809 7.99912 2
-5 -1 -4 145.054 130.454 6
5 1 -4 29.5265 96.8145 3
-5 -1 -4 31.9969 38.0166 2
-5 1 -4 63.2727 94.0636 6
-5 1 -4 12.1818 11.4702 2
5 -1 -4 99.4046 94.1397 3
-5 1 -4 3.8934 20.4757 4
5 -1 -3 947.061 222.588 8
5 1 -3 1631.82 413.565 3
-5 -1 -3 1484.91 306.73 6
-5 1 -3 1376.85 303.089 6
5 -1 -3 1084.53 289.279 3
-5 1 -3 1100.49 152.944 4
-5 -1 -3 1019.81 153.601 2
5 1 -2 1698.59 418.298 3
-5 -1 -2 1970.16 357.01 6
-5 1 -2 1815.28 345.636 6
5 -1 -2 1712.68 360.239 3
-5 1 -2 1623.6 175.913 4
5 -1 -2 1481.32 130.027 2
5 -1 -2 1715.96 291.098 8
-5 -1 -2 1802.81 196.353 2
5 -1 -1 635.753 180.488 8
5 1 -1 520.827 228.397 3
-5 -1 -1 707.697 194.228 6
5 -1 -1 524.129 218.224 3
-5 1 -1 462.262 186.972 6
-5 -1 -1 519.286 97.6194 2
-5 1 -1 466.404 93.6277 4
5 -1 0 300.569 136.023 8
5 1 0 390.426 208.057 3
-5 -1 0 384.82 140.56 6
5 -1 0 370.604 168.253 3
-5 1 0 239.759 111.76 6
-5 1 0 272.845 71.5514 4
-5 -1 0 303.854 72.3617 2
5 1 1 416.945 191.536 3
5 -1 1 401.89 193.511 3
-5 -1 1 297.613 101.647 6
-5 1 1 876.141 251.235 6
-5 1 1 559.526 111.959 4
5 -1 1 655.004 157.18 8
5 1 2 1876.74 410.072 3
-5 -1 2 1365.33 286.205 6
-5 1 2 1702.95 204.056 4
5 -1 2 1719.63 366.27 3
5 -1 2 1594.16 260.9 8
5 1 3 1198.24 326.528 3
5 -1 3 1249.6 321.071 3
-5 -1 3 1076.16 247.5 6
5 1 3 1453.99 549.699 5
-5 1 3 1202.44 177.896 4
5 -1 3 1440.67 249.571 8
5 1 4 92.7815 94.2394 8
5 -1 4 64.4956 61.1587 8
5 1 4 5.6648 84.2929 3
5 -1 4 90.9719 105.85 3
-5 -1 4 94.6261 115.987 6
-5 1 4 20.4911 39.4892 4
5 1 5 1639.92 407.702 3
5 -1 5 1420.44 304.054 3
-5 -1 5 1437.79 270.022 6
-5 1 5 1740.25 228.743 4
5 1 5 1666.68 271.657 8
5 -1 5 1707.54 257.089 8
5 1 6 1985.95 440.369 3
-5 -1 6 1845.51 318.825 6
5 1 6 1341.55 757.657 5
-5 1 6 2384.67 278.437 4
-5 -1 6 1067.53 328.458 4
5 -1 6 2366.88 404.833 3
5 1 6 2218.46 316.574 8
5 -1 6 2667.77 327.713 8
5 1 7 2170.68 437.26 3
-5 -1 7 2166.48 349.836 6
-5 1 7 2700.66 306.562 4
-5 -1 7 1108.58 315.148 4
5 -1 7 2184.9 401.354 3
5 1 7 2350.64 313.261 8
5 -1 7 2999.63 359.669 8
5 1 8 511.97 137.826 8
5 -1 8 579.349 157.128 8
5 1 8 429.97 214.767 3
5 -1 8 596.975 219.705 3
-5 -1 8 542.324 180.616 6
-5 -1 8 253.116 142.693 4
-5 1 8 630.035 162.966 4
5 1 9 603.875 150.516 8
5 -1 9 546.716 154.543 8
5 -1 9 515.367 210.666 3
-5 -1 9 612.536 191.906 6
5 -1 9 601.12 838.598 5
-5 -1 9 128.763 154.719 4
-5 1 9 548.811 152.66 4
5 1 10 158.179 83.0668 8
5 -1 10 172.874 78.3163 8
5 -1 10 97.0238 126.334 3
-5 -1 10 168.832 121.223 6
5 -1 10 182.565 364.235 5
-5 -1 10 -180.416 238.015 4
-5 1 10 63.2942 32.3168 4
5 1 11 123.793 81.1123 8
5 -1 11 29.7507 41.7716 8
-5 -1 11 207.981 132.388 6
5 -1 11 513.884 824.835 5
-5 -1 11 34.3152 150.105 4
-5 1 11 37.8576 67.9701 4
5 -1 12 5992.22 490.707 8
-5 -1 12 3334.08 456.782 6
5 -1 12 1426.96 1323.54 5
-5 1 12 4791.91 550.406 4
-5 -1 12 2083.85 557.176 4
5 1 12 6326.9 463.388 8
5 -1 13 179.796 92.7298 8
-5 -1 13 128.712 62.7941 1
5 -1 13 547.702 522.391 5
-5 1 13 247.598 127.656 4
5 -1 14 1400.62 233.224 8
-5 -1 14 1114.48 169.73 1
-5 1 14 948.316 280.231 4
5 -1 15 2210.19 1368.69 5
-5 1 15 76.523 81.2931 4
5 -1 16 1929.24 1323.59 5
-5 1 16 259.513 174.69 4
-5 1 17 67.5519 137.018 4
-5 -2 -17 115.675 116.006 2
-5 2 -16 97.1956 93.3983 7
-5 -2 -16 21.7028 84.5263 2
5 2 -16 4.10636 69.562 3
5 -2 -16 226.21 129.135 3
-5 -2 -15 345.299 128.396 7
-5 -2 -15 242.67 150.807 2
-5 -2 -15 131.168 52.4733 6
5 2 -15 218.821 147.271 3
5 -2 -15 492.698 180.268 3
-5 2 -15 301.027 121.772 7
-5 2 -14 356.57 140.098 7
-5 -2 -14 330.924 132.182 7
-5 -2 -14 383.295 170.702 2
-5 -2 -14 212.198 99.4139 6
5 2 -14 559.367 263.061 3
5 -2 -14 549.115 186.393 3
5 -2 -13 1530.8 297.895 3
-5 2 -13 1322.2 260.42 7
-5 -2 -13 1108.36 223.758 7
-5 -2 -13 950.554 258.064 2
5 2 -13 1740.56 465.416 3
-5 -2 -13 1068.97 205.806 6
-5 -2 -12 12.7834 74.1168 2
-5 -2 -12 53.1113 39.9504 6
5 2 -12 -44.9415 57.3041 3
5 -2 -12 124.275 123.598 3
-5 -2 -11 101.869 67.9204 2
-5 -2 -11 157.122 83.3585 6
-5 2 -11 -73.9616 82.0153 6
5 2 -11 181.715 188.507 3
5 -2 -11 281.275 129.203 3
-5 2 -11 113.403 73.0125 7
-5 -2 -10 3574.93 356.795 6
-5 2 -10 2644.58 377.976 6
5 2 -10 3024.84 650.872 3
-5 -2 -10 2520.81 385.287 2
5 -2 -10 2930.86 379.766 8
5 -2 -10 3966.12 436.901 3
-5 -2 -9 3440.05 357.639 6
-5 2 -9 3204.45 432.848 6
5 2 -9 2403 569.746 3
5 -2 -9 3583.22 405.97 3
-5 -2 -9 2495.09 366.73 2
5 -2 -9 3044.74 386.347 8
5 -2 -8 43.6043 67.706 8
-5 -2 -8 30.6784 50.9439 2
-5 -2 -8 209.651 129.242 6
-5 2 -8 26.0599 75.5157 6
5 2 -8 -46.7797 141.936 3
5 -2 -8 68.4642 64.6484 3
5 -2 -7 28181.5 1239.94 3
-5 -2 -7 23587 1107.12 6
-5 2 -7 23083.9 1327.4 6
-5 -2 -7 20105.2 1114.25 2
5 -2 -7 20684.1 1130.93 8
5 2 -7 25292.5 1900.72 3
5 -2 -6 3172.88 360.329 3
-5 -2 -6 2537.76 331.33 6
-5 2 -6 2652.86 413.72 6
5 -2 -6 2930.42 345.314 2
-5 -2 -6 2573.79 345.634 2
5 -2 -6 2995.81 364.783 8
5 2 -6 3459.12 685.505 3
5 -2 -5 921.023 204.437 8
5 -2 -5 794.478 175.174 2
-5 -2 -5 907.832 217.105 6
5 2 -5 721.668 312.167 3
-5 -2 -5 641.718 160.207 2
-5 2 -5 1153.33 269.706 6
-5 2 -5 942.902 97.6555 4
5 -2 -5 1041.95 205.933 3
5 -2 -4 725.637 176.128 8
5 -2 -4 505.082 129.331 2
-5 -2 -4 459.382 126.763 6
5 2 -4 603.921 296.668 3
-5 2 -4 704.521 214.106 6
-5 -2 -4 505.515 143.8 2
5 -2 -4 631.086 159.247 3
-5 2 -4 532.897 79.109 4
5 -2 -3 911.741 187.73 8
5 -2 -3 716.258 142.941 2
5 2 -3 712.159 276.377 3
-5 -2 -3 668.212 165.31 6
-5 2 -3 949.783 239.821 6
-5 -2 -3 820.904 174.182 2
5 -2 -3 813.325 187.105 3
-5 2 -3 892.126 106.952 4
5 -2 -2 1737.74 251.938 3
-5 2 -2 1986.38 377.4 6
5 2 -2 1943.1 479.899 3
-5 -2 -2 1524.15 233.893 2
-5 2 -2 1729.69 164.287 4
5 -2 -2 1631.16 190.031 2
5 -2 -2 2025.58 292.305 8
5 -2 -1 58977.1 2070.28 3
-5 -2 -1 63632.3 2092.1 2
-5 -2 -1 75408.4 2517.4 6
-5 2 -1 69152.5 2543.93 6
-5 2 -1 59219.8 1796.67 4
5 2 -1 73770.7 3230.95 3
5 -2 -1 69291.7 2204.32 8
5 -2 -1 56184.1 1762.7 2
5 -2 0 96.1087 91.6995 8
5 2 0 0.21464 158.662 3
5 -2 0 33.6986 41.3537 3
-5 -2 0 -34.6195 59.9731 2
-5 2 0 48.1282 41.4097 4
5 -2 0 17.2824 11.2384 2
-5 -2 1 64949.7 2075.29 2
-5 -2 1 69301.2 2464.64 6
5 -2 1 60054.8 2086.97 3
-5 2 1 58781.4 1851.43 4
5 2 1 70818.3 3132.44 3
5 -2 1 70919.2 2232.35 8
5 2 2 2122.14 477.566 3
-5 -2 2 1992.91 326.303 6
-5 2 2 1679.24 191.795 4
-5 -2 2 1867.16 240.308 2
5 -2 2 2171.82 298.421 8
5 -2 2 1951.48 253.806 3
5 -2 3 902.542 190.096 8
5 -2 3 932.541 177.737 3
5 2 3 962.954 316 3
-5 -2 3 1041.81 235.868 6
-5 2 3 841.621 136.991 4
5 -2 4 683.501 168.334 8
-5 -2 4 347.289 142.145 6
5 -2 4 440.453 120.738 3
5 2 4 418.874 234.862 3
-5 2 4 509.988 112.304 4
5 -2 5 1014.63 200.868 8
5 2 5 591.599 252.215 3
-5 -2 5 663.088 170.396 6
-5 2 5 1016.16 162.673 4
5 -2 5 913.306 183.403 3
5 2 6 2290.09 488.73 3
-5 -2 6 2300.18 367.106 6
-5 2 6 2681.44 279.268 4
5 2 6 2867.08 362.593 8
5 -2 6 2601.31 308.641 8
-5 -2 7 19910.1 1197.5 6
-5 2 7 24354.9 1019.39 4
5 2 7 19331.5 1526.39 3
5 2 7 22908.7 1146.08 8
5 -2 7 24947.8 1108.61 8
5 2 8 20.6676 52.3777 8
5 -2 8 40.3276 56.3333 8
5 2 8 204.998 179.404 3
-5 -2 8 114.922 120.966 6
-5 2 8 78.5493 70.2725 4
5 -2 9 2761.92 328.729 8
5 2 9 2281.19 519.657 3
-5 -2 9 2483.12 366.7 6
-5 2 9 3226.14 342.771 4
5 2 9 2264.53 297.993 8
5 -2 10 3306.07 362.528 8
-5 -2 10 2330.76 370.297 6
-5 2 10 3283.39 364.111 4
5 2 10 2951.18 326.13 8
5 -2 11 46.6539 60.9813 8
-5 -2 11 243.882 84.3591 1
-5 2 11 172.671 96.9022 4
5 -2 12 188.926 126.044 8
-5 -2 12 54.4911 46.6818 1
-5 2 12 125.624 99.8812 4
5 -2 13 1529.58 255.101 8
-5 -2 13 853.364 160.464 1
-5 2 13 825.849 210.395 4
-5 -2 14 348.93 106.469 1
-5 2 14 133.18 103.889 4
-5 -2 15 234.993 85.573 1
-5 2 15 346.24 152.991 4
-5 2 16 -39.7213 77.8251 4
-5 -2 16 27.6798 34.4276 1
5 -3 -16 126.512 153.374 2
-5 -3 -16 57.1745 99.4721 2
5 -3 -15 107.77 99.0583 2
-5 3 -15 136.332 107.236 7
-5 -3 -15 78.5847 103.912 2
5 3 -15 6.04823 94.4336 3
5 -3 -15 113.422 108.961 3
5 -3 -14 275.909 215.111 2
-5 3 -14 60.3838 62.4226 7
-5 -3 -14 192.979 150.178 2
-5 -3 -14 -98.6947 70.112 6
5 3 -14 55.8865 74.4586 3
5 -3 -14 115.644 90.828 3
5 -3 -13 437.695 226.178 2
-5 3 -13 342.921 143.706 7
-5 -3 -13 160.197 108.11 2
-5 -3 -13 235.89 97.0595 6
5 3 -13 502.381 276.924 3
5 -3 -13 421.201 159.545 3
5 -3 -12 1996.21 317.68 3
-5 3 -12 1516.67 262.879 7
-5 -3 -12 1600.09 246.485 6
-5 -3 -12 1112.9 288.559 2
5 3 -12 1766.39 520.533 3
5 -3 -12 2087.04 420.721 2
5 -3 -11 149.465 138.832 2
-5 3 -11 99.2944 78.57 7
-5 -3 -11 18.7261 48.3832 2
-5 -3 -11 26.9286 39.4958 6
5 3 -11 -39.7007 175.564 3
5 -3 -11 -11.1165 31.1259 3
5 -3 -10 2560.5 331.356 3
-5 3 -10 2200.53 308.428 7
-5 -3 -10 2210.68 282.541 6
5 3 -10 2180.6 565.319 3
5 -3 -10 2244.32 400.585 2
-5 -3 -10 1963.41 370.75 2
5 -3 -9 131.983 116.511 2
-5 3 -9 95.5431 47.6191 7
-5 -3 -9 129.743 72.657 6
-5 -3 -9 40.5481 35.174 2
-5 3 -9 55.5237 84.8023 6
5 3 -9 53.874 171.227 3
5 -3 -9 99.0008 73.9123 3
5 -3 -8 -20.1485 46.5231 8
5 -3 -8 102.977 101.737 2
-5 -3 -8 56.0225 31.2138 6
-5 -3 -8 87.8099 87.6835 2
-5 3 -8 -84.9354 122.143 6
5 -3 -8 71.7634 70.5559 3
5 -3 -7 19.1629 70.514 8
5 -3 -7 50.6959 91.6742 2
-5 -3 -7 142.763 94.8092 6
-5 -3 -7 -20.1177 58.4011 2
-5 3 -7 -160.168 119.643 6
5 3 -7 104.082 219.33 3
5 -3 -7 96.6274 80.2289 3
5 -3 -6 4.22655 43.5111 8
5 -3 -6 118.825 104.592 2
-5 -3 -6 36.2914 64.2264 6
5 3 -6 119.641 212.093 3
-5 3 -6 -13.122 76.3165 6
-5 -3 -6 -46.4308 44.3592 2
5 -3 -6 42.982 47.8327 3
5 -3 -5 1746.14 219.609 3
-5 -3 -5 1690.57 250.223 6
5 3 -5 1525.69 545.452 3
-5 3 -5 1171.15 284.188 6
-5 -3 -5 1246.53 266.307 2
-5 3 -5 1074.7 133.316 4
5 -3 -5 1488.69 262.587 2
5 -3 -5 1438.13 243.128 8
5 -3 -4 4963.19 352.58 3
-5 -3 -4 4717.03 433.783 6
-5 3 -4 4182.97 562.282 6
-5 3 -4 4177.86 281.359 4
5 -3 -4 4217.34 449.61 2
5 3 -4 3862.58 731.425 3
-5 -3 -4 3662.14 449.08 2
5 -3 -4 4881.7 437.962 8
5 -3 -3 1022.14 144.483 3
5 3 -3 1210.22 411.744 3
-5 -3 -3 857.033 187.694 6
5 -3 -3 859.334 182.695 2
-5 3 -3 710.056 245.263 6
-5 -3 -3 655.206 180.212 2
-5 3 -3 664.376 110.946 4
5 -3 -3 1106.68 215.993 8
-5 -3 -2 3100.3 352.243 6
5 3 -2 2416.24 560.341 3
-5 -3 -2 2155.25 323.232 2
-5 3 -2 1970.03 368.394 6
-5 3 -2 2105.53 206.248 4
5 -3 -2 2378.27 208.099 3
5 -3 -2 2108.29 270.448 2
5 -3 -2 2905.6 343.202 8
5 -3 -1 8625.81 397.738 3
-5 -3 -1 8628.08 614.344 6
-5 -3 -1 7440.8 613.525 2
-5 3 -1 7254.94 432.048 4
5 3 -1 8243.4 1065.96 3
5 -3 -1 7529.42 503.983 2
5 -3 0 170.217 125.467 8
5 3 0 195.65 185.687 3
5 -3 0 44.0969 23.855 3
5 -3 0 -34.6303 59.9788 2
-5 -3 0 13.6692 50.1895 2
-5 3 0 72.4302 49.1719 4
5 -3 1 7318.1 423.375 2
-5 -3 1 8573.4 642.565 6
-5 -3 1 8349.69 636.402 2
-5 3 1 7782.38 462.061 4
5 3 1 7489.25 943.047 3
5 -3 1 10879.4 677.108 8
-5 -3 2 2286.2 329.26 2
5 3 2 2436.07 522.838 3
-5 -3 2 1880.49 298.635 6
-5 3 2 2236.68 231.975 4
5 -3 2 2524.91 309.947 8
5 -3 3 1015.08 185.025 8
5 3 3 550.63 222.554 3
-5 -3 3 617.099 173.183 6
-5 3 3 558.549 118.65 4
-5 -3 3 816.825 188.156 2
5 -3 4 4929.95 440.277 8
-5 -3 4 4646.56 465.099 6
-5 3 4 4035.93 340.785 4
5 3 4 3507 655.606 3
5 -3 5 1677.63 252.435 8
5 3 5 1435.29 402.483 3
-5 -3 5 1441.8 272.137 6
5 3 5 842.605 634.909 5
-5 3 5 1372.44 200.556 4
5 -3 6 -34.4644 41.0826 8
5 3 6 643.295 330.452 3
-5 -3 6 -5.22004 44.1963 6
5 3 6 934.233 586.322 5
-5 3 6 -9.4532 28.3025 4
5 -3 7 1.94834 49.7161 8
5 3 7 -2.65955 115.309 3
-5 -3 7 37.6596 85.6659 6
5 3 7 182.075 378.178 5
-5 3 7 -14.7967 21.854 4
5 3 8 19.2423 31.9191 8
5 -3 8 -17.7966 32.8005 8
5 3 8 18.4022 55.8896 3
-5 3 8 69.7604 58.7742 4
5 -3 9 127.908 78.582 8
5 3 9 176.049 217.507 3
-5 3 9 178.082 94.3884 4
-5 -3 9 231.789 87.0647 1
5 -3 10 1833.28 279.542 8
5 3 10 2229.62 1219.46 5
-5 -3 10 2296.95 260.643 1
-5 3 10 2152.54 293.703 4
5 3 10 1663.45 456.836 3
5 -3 11 42.8458 55.3652 8
-5 -3 11 65.2138 69.567 1
-5 3 11 69.5863 75.8053 4
-5 -3 12 1254.09 211.68 1
-5 3 12 1381.5 252.937 4
-5 -3 13 275.64 95.0396 1
-5 3 13 503.627 160.793 4
-5 -3 14 50.5062 38.1006 1
-5 3 14 19.0105 40.1184 4
-5 3 15 114.952 117.322 4
-5 -3 15 22.6746 28.4696 1
-5 -3 16 -32.1452 40.391 1
5 -4 -15 578.921 292.371 2
-5 -4 -15 157.924 134.306 2
5 -4 -14 -137.542 95.1907 2
-5 -4 -14 -139.265 131.302 2
5 4 -14 -102.046 60.7238 3
5 -4 -14 108.772 105.094 3
-5 4 -13 121.033 113.54 7
5 -4 -13 14.6691 43.2131 2
-5 -4 -13 101.379 112.902 2
5 4 -13 121.993 149.109 3
5 -4 -13 120.382 83.7064 3
5 -4 -12 3301.15 422.137 3
-5 4 -12 2497.49 352.483 7
-5 -4 -12 1691.07 403.176 2
5 4 -12 2727.58 671.142 3
5 -4 -12 2615.99 525.288 2
-5 4 -11 196.317 99.171 7
5 -4 -11 395.669 226.162 2
-5 -4 -11 165.552 76.7002 6
-5 -4 -11 269.349 162.516 2
5 4 -11 -160.815 86.5568 3
5 -4 -11 226.787 106.496 3
-5 4 -10 457.549 158.773 7
5 -4 -10 552.521 236.283 2
-5 -4 -10 375.414 120.615 6
-5 -4 -10 478.543 201.805 2
5 4 -10 380.82 302.062 3
5 -4 -10 499.08 155.151 3
5 -4 -9 434.622 193.945 2
-5 -4 -9 467.812 133.476 6
-5 -4 -9 674.447 241.296 2
5 4 -9 419.367 279.247 3
-5 4 -9 608.597 161.281 7
5 -4 -9 677.931 166.445 3
-5 4 -8 118.208 72.2434 7
-5 -4 -8 271.492 102.048 6
5 -4 -8 301.867 165.383 2
5 4 -8 629.136 359.021 3
-5 -4 -8 63.5475 63.635 2
5 -4 -8 255.288 96.9082 3
5 -4 -7 1174.97 199.442 3
-5 4 -7 1032.56 204.043 7
-5 -4 -7 1300.1 207.092 6
5 -4 -7 1109.7 285.564 2
5 4 -7 1157.89 465.766 3
-5 -4 -7 845.284 245.905 2
5 -4 -6 209.454 84.0635 8
-5 4 -6 339.373 123.162 7
-5 -4 -6 375.827 113.681 6
5 -4 -6 262.709 148.258 2
5 4 -6 50.4618 96.5885 3
-5 4 -6 372.938 187.214 6
-5 -4 -6 266.769 128.488 2
5 -4 -6 251.345 91.4117 3
5 -4 -5 1572.92 208.09 3
-5 -4 -5 1991.8 258.005 6
5 4 -5 1680.86 538.611 3
5 -4 -5 1278.3 280.36 2
-5 4 -5 1231.9 309.982 6
-5 -4 -5 1202.06 287.06 2
-5 4 -5 1547.47 192.307 4
5 -4 -5 1657.56 235.686 8
-5 -4 -4 1682.95 238.495 6
5 4 -4 1624.76 497.82 3
-5 4 -4 1142.36 307.725 6
-5 -4 -4 1029.29 265.743 2
-5 4 -4 1399.9 181.193 4
5 -4 -4 1489.14 289.073 2
5 -4 -4 1590.8 232.412 8
5 -4 -3 13.6205 33.7389 8
5 4 -3 -8.21211 124.989 3
-5 -4 -3 41.7212 55.1272 6
-5 4 -3 212.778 131.226 6
5 -4 -3 26.9916 45.4268 2
-5 -4 -3 18.8362 65.1186 2
-5 4 -3 -1.02858 23.9999 4
5 -4 -2 497.47 135.831 8
5 4 -2 472.563 287.927 3
-5 -4 -2 434.337 110.094 6
5 -4 -2 384.267 129.751 2
-5 -4 -2 387.701 164.788 2
-5 4 -2 368.579 96.5462 4
5 -4 -1 822.633 173.645 8
5 4 -1 583.419 304.9 3
-5 -4 -1 729.018 150.959 6
5 -4 -1 691.363 171.698 2
-5 -4 -1 703.534 207.742 2
-5 4 -1 509.95 113.633 4
5 -4 0 639.887 156.433 8
5 4 0 345.288 224.268 3
-5 -4 0 470.04 123.441 6
5 -4 0 360.444 114.594 2
-5 -4 0 307.761 128.807 2
-5 4 0 357.569 94.8459 4
5 -4 1 779.964 164.986 8
5 4 1 444.411 266.924 3
-5 -4 1 633.977 138.312 6
-5 -4 1 420.081 164.338 2
5 -4 1 364.537 115.063 2
-5 4 1 479.15 115.34 4
5 -4 2 450.121 126.562 8
5 4 2 231.253 188.397 3
-5 -4 2 513.962 121.18 6
-5 -4 2 466.191 165.548 2
-5 4 2 396.874 108.989 4
5 -4 2 323.973 97.0746 2
5 -4 3 -9.88689 60.5255 8
5 4 3 2.94862 134.521 3
-5 -4 3 159.561 86.6718 6
-5 4 3 16.674 39.5351 4
-5 -4 3 46.1643 73.2272 2
5 -4 4 1423.86 235.289 8
-5 -4 4 1550.53 288.039 2
5 4 4 1074.19 347.857 3
-5 -4 4 1591.48 212.972 6
5 4 4 1141.57 688.032 5
-5 4 4 1226.21 198.832 4
5 -4 5 1724.53 258.987 8
5 4 5 1233.57 451.039 3
5 4 5 1374.37 909.027 5
-5 4 5 1321.05 208.748 4
5 -4 6 288.074 126.777 8
5 4 6 330.823 253.923 3
5 4 6 761.345 707.98 5
-5 -4 6 296.578 103.455 1
-5 4 6 138.181 72.9429 4
5 -4 7 1208.88 228.382 8
5 4 7 981.136 385.822 3
5 4 7 1817.44 1021.49 5
-5 -4 7 1227.99 202.719 1
-5 4 7 876.851 177.423 4
5 -4 8 258.555 112.903 8
5 4 8 166.698 132.178 3
5 4 8 712.183 572.875 5
-5 -4 8 293.981 118.539 1
-5 4 8 298.114 119.391 4
5 4 9 604.788 311.285 3
-5 -4 9 648.59 158.124 1
5 4 9 1124.51 771.89 5
-5 4 9 774.038 176.576 4
5 4 10 461.617 305.412 3
5 4 10 867.472 731.621 5
-5 -4 10 524.267 146.643 1
-5 4 10 417.91 132.546 4
5 4 11 117.608 245.167 3
-5 -4 11 210.705 94.7468 1
5 4 11 8.74616 723.82 5
-5 4 11 133.254 86.7788 4
5 4 12 2141.03 621.852 3
-5 -4 12 2439.02 324.144 1
5 4 12 1581.19 1260.28 5
-5 4 12 3153.58 393.198 4
5 4 13 41.4962 184.412 3
5 4 13 317.511 654.247 5
-5 4 13 92.7457 86.3992 4
-5 -4 13 32.8614 65.1552 1
5 4 14 991.225 1151.87 5
5 -5 -13 0.13842 70.1817 3
-5 5 -12 359.386 142.114 7
-5 -5 -12 476.171 229.567 2
5 5 -12 634.365 333.958 3
-5 5 -11 224.667 114.254 7
-5 -5 -11 67.1595 122.85 2
5 5 -11 129.785 211.001 3
-5 5 -10 176.988 90.9465 7
-5 -5 -10 181.731 135.526 2
5 5 -10 133.954 171.018 3
-5 5 -9 35.1515 57.1985 7
5 -5 -9 -150.902 134.843 2
-5 -5 -9 31.5447 61.4195 2
-5 5 -8 98.6183 76.7444 7
5 -5 -8 -96.3292 77.9813 2
5 5 -8 -26.7585 134.942 3
-5 -5 -8 37.4773 45.0535 2
-5 5 -7 400.584 123.52 7
-5 -5 -7 410.381 129.384 6
5 5 -7 561.705 370.405 3
5 -5 -7 363.623 181.044 2
-5 -5 -7 336.985 189.304 2
-5 5 -6 1010.28 192.075 7
-5 -5 -6 965.786 185.094 6
5 5 -6 843.075 416.951 3
5 -5 -6 1165.46 314.754 2
-5 -5 -6 1052.99 293.24 2
-5 5 -5 1165.76 198.527 7
-5 -5 -5 1087.14 193.793 6
5 5 -5 1222.65 472.469 3
-5 -5 -5 1026.85 285.629 2
5 -5 -4 25.1899 24.6059 8
-5 5 -4 103.263 64.3243 7
-5 -5 -4 31.9784 53.271 6
5 5 -4 -61.5666 208.404 3
-5 -5 -4 -19.0031 96.711 2
-5 5 -4 -13.2112 36.2826 4
5 -5 -3 10.3569 41.7012 8
-5 -5 -3 101.988 64.0841 6
-5 -5 -3 3.89398 34.4 2
-5 5 -3 -18.3472 38.0903 4
5 -5 -2 1053.22 196.686 8
-5 -5 -2 1074.13 182.176 6
5 5 -2 455.028 321.201 3
-5 -5 -2 830.568 152.953 1
-5 -5 -2 501.929 200.451 2
-5 5 -2 737.697 162.985 4
5 -5 -1 6253.83 486.606 8
-5 -5 -1 4702.37 597.422 2
-5 -5 -1 5618.18 411.088 6
-5 -5 -1 5275.68 409.663 1
-5 5 -1 4855.86 423.662 4
5 5 -1 4985.92 890.642 3
5 -5 0 1026.13 203.921 8
5 5 0 316.481 255.66 3
-5 -5 0 811.767 148.272 6
-5 -5 0 573.987 130.083 1
-5 -5 0 276.009 141.272 2
-5 5 0 580.039 148.409 4
5 -5 1 5959.98 488.09 8
-5 -5 1 4830.88 586.46 2
-5 -5 1 5634.95 392.124 6
-5 -5 1 5560.23 426.538 1
-5 5 1 5189.37 447.63 4
5 5 1 4500.68 813.94 3
5 5 2 803.533 367.858 3
-5 -5 2 757.945 132.251 6
-5 -5 2 736.857 157.618 1
5 -5 2 878.524 184.844 8
-5 -5 2 838.168 233.837 2
-5 5 2 691.34 162.517 4
-5 -5 3 211.544 110.983 1
5 -5 3 67.2284 63.7057 8
5 5 3 120.142 178.876 3
-5 5 3 50.9206 54.6911 4
-5 -5 3 124.48 108.719 2
5 5 4 -10.8343 63.126 3
-5 -5 4 181.395 92.1813 1
-5 5 4 65.9687 62.9673 4
-5 -5 4 -7.93515 49.338 2
-5 -5 5 1532.17 318.957 2
5 5 5 787.407 377.404 3
-5 -5 5 1006.96 190.374 1
-5 5 5 1120.73 217.075 4
5 5 6 762.96 314.702 3
-5 5 6 1096.93 218.264 4
-5 -5 6 1038.14 195.068 1
5 5 7 339.358 311.218 3
-5 -5 7 290.976 98.7803 1
-5 5 7 325.211 119.615 4
5 5 8 295.605 308.086 3
-5 -5 8 143.654 79.6749 1
5 -5 8 -143.939 117.45 1
-5 5 8 13.9171 19.6372 4
5 5 9 -99.9302 133.639 3
-5 -5 9 43.2131 43.3459 1
5 -5 9 192.753 103.748 1
-5 5 9 36.0567 55.5038 4
-5 -5 10 344.392 125.352 1
5 5 10 12.7129 200.915 3
5 -5 10 360.415 182.015 1
-5 5 10 362.073 133.372 4
5 5 11 2196.9 1270.02 5
5 5 12 1219.85 1129.38 5
5 6 -9 587.388 362.603 3
5 6 -8 208.198 255.853 3
-5 -6 -8 56.7958 133.814 2
5 6 -7 2111.95 627.812 3
-5 -6 -7 1470.72 390.302 2
5 6 -6 1712.49 591.156 3
-5 -6 -6 765.931 275.2 2
5 6 -5 879.515 448.023 3
-5 -6 -5 705.048 267.227 2
5 6 -4 410.984 318.792 3
-5 -6 -4 284.333 155.376 2
5 6 -3 479.507 265.284 3
-5 -6 -3 824.562 289.479 2
-5 6 -3 637.203 166.544 4
5 6 -2 10.376 173.799 3
-5 -6 -2 -24.2381 57.1643 2
-5 -6 -2 64.5381 37.6431 1
-5 6 -2 82.4019 60.2371 4
5 6 -1 998.635 427.976 3
-5 6 -1 924.194 219.516 4
-5 -6 -1 1048.69 187.867 1
-5 -6 -1 813.201 255.516 2
5 6 0 148.067 183.765 3
-5 -6 0 62.7066 57.8887 1
-5 -6 0 23.857 97.3484 2
-5 6 0 27.497 50.3216 4
5 6 1 1520.07 512.79 3
-5 -6 1 1154.15 212.69 1
-5 -6 1 1240.49 318.609 2
-5 6 1 997.568 215.267 4
5 6 2 117.772 143.023 3
-5 -6 2 72.729 57.6974 1
-5 -6 2 85.8529 100.011 2
-5 6 2 73.1615 62.1214 4
5 6 3 707.052 339.958 3
-5 -6 3 684.733 171.277 1
-5 6 3 659.395 185.85 4
-5 -6 3 845.445 259.091 2
5 6 4 535.833 317.558 3
-5 -6 4 479.208 144.69 1
-5 6 4 415.33 149.632 4
-5 -6 4 530.071 210.076 2
-5 -6 5 757.993 184.115 1
5 6 5 373.306 217.271 3
-5 6 5 722.267 193.569 4
-5 -6 5 912.43 270.37 2
-5 -6 6 1017.13 221.333 1
5 6 6 842.854 417.173 3
-5 6 6 1021.87 230.651 4
-5 7 -2 1858.39 319.939 4
-5 7 -1 367.421 146.702 4
-6 0 -16 432.531 159.762 7
-6 0 -15 197.958 127.454 7
-6 0 -15 233.16 94.1961 6
6 0 -15 338.241 228.975 3
-6 0 -14 133.265 97.8783 7
-6 0 -14 146.931 77.7302 6
6 0 -14 -64.0429 46.5153 3
6 0 -13 4823.39 662.534 3
-6 0 -13 3652.99 385.951 6
-6 0 -12 1422.61 255.522 6
6 0 -12 1496.97 381.328 3
-6 0 -11 502.892 167.292 6
6 0 -11 321.638 205.219 3
-6 0 -10 1586.86 294.19 6
6 0 -10 1736.52 429.127 3
-6 0 -9 1253 282.674 6
6 0 -9 1072.75 342.988 3
-6 0 -8 -127.066 53.0082 6
6 0 -8 290.582 265.624 3
-6 0 -7 128.194 167.355 6
6 0 -7 -43.7999 76.3336 3
-6 0 -6 17036 1180.1 6
6 0 -6 16106.5 1428.81 3
-6 0 -5 772.425 243.818 6
6 0 -5 605.05 274.402 3
-6 0 -4 4618.57 585.072 6
6 0 -4 4449.3 732.443 3
-6 0 -3 -53.9 117.802 6
6 0 -3 541.387 302.331 3
-6 0 -2 12842.9 1016.4 6
6 0 -2 11561.7 1163.97 3
-6 0 -1 9079.48 841.788 6
6 0 -1 9171.27 1032.28 3
-6 0 0 26485.3 1496.34 6
6 0 0 28831.4 1837.76 3
-6 0 1 8898.91 810.494 6
6 0 1 10087.7 1022.79 3
6 0 1 8684.65 713.05 8
-6 0 2 11703 942.651 6
6 0 2 14665.8 1223.07 3
6 0 2 11476.5 829.354 8
6 0 3 387.666 161.355 8
6 0 3 479.412 238.146 3
-6 0 3 305.432 176.088 6
-6 0 3 228.172 149.086 4
-6 0 4 3443.52 489.058 6
-6 0 4 2873.73 453.731 4
6 0 4 4734.85 679.649 3
6 0 4 4240 469.524 8
6 0 5 844.921 201.224 8
6 0 5 798.601 293.653 3
-6 0 5 701.662 226.195 6
-6 0 5 481.24 191.595 4
-6 0 6 12635.7 970.293 6
-6 0 6 12585.9 1035.98 4
6 0 6 14940.4 1260.69 3
6 0 6 16269.8 951.068 8
6 0 7 42.8896 69.2274 8
6 0 7 -20.0813 77.1449 3
-6 0 7 49.5505 87.1408 6
-6 0 7 101.528 122.806 4
6 0 8 203.6 118.707 8
6 0 8 81.0672 146.54 3
-6 0 8 22.1986 88.4348 4
6 0 9 1059.87 325.774 3
6 0 9 1037.96 1034.42 5
-6 0 9 1149.31 339.304 4
6 0 9 1809.23 300.055 8
6 0 10 1399.22 390.964 3
6 0 10 1471.16 1007.03 5
-6 0 10 944.537 308.307 4
6 0 10 2277.84 331.019 8
6 0 11 494.178 150.139 8
6 0 11 335.896 216.25 3
6 0 11 104.053 614.52 5
-6 0 11 160.461 133.31 4
6 0 12 921.661 210.942 8
6 0 12 848.643 306.223 3
6 0 12 1570.79 1065.48 5
-6 0 12 481.188 259.707 4
6 0 13 548.872 887.621 5
-6 0 13 1741.09 501.988 4
6 0 14 629.313 914.117 5
-6 0 14 199.894 145.437 4
6 0 15 419.406 615.998 5
-6 0 15 -6.17506 85.1318 4
-6 0 16 195.179 108.539 4
-6 -1 -17 281.727 111.362 6
-6 -1 -16 236.457 123.197 7
-6 -1 -16 -3.20383 43.6511 6
-6 1 -15 145.759 109.265 7
-6 -1 -15 195.759 116.233 7
-6 -1 -15 250.014 103.283 6
6 1 -15 344.036 195.058 3
6 -1 -15 249.02 146.635 3
-6 1 -14 362.963 162.788 7
-6 -1 -14 525.684 183.91 7
-6 -1 -14 416.427 128.209 6
6 1 -14 721.913 299.644 3
6 -1 -14 545.095 189.13 3
-6 1 -13 679.086 195.747 7
-6 -1 -13 505.819 152.322 6
-6 1 -13 616.459 174.712 6
6 1 -13 503.403 266.725 3
6 -1 -13 815.24 236.493 3
-6 -1 -12 1896.78 289.414 6
-6 1 -12 1124.66 229.198 6
6 1 -12 1073.05 368.898 3
6 -1 -12 1890.74 376.085 3
6 1 -11 6547.75 917.476 3
6 -1 -11 6814.24 734.423 3
-6 -1 -11 5482.32 516.285 6
-6 1 -11 5083.9 545.414 6
-6 -1 -10 3302.59 401.133 6
-6 1 -10 2402.57 383.793 6
6 1 -10 3247.64 637.926 3
-6 -1 -9 -12.349 65.8477 6
-6 1 -9 345.611 179.5 6
6 1 -9 -66.0742 125.273 3
6 -1 -9 255.453 138.434 3
6 -1 -8 7585.31 781.408 3
-6 -1 -8 6694.9 644.037 6
-6 1 -8 6558.32 708.539 6
6 1 -8 7136.62 992.925 3
6 -1 -7 16774.3 1228.54 3
-6 -1 -7 16940 1102.54 6
-6 1 -7 16541.8 1161.66 6
6 1 -7 15767.5 1528.28 3
-6 -1 -6 1928.81 358.033 6
-6 1 -6 1990.2 378.372 6
6 1 -6 2425.92 596.947 3
6 -1 -6 2124.09 432.232 3
-6 -1 -6 1547.23 222.583 2
-6 -1 -5 5692.03 648.021 6
-6 1 -5 4850.43 620.932 6
-6 -1 -5 4262.36 355.362 2
6 1 -5 5227.75 862.409 3
6 -1 -5 4451.96 626.442 3
6 -1 -4 216.363 124.803 8
-6 -1 -4 185.587 147.851 6
6 1 -4 149.326 204.443 3
-6 1 -4 -30.313 152.517 6
6 -1 -4 153.41 127.292 3
-6 -1 -4 132.42 58.2725 2
-6 1 -4 73.279 59.2731 4
-6 -1 -3 1714.93 187.05 2
6 -1 -3 1548.08 288.759 8
-6 -1 -3 1878.78 393.401 6
6 1 -3 1866.73 523.079 3
-6 1 -3 1859.74 406.482 6
6 -1 -3 1862.01 426.981 3
-6 1 -3 1384.2 231.13 4
-6 -1 -2 912.642 123.079 2
6 -1 -2 790.539 209.598 8
6 1 -2 811.709 315.809 3
-6 -1 -2 1050.65 270.975 6
-6 1 -2 1117.67 316.019 6
6 -1 -2 727.9 273.655 3
-6 1 -2 557.975 129.56 4
6 -1 -1 482.992 187.986 8
-6 -1 -1 513.657 87.0844 2
6 1 -1 345.92 149.948 3
-6 -1 -1 476.866 177.594 6
6 -1 -1 519.549 255.085 3
-6 1 -1 470.449 166.679 6
-6 1 -1 350.878 100.898 4
-6 -1 0 9294.55 833.766 6
-6 1 0 10308.1 899.073 6
-6 1 0 7811.19 538.435 4
6 1 0 10062 1109.48 3
6 -1 0 9876.82 755.956 8
6 -1 0 8315.41 900.392 3
6 -1 1 509.672 176.385 8
6 1 1 505.931 257.026 3
6 -1 1 166.669 128.259 3
-6 -1 1 190.29 94.7738 6
-6 1 1 360.906 174.105 6
-6 1 1 324.334 109.039 4
6 -1 2 924.462 215.821 8
6 1 2 1342.78 378.111 3
6 -1 2 1104.71 315.416 3
-6 -1 2 680.783 173.874 6
-6 1 2 1025.59 270.879 6
-6 1 2 592.774 145.357 4
6 1 3 2274.63 492.794 3
6 -1 3 1420.38 376.401 3
-6 -1 3 1559.19 331.731 6
-6 1 3 1894.07 370.829 6
-6 1 3 1712.38 258.109 4
6 -1 3 1755.75 294.989 8
6 1 4 100.461 72.1718 8
6 -1 4 175.873 98.3282 8
6 1 4 258.858 186.136 3
6 -1 4 269.914 152.151 3
-6 -1 4 88.9619 45.5692 6
6 1 4 221.228 500.571 5
-6 1 4 224.622 94.7996 4
-6 -1 5 4279.73 557.687 6
6 1 5 3588.82 1181.5 5
-6 1 5 4610.59 460.167 4
6 1 5 5646.81 800.072 3
6 -1 5 4971.71 633.152 3
6 1 5 5280.99 544.181 8
6 -1 5 4561.57 471.634 8
6 1 6 1845.66 442.038 3
6 -1 6 1724.07 381.069 3
-6 -1 6 1914.22 356.911 6
6 1 6 926.611 754.344 5
-6 1 6 1825.66 288.91 4
6 1 6 1987.67 324.66 8
6 -1 6 2231.98 333.657 8
-6 -1 7 12215.5 983.091 6
-6 1 7 14351.5 907.889 4
6 1 7 14001.3 1286.98 3
6 -1 7 13570.3 1110.3 3
6 1 7 17149.1 995.989 8
6 -1 7 17584.9 986.052 8
-6 -1 8 5213.83 605.959 6
-6 1 8 5955.46 580.034 4
6 1 8 6137.55 836.303 3
6 -1 8 6188.74 716.84 3
6 1 8 6656.23 584.622 8
6 -1 8 8352.13 670.578 8
6 1 9 63.9305 68.4647 8
6 -1 9 103.524 73.9782 8
6 1 9 46.7093 149.463 3
-6 -1 9 251.979 160.965 6
-6 -1 9 -62.0826 153.49 4
-6 1 9 39.1593 39.0139 4
-6 -1 10 2137.78 376.581 6
-6 1 10 3443.08 485.893 4
6 1 10 2869.79 592.116 3
6 1 10 3887.56 428.123 8
6 -1 10 3552.49 403.01 8
6 -1 11 5949.09 525.989 8
-6 -1 11 4115.36 536.716 6
-6 1 11 4405.06 574.413 4
6 1 11 4206.36 745.907 3
6 1 11 6450.8 573.867 8
6 -1 12 1716.8 276.614 8
6 1 12 1073.1 364.475 3
6 1 12 1263.25 782.201 5
-6 1 12 1031.05 306.8 4
6 1 12 1483.74 252.901 8
6 -1 13 579.938 158.914 8
6 1 13 622.945 329.467 3
6 -1 13 1264.13 1366.08 5
6 1 13 901.871 977.54 5
-6 1 13 207.91 163.824 4
6 -1 14 536.97 158.91 8
6 1 14 501.763 285.464 3
-6 -1 14 242.797 87.9441 1
-6 1 14 27.4044 46.3557 4
6 -1 15 125.546 76.8862 8
6 -1 15 999.529 1183.68 5
-6 1 15 305.36 212.913 4
-6 -2 -15 123.479 82.2296 7
-6 -2 -15 116.241 76.3365 6
6 2 -15 137.064 154.996 3
6 -2 -15 72.2433 94.7684 3
-6 2 -14 364.135 151.938 7
-6 -2 -14 543.607 177.239 7
-6 -2 -14 425.554 136.615 6
6 2 -14 590.346 298.318 3
6 -2 -14 1135.92 278.961 3
-6 2 -13 638.368 199.632 7
-6 -2 -13 493.409 157.376 6
6 2 -13 494.174 287.199 3
6 -2 -13 647.595 211.167 3
6 -2 -12 2358.36 370.267 3
-6 2 -12 1813.25 327.887 7
-6 -2 -12 1833.27 281.917 6
6 2 -12 1891.05 544.048 3
-6 -2 -11 114.909 72.7656 6
-6 2 -11 378.761 162.443 6
6 2 -11 182.253 151.028 3
6 -2 -11 143.253 91.9576 3
6 -2 -10 253.344 104.171 8
-6 -2 -10 394.009 159.78 2
-6 -2 -10 510.757 155.574 6
-6 2 -10 644.863 226.262 6
6 2 -10 119.742 130.425 3
6 -2 -10 480.617 157.149 3
6 -2 -9 24.0051 84.5632 8
-6 -2 -9 16.1495 39.6621 2
-6 -2 -9 223.07 110.574 6
-6 2 -9 320.785 157.997 6
6 2 -9 25.3016 104.692 3
6 -2 -9 -5.7799 31.8279 3
6 -2 -8 931.64 238.268 8
-6 -2 -8 1211.07 242.975 6
-6 -2 -8 883.156 213.918 2
-6 2 -8 1178.24 309.725 6
6 2 -8 995.803 413.837 3
6 -2 -8 1338.11 267.972 3
6 -2 -8 1417.06 267.699 2
6 -2 -7 558.928 174.023 8
6 -2 -7 381.523 139.726 2
-6 -2 -7 667.475 200.468 6
-6 -2 -7 312.004 120.026 2
-6 2 -7 562.277 192.84 6
6 2 -7 447.013 289.256 3
6 -2 -7 500.985 155.003 3
6 -2 -6 1355.35 271.768 8
-6 -2 -6 1541.49 285.502 6
-6 2 -6 951.746 230.991 6
6 2 -6 1302.97 430.736 3
-6 -2 -6 950.786 201.292 2
6 -2 -6 1396.34 268.32 3
6 -2 -5 211.731 112.771 8
-6 -2 -5 -237.754 147.219 6
6 2 -5 332.098 239.438 3
-6 2 -5 196.522 138.295 6
-6 -2 -5 48.8222 52.3483 2
6 -2 -5 219.561 121.662 3
6 -2 -4 6901.58 623.783 3
-6 -2 -4 6270.7 637.734 6
-6 2 -4 7456.18 772.575 6
-6 2 -4 6698.67 357.352 4
6 2 -4 7691.71 1069.15 3
6 -2 -4 6630.47 614.198 8
-6 -2 -4 5910.27 492.732 2
6 -2 -3 2429.28 372.196 3
-6 2 -3 2770.28 487.887 6
6 2 -3 2645.91 608.959 3
-6 -2 -3 1991.34 382.146 6
-6 2 -3 2180.92 197.895 4
6 -2 -3 2598.29 365.582 8
-6 -2 -3 2243.51 285.583 2
6 -2 -2 758.134 199.865 8
-6 -2 -2 1866.06 474.349 6
6 2 -2 716.214 329.121 3
-6 2 -2 657.752 233.799 6
6 -2 -2 845.611 210.487 3
-6 2 -2 789.871 121.912 4
-6 -2 -2 565.982 122.121 2
-6 -2 -1 9469.08 597.431 2
-6 2 -1 10572.4 911.373 6
-6 2 -1 10075.8 510.828 4
6 2 -1 11954.5 1294.05 3
6 -2 -1 11582 801.366 8
6 -2 -1 9526.97 724.087 3
-6 -2 0 24492.6 1042.06 2
-6 -2 0 28177.8 1488.88 6
-6 2 0 25525.4 1485.87 6
-6 2 0 21562.2 894.262 4
6 2 0 27956.6 2013.49 3
6 -2 0 27579.6 1278.35 8
6 -2 0 22306.4 1200.01 3
-6 -2 1 11110.4 614.459 2
-6 -2 1 10654.4 879.176 6
-6 2 1 8654.02 821.355 6
-6 2 1 10168.9 540.442 4
6 2 1 10839.9 1196.14 3
6 -2 1 11008.5 752.31 8
6 -2 1 9079.29 721.607 3
6 -2 2 855.71 198.078 8
6 2 2 828.208 343.154 3
-6 -2 2 969.198 258.107 6
6 -2 2 636.03 168.714 3
-6 2 2 789.5 145.191 4
6 2 3 2107.7 493.256 3
-6 -2 3 1979.45 361.513 6
6 2 3 1155.55 648.801 5
-6 2 3 2266.94 250.731 4
6 -2 3 2336.86 336.486 3
6 -2 3 3029.33 381.141 8
-6 -2 4 5848.86 643.146 6
-6 2 4 6385.42 453.655 4
6 2 4 6370.4 888.862 3
6 -2 4 7649.77 636.583 8
6 -2 5 239.241 121.919 8
6 2 5 -92.7853 149.928 3
-6 -2 5 -84.1744 99.3134 6
-6 2 5 220.408 91.92 4
6 2 6 1365.51 270.056 8
6 -2 6 1493.72 269.922 8
6 2 6 1337.65 417.69 3
-6 -2 6 971.402 268.387 6
6 2 6 886.489 620.266 5
-6 2 6 1368.79 209.742 4
6 2 7 703.455 206.583 8
6 -2 7 466.87 161.422 8
6 2 7 401.783 231.503 3
-6 -2 7 516.983 188.543 6
-6 2 7 541.788 141.632 4
6 2 8 1176.63 249.772 8
6 -2 8 1050.95 222.722 8
6 2 8 1221.45 414.692 3
-6 -2 8 745.84 213.222 6
-6 2 8 1333.07 232.025 4
6 2 9 40.76 68.7575 8
6 -2 9 96.8858 83.5316 8
6 2 9 2.77506 83.0748 3
-6 -2 9 -63.516 91.8432 6
-6 2 9 -14.5107 33.5979 4
6 2 10 308.685 112.796 8
6 -2 10 381.554 136.343 8
6 2 10 97.0342 176.718 3
-6 2 10 317.821 124.763 4
6 -2 11 209.304 109.641 8
6 2 11 303.254 230.316 3
-6 2 11 55.4256 60.7934 4
6 -2 12 1876.49 301.322 8
6 2 12 1362.39 446.935 3
-6 2 12 1508.19 300.668 4
-6 -2 12 1422.02 211.996 1
6 -2 13 737.127 198.407 8
6 2 13 568.192 272.311 3
-6 -2 13 541.856 127.723 1
-6 2 13 291.311 145.514 4
6 2 14 721.089 350.716 3
6 -2 14 428.611 152.672 8
-6 -2 14 368.619 113.956 1
-6 2 14 463.673 181.66 4
6 2 15 126.603 165.147 3
-6 -2 15 142.13 85.079 1
-6 2 15 -36.1257 98.8461 4
6 3 -14 -3.17737 146.291 3
6 -3 -14 100.72 91.4807 3
6 -3 -13 2753.97 413.588 3
-6 3 -13 2311.06 362.065 7
-6 -3 -13 2213.89 320.536 6
6 3 -13 2771.59 686.712 3
-6 3 -12 474.148 168.195 7
-6 -3 -12 396.961 127.406 6
6 3 -12 650.425 347.706 3
6 -3 -12 656.061 191.457 3
-6 3 -11 1150.44 249.228 7
-6 -3 -11 1157.18 221.373 6
-6 -3 -11 523.303 202.209 2
6 3 -11 565.092 363.273 3
6 -3 -11 941.701 217.269 3
-6 3 -10 907.218 203.616 7
-6 -3 -10 1092.58 216.738 6
-6 -3 -10 869.965 252.341 2
6 3 -10 696.536 383.531 3
6 -3 -10 1155.94 235.668 3
-6 -3 -9 87.0248 57.4927 6
-6 3 -9 84.0262 75.7892 6
-6 -3 -9 43.3617 88.6559 2
6 3 -9 -19.4382 133.155 3
6 -3 -9 -5.24895 59.2943 3
6 -3 -8 1559.21 253.62 3
-6 -3 -8 1605.72 270.416 6
-6 3 -8 1133.5 304.306 6
-6 -3 -8 1254.39 274.326 2
6 3 -8 1733.69 568.479 3
6 -3 -8 1408.47 254.83 8
6 -3 -7 685.16 178.098 8
-6 -3 -7 565.564 161.671 6
-6 3 -7 572.604 216.438 6
6 3 -7 466.643 317.867 3
-6 -3 -7 539.2 181.233 2
6 -3 -7 564.849 145.76 3
6 -3 -6 6329.27 494.822 3
-6 -3 -6 5934.9 523.656 6
-6 3 -6 5642.6 695.451 6
-6 -3 -6 4929.17 546.448 2
6 3 -6 5688.89 1009.92 3
6 -3 -6 5311.63 512.178 8
6 -3 -5 1038.59 185.996 3
6 -3 -5 872.512 202.648 8
-6 -3 -5 1018.49 230.247 6
6 3 -5 1242.18 480.338 3
-6 3 -5 1039.21 315.679 6
-6 -3 -5 902.152 221.036 2
6 -3 -4 1259.92 193.577 3
6 -3 -4 1013.22 218.979 8
-6 -3 -4 1284.19 258.692 6
6 3 -4 1131.34 445.364 3
-6 3 -4 1054.7 319.285 6
-6 -3 -4 1027.88 233.17 2
6 -3 -3 2803.83 268.969 3
-6 -3 -3 2716.46 372.75 6
-6 3 -3 2462.05 456.807 6
6 3 -3 2753.47 668.713 3
-6 3 -3 2002.39 200.346 4
6 -3 -3 2779.76 370.655 8
-6 -3 -3 1768.95 299.833 2
-6 -3 -2 5038.69 498.94 2
6 -3 -2 5809.58 381.916 3
-6 3 -2 5845.11 691.205 6
-6 3 -2 5079.52 348.054 4
6 3 -2 4969.8 883.47 3
6 -3 -2 7152.5 598.404 8
-6 -3 -1 11376.4 774.82 2
-6 -3 -1 19323.4 1055.13 6
-6 3 -1 13185 1051.84 6
-6 3 -1 11673.8 594.6 4
6 3 -1 13569.2 1431.65 3
6 -3 -1 16994.2 961.029 8
-6 -3 0 22486.5 1172.45 2
-6 3 0 21824.3 935.298 4
6 3 0 23926.1 1960.35 3
-6 -3 1 12506.2 785.136 2
-6 -3 1 13768.4 920.814 6
-6 3 1 11292.7 612.462 4
6 3 1 12725.6 1367.08 3
-6 -3 2 5747.59 499.039 2
-6 -3 2 6519.77 634.549 6
-6 3 2 5176.29 394.168 4
6 3 2 6330.19 909.12 3
6 -3 2 7314.76 600.619 8
6 3 3 2109.63 522.161 3
-6 -3 3 2736.43 418.162 6
-6 3 3 2242.9 255.304 4
6 -3 3 2582.47 346.111 8
6 -3 4 1385.93 253.082 8
6 3 4 1324.7 469.433 3
-6 -3 4 1330.68 287.074 6
-6 3 4 1037.9 175.01 4
6 -3 5 1224.97 234.715 8
6 3 5 695.111 261.008 3
-6 -3 5 1054.13 254.789 6
-6 3 5 972.59 180.904 4
6 -3 6 5756.72 521.793 8
-6 -3 6 5391.98 562.596 6
-6 3 6 5527.84 447.148 4
6 3 6 4356.89 783.196 3
6 3 7 651.658 202.004 8
6 -3 7 485.031 144.258 8
6 3 7 224.195 217.971 3
-6 -3 7 463.477 164.799 6
-6 3 7 504.258 135.715 4
6 3 8 1337.8 279.709 8
6 -3 8 1423.92 262.236 8
6 3 8 1417.03 486.832 3
-6 3 8 1364.26 227.847 4
6 3 9 128.554 218.37 3
6 -3 9 36.6151 50.6489 8
-6 3 9 59.4338 55.4163 4
6 3 10 692.891 354.348 3
6 -3 10 1124.15 244.754 8
-6 3 10 1189.42 228.422 4
-6 -3 10 1034.12 188.925 1
6 -3 11 968.442 228.513 8
6 3 11 796.235 338.688 3
-6 3 11 1134.1 233.829 4
-6 -3 11 1002.26 183.213 1
6 -3 12 351.03 156.084 8
6 3 12 355.115 299.943 3
-6 -3 12 429.946 128.66 1
-6 3 12 440.825 163.647 4
6 3 13 1560.4 530.27 3
-6 -3 13 1836.52 268.96 1
-6 3 13 2673.61 387.175 4
6 3 14 379.473 286.768 3
-6 -3 14 14 25.9886 1
6 -4 -13 2516.76 392.659 3
-6 4 -12 1205.5 260.386 7
-6 -4 -12 886.261 298.297 2
6 4 -12 639.308 350.193 3
6 -4 -12 1154.12 259.211 3
-6 4 -11 1012.77 242.609 7
-6 -4 -11 962.973 213.599 6
-6 -4 -11 671.628 262.075 2
6 4 -11 875.574 393.852 3
6 -4 -11 1153.58 248.349 3
-6 4 -10 149.055 94.7614 7
-6 -4 -10 194.08 92.075 6
-6 -4 -10 161.137 132.065 2
6 4 -10 312.406 319.919 3
6 -4 -10 332.424 136.044 3
-6 4 -9 536.877 172.263 7
-6 -4 -9 681.783 175.157 6
6 4 -9 980.89 448.395 3
-6 -4 -9 392.92 187.029 2
6 -4 -9 550.906 156.07 3
-6 4 -8 1946.91 299.105 7
-6 -4 -8 2567.91 322.831 6
6 4 -8 1965.84 620.569 3
-6 -4 -8 1699.61 352.885 2
-6 -4 -7 3023.76 350.339 6
6 4 -7 2437.27 679.54 3
-6 -4 -7 2118.56 393.665 2
-6 -4 -6 1891.67 279.313 6
6 4 -6 1919.36 616.408 3
-6 4 -6 1589.68 378.072 6
-6 -4 -6 1350.76 303.563 2
6 -4 -6 2074.92 292.319 8
-6 -4 -5 2380.8 309.538 6
6 4 -5 2387.79 660.108 3
-6 4 -5 1873.16 414.274 6
-6 -4 -5 1445.29 317.044 2
6 -4 -5 2260.33 315.521 8
6 -4 -4 384.687 137.738 8
-6 -4 -4 180.495 118.567 6
6 4 -4 -65.1233 160.521 3
-6 4 -4 132.912 175.129 6
-6 -4 -4 128.879 67.8761 2
6 -4 -3 94.6488 62.3606 8
-6 -4 -3 -12.1157 28.6651 6
6 4 -3 -143.81 267.859 3
-6 4 -3 -58.1478 87.5975 6
-6 -4 -3 18.4621 75.9121 2
-6 4 -3 2.28128 37.5842 4
-6 -4 -2 1514.42 254.362 6
6 4 -2 1400.17 498.195 3
-6 4 -2 1183.16 320.839 6
-6 4 -2 1132.12 171.655 4
-6 -4 -2 998.547 253.561 2
6 -4 -2 1547.09 258.899 8
6 -4 -1 1011.32 216.86 8
6 4 -1 719.296 367.825 3
-6 -4 -1 793.349 183.732 6
-6 -4 -1 557.981 180.951 2
-6 4 -1 593.198 129.829 4
6 -4 0 666.57 170.301 8
6 4 0 180.264 189.17 3
-6 -4 0 697.495 172.047 6
-6 -4 0 522.374 172.387 2
-6 4 0 539.351 125.997 4
6 -4 1 975.529 209.204 8
6 4 1 753.236 355.821 3
-6 -4 1 729.35 180.888 6
-6 4 1 601.119 133.247 4
-6 -4 1 548.088 175.692 2
6 -4 2 1609.69 271.369 8
-6 -4 2 1117.89 254.377 2
6 4 2 914.247 401.794 3
-6 -4 2 1194.36 231.613 6
-6 4 2 1018.9 178.779 4
6 -4 3 172.893 94.5291 8
6 4 3 227.948 153.929 3
-6 -4 3 16.2417 65.7211 6
-6 4 3 44.1797 45.8567 4
-6 -4 3 81.6156 81.4366 2
6 -4 4 153.921 88.9022 8
6 4 4 -19.3896 111.453 3
-6 -4 4 248.011 106.473 6
-6 4 4 259.828 91.681 4
6 -4 5 1918.33 299.286 8
6 4 5 2303.84 583.785 3
-6 4 5 1886.32 264.259 4
6 -4 6 2365.12 335.458 8
6 4 6 853.782 398.895 3
-6 4 6 1807.87 261.797 4
6 -4 7 2679.01 356.085 8
6 4 7 1405.56 484.867 3
-6 4 7 2130.64 295.515 4
-6 -4 7 2728.54 309.044 1
6 -4 8 2237.84 336.352 8
6 4 8 1225.1 463.01 3
-6 4 8 1872.78 280.494 4
-6 -4 8 2291.96 287.265 1
6 -4 9 601.755 177.73 8
6 4 9 454.399 322.362 3
-6 -4 9 442.947 137.556 1
-6 4 9 460.443 156.251 4
6 -4 10 254.053 118.576 8
6 4 10 358.737 321.573 3
-6 -4 10 152.165 80.6303 1
-6 4 10 177.654 96.4193 4
6 4 11 682.868 384.226 3
-6 4 11 727.168 191.939 4
-6 -4 11 849.581 188.371 1
6 4 12 868.281 389.478 3
-6 -5 -11 -1.02436 69.3022 2
-6 5 -10 17.1123 59.951 7
6 5 -10 23.2928 83.3291 3
-6 -5 -10 -56.0919 92.87 2
-6 5 -9 717.161 182.25 7
6 5 -9 1172.64 496.896 3
-6 -5 -9 558.409 232.836 2
-6 5 -8 -26.2843 42.0122 7
-6 -5 -8 -31.7681 45.3706 6
-6 -5 -8 18.1707 66.3165 2
-6 5 -7 40.6566 52.5546 7
-6 -5 -7 93.5111 64.4655 6
6 5 -7 -31.0481 76.5424 3
-6 -5 -7 128.85 119.593 2
-6 5 -6 212.401 107.873 7
-6 -5 -6 47.9916 52.9671 6
6 5 -6 80.2979 156.062 3
-6 -5 -6 -24.0597 75.3434 2
-6 5 -5 1329.59 240.708 7
-6 -5 -5 1538.08 248.131 6
6 5 -5 1582.51 563.203 3
-6 -5 -5 1259.99 321.008 2
-6 -5 -4 1041.56 194.643 6
6 5 -4 838.839 413.469 3
-6 -5 -4 567.269 214.094 2
6 -5 -3 85.287 75.1222 8
-6 -5 -3 300.563 124.822 6
6 5 -3 -161.591 200.816 3
-6 5 -3 320.359 208.762 6
-6 -5 -3 82.8492 109.66 2
6 -5 -2 1472.84 246.953 8
-6 -5 -2 1376.85 225.233 6
6 5 -2 1743.86 612.844 3
-6 5 -2 777.564 278.935 6
-6 5 -2 1171.01 197.607 4
-6 -5 -2 1066.23 269.715 2
6 -5 -1 540.504 164.124 8
6 5 -1 459.678 244.901 3
-6 -5 -1 784.667 168.538 6
-6 -5 -1 486.441 185.313 2
-6 5 -1 291.818 99.6727 4
6 -5 0 1248.83 232.678 8
-6 -5 0 1270.94 201.456 6
6 5 0 993.116 407.23 3
-6 5 0 981.984 191.214 4
-6 -5 0 654.439 202.151 2
6 5 1 457.582 247.226 3
-6 -5 1 449.48 121.15 6
6 -5 1 786.475 192.325 8
-6 -5 1 308.995 135.302 2
-6 5 1 354.425 116.619 4
6 -5 2 1406.87 256.391 8
6 5 2 984.993 390.408 3
-6 5 2 1124.55 208.315 4
-6 -5 2 1499.89 227.763 1
-6 -5 2 1074.65 264.596 2
6 -5 3 65.6123 87.2123 8
6 5 3 -71.2629 126.992 3
-6 -5 3 -44.7349 53.7934 1
-6 5 3 -83.1256 60.2272 4
-6 -5 3 103.074 111.018 2
6 -5 4 994.047 224.216 8
6 5 4 736.192 400.382 3
-6 5 4 900.849 193.146 4
-6 -5 4 1126.88 270.365 2
-6 -5 4 953.967 186.168 1
6 -5 5 1673.99 293.027 8
6 5 5 1041.99 421.964 3
-6 -5 5 1463.96 232.981 1
-6 5 5 1382.59 241.929 4
6 -5 6 299.543 147.423 8
6 5 6 59.9386 83.3883 3
-6 -5 6 171.357 87.3813 1
-6 5 6 149.297 77.7605 4
6 5 7 411.093 320.656 3
-6 -5 7 117.546 78.3466 1
-6 5 7 92.8919 70.2147 4
6 5 8 116.561 175.754 3
-6 5 8 33.4404 44.2627 4
-6 -5 8 89.806 69.2224 1
-6 5 9 589.014 173.985 4
-6 -6 -6 339.54 190.386 2
6 6 -5 483.959 333.095 3
-6 -6 -5 181.197 133.071 2
6 6 -4 954.344 427.607 3
-6 -6 -4 938.052 292.204 2
-6 -6 -3 326.748 109.271 6
6 6 -3 90.3471 189.203 3
-6 -6 -3 203.093 126.561 2
-6 -6 -2 1173.15 206.428 6
6 6 -2 2041.29 636.963 3
-6 -6 -2 1549.01 240.095 1
-6 -6 -2 1300.49 324.269 2
6 6 -1 579.045 368.159 3
-6 -6 -1 233.427 99.356 1
-6 -6 -1 254.971 128.942 2
-6 6 -1 227.61 101.522 4
-6 -6 0 250.97 100.342 1
6 6 0 438.707 350.954 3
-6 -6 0 234.044 150.19 2
-6 6 0 246.942 108.74 4
-6 -6 1 189.713 78.975 1
6 6 1 201.522 199.932 3
-6 6 1 274.931 119.756 4
-6 -6 1 182.382 113.553 2
6 6 2 1264.25 483.017 3
-6 -6 2 1569.93 262.77 1
-6 6 2 1519.46 264.916 4
-6 -6 2 1286.74 305.462 2
-6 6 3 424.653 149.4 4
-6 -6 3 587.55 161.537 1
-6 -6 3 488.334 204.024 2
-6 6 4 1068.99 228.557 4
-6 -6 4 1210.25 308.652 2
-7 0 -15 54.8539 66.5769 6
-7 0 -14 9.56587 60.3481 7
-7 0 -14 106.638 88.347 6
7 0 -14 -57.7533 102.987 3
-7 0 -13 92.9218 78.3187 6
7 0 -13 16.6472 71.9276 3
-7 0 -12 4.99594 71.6378 6
7 0 -12 149.236 193.822 3
-7 0 -11 -10.4589 61.7261 6
7 0 -11 45.3229 61.0735 3
-7 0 -10 23.8059 119.652 6
7 0 -10 63.0302 149.591 3
-7 0 -9 -282.143 175.595 6
7 0 -9 212.192 207.153 3
-7 0 -8 287.914 183.747 6
7 0 -8 1.55496 122.243 3
-7 0 -7 395.56 239.004 6
7 0 -7 211.81 174.55 3
-7 0 -6 96.0579 140.525 6
7 0 -6 208.112 179.71 3
-7 0 -5 -158.192 123.438 6
7 0 -5 44.6409 99.4051 3
-7 0 -4 -97.6204 127.533 6
7 0 -4 330.918 253.066 3
-7 0 -3 -10.3644 104.956 6
7 0 -3 70.7773 155.252 3
-7 0 -2 -218.092 164.027 6
7 0 -2 1.01349 67.5526 3
7 0 -1 -35.116 62.6791 3
-7 0 -1 -89.4613 131.473 6
7 0 0 232.162 152.744 8
7 0 0 6.94847 181.54 3
-7 0 0 185.728 130.021 6
7 0 1 -20.4994 80.3791 8
7 0 1 32.9926 104.666 3
-7 0 1 247.891 179.056 6
-7 0 1 -84.8587 119.985 4
7 0 2 -166.498 108.38 8
7 0 2 -54.4455 95.7642 3
-7 0 2 -207.428 124.269 6
-7 0 2 50.2914 54.1248 4
7 0 3 41.5844 80.8538 8
7 0 3 -3.02525 68.6939 3
-7 0 3 164.676 139.216 6
-7 0 3 35.0276 77.0792 4
7 0 4 65.5131 83.8559 8
7 0 4 72.7531 120.262 3
-7 0 4 182.362 132.328 6
-7 0 4 -0.3443 79.3989 4
7 0 5 26.1282 73.066 8
7 0 5 236.322 193.446 3
-7 0 5 130.788 122.632 6
-7 0 5 8.31425 90.7162 4
7 0 6 -3.69329 72.9956 8
7 0 6 -95.0847 115.059 3
-7 0 6 142.503 114.996 6
-7 0 6 -150.411 124.219 4
7 0 7 158.329 122.648 8
7 0 7 -30.319 127.428 3
-7 0 7 68.7618 129.675 6
-7 0 7 -52.9287 127.308 4
7 0 8 89.472 83.5776 8
7 0 8 81.6454 169.046 3
-7 0 8 304.943 175.248 6
-7 0 8 -33.2204 46.889 4
7 0 9 164.509 114.728 8
7 0 9 63.4461 102.769 3
-7 0 9 64.3375 86.9342 6
-7 0 9 54.2756 94.5473 4
7 0 10 91.4942 94.9282 8
7 0 10 -56.9192 106.037 3
-7 0 10 95.2137 116.586 6
-7 0 10 -82.6927 134.346 4
7 0 11 44.027 70.9067 8
-7 0 11 28.1295 115.719 6
7 0 11 253.523 345.611 5
-7 0 11 -36.9695 121.857 4
7 0 12 63.9468 83.6027 8
-7 0 12 72.9987 103.436 6
-7 0 12 -134.754 169.087 4
7 0 13 54.6805 61.7603 8
-7 0 13 110.76 124.352 6
7 0 13 394.297 705.228 5
-7 0 13 50.475 74.6069 4
7 0 14 127.628 785.814 5
-7 0 14 -157.666 193.814 4
-7 -1 -15 8.16884 46.9801 7
-7 -1 -15 393.378 142.849 6
-7 -1 -14 938.413 241.14 7
-7 -1 -14 600.226 165.091 6
7 1 -14 661.956 326.153 3
7 -1 -14 1077.75 303.768 3
7 1 -13 3239.25 649.652 3
7 -1 -13 3173.76 536.592 3
-7 -1 -13 2745.77 371.518 6
-7 1 -13 2057.35 325.673 6
-7 -1 -12 103.972 84.8244 6
-7 1 -12 139.258 88.2557 6
7 1 -12 -34.8462 131.375 3
7 -1 -12 14.2703 54.0212 3
-7 -1 -11 132.647 102.745 6
-7 1 -11 42.3345 69.1432 6
7 1 -11 313.965 264.029 3
7 -1 -11 258.262 198.737 3
-7 -1 -10 135.144 89.0527 6
-7 1 -10 -104.426 81.6867 6
7 1 -10 233.594 242.199 3
7 -1 -10 98.192 132.446 3
7 -1 -9 4050.04 621.262 3
-7 -1 -9 2666.41 420.659 6
-7 1 -9 3674.16 560.487 6
7 1 -9 3365.46 762.936 3
-7 -1 -8 1090.41 281.94 6
-7 1 -8 1263.39 347.475 6
7 1 -8 936.984 387.376 3
7 -1 -8 1411.72 389.133 3
-7 -1 -7 130.629 69.6113 6
-7 1 -7 191.671 104.64 6
7 1 -7 623.057 401.715 3
7 -1 -7 344.157 198.811 3
7 -1 -6 445.399 181.593 8
-7 -1 -6 812.487 270.005 6
-7 1 -6 399.966 194.962 6
7 1 -6 419.363 319.709 3
7 -1 -6 921.978 324.34 3
7 -1 -5 1249.28 298.304 8
-7 -1 -5 1773.53 404.408 6
-7 1 -5 1431.51 346.167 6
7 1 -5 1300.76 434.591 3
7 -1 -5 1169.42 359.734 3
7 -1 -4 10.34 72.8764 8
-7 -1 -4 335.887 219.192 6
-7 1 -4 93.2875 104.313 6
7 1 -4 84.5025 191.767 3
7 -1 -4 -29.1656 69.4183 3
7 -1 -3 1682.02 336.3 8
-7 -1 -3 2169.31 440.063 6
7 1 -3 2004.67 542.003 3
-7 1 -3 2139.19 438.097 6
7 -1 -3 2000.36 468.062 3
7 -1 -2 569.88 199.248 8
7 1 -2 332.63 219.254 3
-7 -1 -2 285.166 173.154 6
-7 1 -2 653.388 211.474 6
7 -1 -2 501.858 229.562 3
-7 1 -2 306.065 137.547 4
7 -1 -1 936.12 252.202 8
7 1 -1 649.992 299.719 3
-7 -1 -1 987.451 296.119 6
-7 1 -1 1037.28 294.306 6
7 -1 -1 808.453 331.427 3
-7 1 -1 518.923 173.734 4
-7 -1 0 4159.9 585.749 6
-7 1 0 4592.7 635.691 6
-7 1 0 3623.74 450.979 4
7 1 0 4533.71 796.052 3
7 -1 0 4490.36 534.542 8
7 -1 0 4195.53 679.519 3
7 -1 1 828.89 227.785 8
7 1 1 935.572 336.195 3
-7 -1 1 769.865 264.55 6
7 -1 1 974.877 326.795 3
-7 1 1 701.406 249.168 6
-7 1 1 378.314 137.339 4
7 -1 2 523.51 180.195 8
7 1 2 668.182 282.932 3
7 -1 2 659.763 263.906 3
-7 -1 2 251.532 108.105 6
-7 1 2 622.919 218.769 6
-7 1 2 399.064 163.676 4
7 1 3 1879.39 355.829 8
7 -1 3 1654.46 311.065 8
7 1 3 2023.61 513.755 3
7 -1 3 2342.09 486.643 3
-7 -1 3 1744.07 374.199 6
-7 1 3 1853.73 410.829 6
-7 1 3 1278.83 261.458 4
7 1 4 19.7638 76.6001 8
7 -1 4 104.583 111.377 8
7 1 4 153.39 246.213 3
7 -1 4 -39.6611 94.5693 3
-7 -1 4 89.8311 100.809 6
-7 1 4 14.1361 107.098 6
-7 1 4 -97.4239 116.534 4
7 1 5 1590.28 320.524 8
7 -1 5 1525.81 298.909 8
7 1 5 1698.14 458.472 3
7 -1 5 1295.64 355.246 3
-7 -1 5 1233.98 319.915 6
-7 1 5 1376.01 353.666 6
-7 1 5 976.31 236.05 4
7 1 6 527.338 184.789 8
7 -1 6 602.791 196.352 8
7 1 6 637.333 317.125 3
-7 -1 6 499.889 209.387 6
-7 1 6 169.339 131.442 6
-7 1 6 199.292 103.806 4
7 1 7 443.254 163.79 8
7 -1 7 375.571 164.306 8
7 1 7 504.01 263.777 3
-7 -1 7 307.212 180.677 6
7 1 7 611.77 617.414 5
-7 1 7 144.354 63.469 4
7 1 8 938.08 235.647 8
7 -1 8 1303.44 287.713 8
7 1 8 888.376 338.673 3
-7 -1 8 775.577 256.051 6
7 1 8 1955.68 1170.08 5
-7 1 8 1003.09 267.613 4
7 1 9 2040.31 505.256 3
-7 -1 9 2221.92 443.807 6
7 1 9 695.205 684.722 5
-7 1 9 1928.87 392.786 4
7 1 9 2774.88 396.228 8
7 -1 9 3575.34 455.812 8
7 1 10 66.6166 99.025 8
7 -1 10 45.8121 58.8678 8
7 1 10 55.4409 132.953 3
-7 -1 10 -4.02798 76.2089 6
7 1 10 60.8907 378.112 5
-7 1 10 36.3776 74.0279 4
7 1 11 390.464 169.033 8
7 -1 11 166.204 110.119 8
7 1 11 40.701 102.765 3
-7 -1 11 451.114 198.461 6
7 1 11 180.423 728.466 5
-7 1 11 -97.875 124.568 4
7 1 12 92.1505 52.5191 8
7 -1 12 134.258 86.951 8
7 1 12 76.4551 123.287 3
-7 1 12 219.498 167.098 4
7 -1 13 2798.04 386.958 8
7 1 13 1435.2 453.498 3
-7 1 13 1715.71 458.933 4
7 -1 14 788.714 212.274 8
7 -1 15 153.911 93.2934 8
-7 -2 -14 242.531 143.584 7
7 -2 -14 266.497 171.212 3
-7 2 -13 562.247 195.339 7
-7 -2 -13 479.586 161.125 6
7 2 -13 297.46 268.553 3
7 -2 -13 859.486 251.777 3
-7 2 -12 178.475 122.885 7
-7 -2 -12 202.074 114.325 6
7 2 -12 43.7239 142.621 3
7 -2 -12 -80.3485 77.9635 3
7 -2 -11 1906.61 355.353 3
-7 -2 -11 1672.25 299.267 6
-7 2 -11 930.794 264.523 6
7 2 -11 1481.47 517.997 3
-7 -2 -10 356.586 125.394 6
-7 2 -10 656.926 253.807 6
7 2 -10 383.575 266.405 3
7 -2 -10 468.887 167.646 3
7 -2 -9 989.571 275.101 8
-7 -2 -9 1198.23 264.762 6
-7 2 -9 1211.33 329.721 6
7 2 -9 481.05 305.325 3
7 -2 -9 1333.32 297.049 3
7 -2 -8 6694.64 660.006 3
-7 -2 -8 6020.9 621.695 6
-7 2 -8 5478.25 698.03 6
7 -2 -8 6139.35 667.331 8
7 2 -8 5870.35 1034.05 3
7 -2 -7 364.657 137.948 8
-7 -2 -7 293.182 135.934 6
-7 2 -7 184.083 157.928 6
7 2 -7 274.194 326.987 3
7 -2 -7 319.131 164.011 3
7 -2 -6 12538.3 940.259 3
-7 -2 -6 9835.37 855.685 6
-7 2 -6 10001.9 975.392 6
7 -2 -6 10341 862.553 8
7 2 -6 10993 1410.16 3
7 -2 -5 1237.46 293.912 8
-7 -2 -5 1053.49 263.008 6
7 2 -5 1028.67 419.908 3
-7 2 -5 720.224 263.887 6
7 -2 -5 1451.62 305.124 3
7 -2 -4 69.6306 50.8932 8
-7 -2 -4 -143.646 166.879 6
7 2 -4 -46.1198 204.715 3
-7 2 -4 169.638 131.405 6
7 -2 -4 206.732 144.58 3
7 -2 -3 2281.77 387.136 3
-7 -2 -3 2756.03 485.997 6
7 2 -3 2652.07 642.175 3
-7 2 -3 2743.24 500.902 6
7 -2 -3 2267.21 381.461 8
7 -2 -2 788.258 227.755 8
7 2 -2 872.477 383.49 3
-7 -2 -2 1383.85 354.245 6
-7 2 -2 883.555 258.497 6
7 -2 -2 412.619 194.93 3
-7 2 -2 673.867 139.557 4
-7 -2 -1 4629.64 687.208 6
7 2 -1 1638.01 499.448 3
-7 2 -1 1770.69 397.707 6
-7 2 -1 1527.9 217.309 4
7 -2 -1 5057.81 542.682 8
7 -2 -1 2177.9 387.945 3
-7 -2 0 18378.7 1259.66 6
-7 2 0 19361.3 1351.8 6
-7 2 0 15748.6 792.974 4
7 2 0 19423.8 1743.92 3
7 -2 0 18372.8 1103.7 8
7 -2 0 16785.8 1127.91 3
7 2 1 2098.11 549.266 3
-7 -2 1 1641 359.944 6
-7 2 1 2515.38 457.587 6
-7 2 1 1406.51 212.965 4
7 -2 1 1904.93 336.152 8
7 -2 2 577.111 173.622 8
7 2 2 608.031 296.612 3
-7 -2 2 603.793 228.094 6
-7 2 2 644.702 254.762 6
-7 2 2 662.058 154.645 4
7 2 3 2065.72 553.581 3
-7 -2 3 2247.08 414.081 6
-7 2 3 1794.01 406.601 6
-7 2 3 2223.44 281.022 4
7 -2 3 2612.29 387.077 8
7 -2 4 101.288 91.2896 8
7 2 4 131.928 159.598 3
-7 -2 4 -84.3307 127.074 6
-7 2 4 132.655 71.2976 4
7 2 5 1116.84 282.91 8
7 2 5 1172.73 417.921 3
-7 -2 5 734.795 233.281 6
7 2 5 1161.31 765.986 5
-7 2 5 1069.92 205.241 4
7 -2 5 1742.25 348.346 8
-7 -2 6 8165.44 835.724 6
-7 2 6 9087.1 657.223 4
7 2 6 10172.4 1195.36 3
7 2 6 10511 871.213 8
7 -2 6 12414.2 872.074 8
7 2 7 374.335 173.796 8
7 -2 7 148.673 106.069 8
7 2 7 231.757 179.222 3
-7 -2 7 39.6781 50.0116 6
-7 2 7 201.884 104.639 4
-7 -2 8 3769.26 547.855 6
-7 2 8 5456.89 542.685 4
7 2 8 4396.39 783.736 3
7 2 8 5846.67 615.985 8
7 -2 8 6902.52 631.142 8
7 2 9 1138.56 249.838 8
7 -2 9 845.931 227.181 8
7 2 9 878.521 389.376 3
-7 -2 9 762.338 229.61 6
-7 2 9 874.286 220.18 4
7 2 10 289.329 153.439 8
7 -2 10 471.871 168.323 8
7 2 10 6.17933 117.229 3
-7 2 10 292.305 135.623 4
7 -2 11 1391.38 277.543 8
7 2 11 1554.55 490.509 3
-7 2 11 1317.74 303.391 4
7 -2 12 137.626 94.9489 8
7 2 12 172.904 183.986 3
-7 2 12 0.45136 53.1449 4
7 -2 13 315.162 142.062 8
7 2 13 481.984 284.344 3
-7 -2 13 498.492 141.076 1
-7 2 13 247.363 149.458 4
-7 -2 14 220.013 97.7904 1
7 -2 14 156.419 115.141 8
-7 -2 15 62.1594 72.7038 1
7 2 15 -148.9 119.93 3
7 -3 -13 708.813 229.839 3
7 3 -12 31.5154 160.966 3
7 -3 -12 304.75 144.708 3
-7 3 -11 -1.17325 84.4767 7
-7 -3 -11 35.4357 66.0753 6
7 3 -11 172.8 243.886 3
7 -3 -11 25.8801 52.595 3
-7 -3 -10 160.912 106.405 6
7 3 -10 -20.8853 112.669 3
7 -3 -10 78.1057 86.2924 3
-7 -3 -9 247.353 135.542 6
7 3 -9 27.3198 129.314 3
7 -3 -9 98.1467 79.1458 3
7 -3 -8 1890.91 305.23 3
-7 -3 -8 1648.62 290.792 6
-7 3 -8 1201.29 363.805 6
7 3 -8 1954.03 618.692 3
7 -3 -7 34.1211 66.6439 8
-7 -3 -7 116.297 92.0697 6
-7 3 -7 -242.608 194.661 6
7 3 -7 294.371 283.264 3
7 -3 -7 135.481 99.7361 3
7 -3 -6 830.914 223.471 8
-7 -3 -6 1007.07 228.326 6
7 3 -6 973.79 496.637 3
-7 3 -6 211.088 133.053 6
7 -3 -6 870.181 183.889 3
-7 -3 -5 2610.37 398.887 6
7 3 -5 2342.6 666.784 3
-7 3 -5 1941.07 424.734 6
7 -3 -5 2567.72 387.1 8
7 -3 -4 581.816 179.233 8
-7 -3 -4 459.143 183.544 6
7 3 -4 10.525 104.267 3
-7 3 -4 465.289 205.316 6
-7 -3 -3 2889 423.547 6
-7 3 -3 2671.07 528.679 6
7 3 -3 2542.65 674.641 3
7 -3 -3 3260.9 437.456 8
7 -3 -2 1513.18 290.501 8
7 3 -2 1312.63 468.013 3
-7 -3 -2 2101.78 377.921 6
-7 3 -2 1324.7 337.839 6
7 -3 -1 826.684 229.964 8
7 3 -1 907.531 395.569 3
-7 3 -1 746.784 263.469 6
-7 3 -1 594.331 123.349 4
-7 -3 0 11824.2 923.653 6
-7 3 0 10841.7 1017.99 6
-7 3 0 11022 609.242 4
7 3 0 12367.9 1444.07 3
7 -3 0 14545.1 959.296 8
7 -3 1 934.086 250.502 8
7 3 1 855.301 377.651 3
-7 -3 1 477.27 187.257 6
-7 3 1 662.114 253.828 6
-7 3 1 653.808 141.23 4
7 3 2 1259.82 436.378 3
-7 -3 2 1476.28 336.762 6
-7 3 2 1243.23 197.408 4
7 -3 2 1653.21 309.416 8
-7 -3 3 3195.07 493.35 6
7 3 3 2553.1 621.423 3
-7 3 3 2763.9 304.947 4
7 -3 3 3470.36 451.146 8
7 -3 4 482.653 155.493 8
7 3 4 786.609 363.757 3
-7 -3 4 546.631 220.354 6
-7 3 4 486.324 127.928 4
7 3 5 2187.11 592.829 3
-7 -3 5 1963.36 371.106 6
-7 3 5 1799.33 258.81 4
7 -3 5 2849.18 404.035 8
7 3 6 804.677 226.176 8
7 -3 6 914.481 226.704 8
7 3 6 775.113 341.67 3
-7 -3 6 730.843 236.432 6
-7 3 6 705.971 164.943 4
7 3 7 91.2235 110.625 8
7 -3 7 17.1036 65.3988 8
-7 3 7 25.0036 49.4205 4
7 -3 8 1757.61 305.823 8
7 3 8 1160.99 298.458 8
7 3 8 868.838 370.527 3
7 3 8 481.908 691.166 5
-7 3 8 1446.21 256.493 4
7 -3 9 189.032 106.111 8
7 3 9 144.294 190.019 3
7 3 9 21.4842 341.526 5
-7 3 9 120.07 83.367 4
7 -3 10 7.73379 80.2463 8
7 3 10 69.69 123.649 3
-7 3 10 69.1783 63.9305 4
7 -3 11 139.893 113.85 8
7 3 11 146.143 224.185 3
-7 -3 11 59.6731 61.0268 1
-7 3 11 165.866 107.611 4
7 -3 12 470.515 161.335 8
7 3 12 412.021 303.725 3
-7 -3 12 171.958 83.5376 1
-7 4 -10 230.006 130.037 7
7 4 -10 148.786 168.876 3
-7 4 -9 181.722 111.029 7
-7 -4 -9 107.871 92.5824 6
7 4 -9 509.751 420.096 3
-7 -4 -8 110.306 94.9526 6
7 4 -8 32.2875 242.264 3
-7 -4 -7 513.617 169.916 6
7 4 -7 281.614 280.873 3
-7 -4 -6 162.835 101.599 6
7 4 -6 444.526 322.507 3
-7 4 -6 185.053 147.498 6
7 -4 -5 6.68329 66.5723 8
-7 -4 -5 239.672 109.935 6
7 4 -5 -13.9885 103.031 3
-7 4 -5 -30.9081 121.383 6
7 -4 -4 521.194 169.093 8
-7 -4 -4 315.14 126.557 6
7 4 -4 441.769 351.245 3
-7 4 -4 482.052 223.281 6
7 -4 -3 123.008 95.505 8
-7 -4 -3 134.348 113.433 6
7 4 -3 -50.1326 244.159 3
-7 4 -3 262.366 194.811 6
7 -4 -2 1466.91 282.851 8
7 4 -2 1234.44 466.485 3
-7 -4 -2 1224.58 246.049 6
-7 4 -2 1187.47 341.418 6
7 -4 -1 806.093 225.822 8
7 4 -1 495.528 376.969 3
-7 4 -1 254.905 188.362 6
-7 -4 0 10503.8 779.511 2
-7 -4 0 10510.8 755.158 6
-7 4 0 8550.32 927.748 6
-7 4 0 10075.1 610.237 4
7 4 0 11659.4 1451.72 3
7 -4 1 189.962 115.291 8
7 4 1 222.041 270.865 3
-7 -4 1 419.265 150.269 6
-7 4 1 65.8708 52.4571 4
-7 -4 1 177.68 107.112 2
7 -4 2 1557.76 287.42 8
-7 -4 2 1205.39 248.889 2
7 4 2 1175.84 436.11 3
-7 -4 2 1251.45 250.955 6
-7 4 2 1221.23 203.283 4
7 -4 3 117.246 96.4103 8
7 4 3 205.081 180.613 3
-7 -4 3 103.137 73.4527 6
-7 4 3 170.396 81.3863 4
7 -4 4 452.007 153.532 8
7 4 4 845.046 416.35 3
-7 -4 4 509.217 166.584 6
-7 4 4 373.58 118.311 4
7 -4 5 37.1731 62.8692 8
-7 4 5 2.58214 29.1177 4
7 -4 6 173.996 111.523 8
7 4 6 76.5436 196.309 3
-7 4 6 88.7536 64.7323 4
7 -4 7 487.226 168.928 8
7 4 7 221.626 175.903 3
-7 4 7 412.355 142.082 4
7 -4 8 136.337 101.256 8
7 4 8 51.1606 189.374 3
-7 4 8 104.949 100.809 4
-7 -4 8 100.532 87.1754 1
-7 -4 9 109.382 69.1059 1
7 -4 9 167.432 127.857 8
7 4 9 -178.4 246.334 3
-7 4 9 148.207 97.207 4
-7 5 -8 242.011 113.506 7
-7 5 -7 128.426 79.5082 7
-7 5 -6 1272.88 255.623 7
-7 -5 -6 852.727 199.08 6
7 5 -6 605.259 377.357 3
-7 -5 -5 538.898 155.568 6
7 5 -5 531.338 356.745 3
-7 -5 -4 360.958 135.494 6
7 5 -4 482.865 328.499 3
7 -5 -3 1070.17 232.971 8
-7 -5 -3 955.204 196.213 6
7 5 -3 834.803 424.395 3
-7 5 -3 773.398 310.161 6
7 -5 -2 -24.8303 65.6667 8
-7 -5 -2 66.4864 57.0743 6
7 5 -2 67.0112 149.118 3
-7 5 -2 141.761 151.635 6
7 -5 -1 117.376 71.4502 8
7 5 -1 364.037 320.486 3
-7 -5 -1 217.061 94.1065 6
-7 5 -1 418.311 218.985 6
-7 -5 -1 105.974 97.164 2
7 -5 0 274.197 115.432 8
7 5 0 94.7892 187.977 3
-7 -5 0 313.13 109.131 6
-7 5 0 194.3 78.8035 4
-7 -5 0 168.58 109.884 2
7 -5 1 141.377 123.066 8
7 5 1 296.302 321.659 3
-7 -5 1 245.232 99.0519 6
-7 5 1 185.398 85.7796 4
-7 -5 1 140.797 91.5784 2
7 -5 2 -38.1767 44.8984 8
-7 5 2 21.3124 19.0061 4
7 -5 3 1172.96 257.345 8
7 5 3 1012.45 458.736 3
-7 5 3 727.811 173.672 4
-7 -5 3 1091.83 266.744 2
7 -5 4 450.809 156.167 8
7 5 4 306.398 282.471 3
-7 5 4 339.786 116.065 4
-7 -5 4 366.126 127.925 1
-7 -5 5 539.979 153.708 1
7 -5 5 617.434 190.894 8
7 5 5 473.644 331.373 3
-7 5 5 500.535 151.138 4
-7 5 6 866.058 199.941 4
-7 -6 -2 1340.2 234.685 1
-7 -6 -1 502.831 143.737 1
7 -6 0 3522.75 438.461 8
-7 -6 0 2546.53 444.862 2
-7 -6 1 336.396 160.036 2
-7 -6 2 1549.63 333.391 2
-7 6 2 1222.26 240.393 4
-8 0 -13 33.2249 82.5465 6
-8 0 -12 145.661 136.634 6
8 0 -12 194.348 174.811 3
-8 0 -11 -26.5736 73.6598 6
8 0 -11 397.256 277.147 3
8 0 -10 4940.68 802.672 3
-8 0 -10 3860.85 557.911 6
-8 0 -9 5460.34 691.794 6
8 0 -9 6115.33 928.658 3
-8 0 -8 577.625 227.114 6
8 0 -8 362.977 270.597 3
-8 0 -7 3985.62 637.92 6
8 0 -7 2839.75 677.911 3
-8 0 -6 10919.7 1056.7 6
8 0 -6 10012.2 1276.5 3
-8 0 -5 544.289 242.981 6
8 0 -5 409.471 219.116 3
-8 0 -4 4.34405 91.0778 6
8 0 -4 62.0976 243.608 3
-8 0 -3 63.4047 74.5083 6
8 0 -3 238.816 225.951 3
8 0 -2 1027.3 289.352 8
-8 0 -2 972.854 298.165 6
8 0 -2 661.333 339.618 3
-8 0 -1 9049.12 969.36 6
8 0 -1 8961.66 874.725 8
8 0 -1 8674.71 1137.24 3
8 0 0 809.615 263.742 8
8 0 0 881.995 329.313 3
-8 0 0 648.6 221.801 6
-8 0 1 8471.59 943.721 6
8 0 1 9701.51 1193.38 3
8 0 1 8281.56 829.919 8
8 0 2 900.84 262.982 8
8 0 2 797.35 335.181 3
-8 0 2 823.15 282.685 6
8 0 3 130.674 116.8 8
8 0 3 4.14276 112.344 3
-8 0 3 86.0374 85.4486 6
-8 0 3 -83.3715 131.546 4
8 0 4 102.978 117.829 8
8 0 4 219.738 178.476 3
-8 0 4 79.706 114.883 6
-8 0 4 14.623 55.2058 4
8 0 5 539.065 202.194 8
8 0 5 427.969 240.241 3
-8 0 5 361.03 181.059 6
-8 0 5 335.51 219.796 4
-8 0 6 8213.27 891.51 6
8 0 6 11311.7 1219.29 3
8 0 6 11037.4 879.742 8
8 0 7 2718.8 574.863 3
-8 0 7 2180.47 451.555 6
-8 0 7 1358.12 400.187 4
8 0 7 3412.25 479.146 8
8 0 8 236.486 131.574 8
-8 0 8 318.346 189.882 6
-8 0 8 144.092 131.283 4
-8 0 9 4998 694.526 6
-8 0 9 3658.63 710.55 4
-8 0 10 3282.79 545.422 6
-8 0 10 2104.23 552.032 4
-8 0 11 237.258 150.392 6
-8 0 11 162.103 146.902 4
8 0 12 42.479 67.8117 8
-8 0 12 5.35255 56.6671 6
-8 0 12 -37.3948 100.33 4
8 0 13 -71.1291 81.539 8
-8 1 -13 -14.9791 45.6409 6
-8 -1 -12 699.313 211.277 6
-8 1 -12 827.014 250.545 6
8 1 -12 980.514 382.496 3
8 -1 -12 1046.47 316.595 3
8 -1 -11 336.006 205.694 8
-8 -1 -11 92.6342 92.1594 6
-8 1 -11 31.5959 74.0137 6
8 1 -11 -18.6068 143.023 3
8 -1 -11 125.667 142.105 3
8 -1 -10 499.14 223.599 8
-8 -1 -10 480.708 183.251 6
-8 1 -10 89.157 100.539 6
8 1 -10 382.177 322.183 3
8 -1 -10 732.985 291.465 3
8 -1 -9 1048.3 305.661 8
-8 -1 -9 906.477 261.988 6
-8 1 -9 1440.04 395.46 6
8 1 -9 885.532 397.155 3
8 -1 -9 1515.02 406.308 3
8 -1 -8 945.142 284.909 8
-8 -1 -8 542.884 191.606 6
-8 1 -8 634.757 249.884 6
8 1 -8 598.095 334.446 3
8 -1 -8 982.085 343.323 3
8 -1 -7 7986.16 992.37 3
-8 -1 -7 6615.3 756.924 6
-8 1 -7 7780.21 913.493 6
8 -1 -7 7475.43 816.918 8
8 1 -7 7135.05 1112.21 3
8 -1 -6 736.641 248.105 8
-8 -1 -6 875.602 294.643 6
-8 1 -6 683.643 256.584 6
8 1 -6 1083.78 467.516 3
8 -1 -6 961.292 342.577 3
-8 -1 -5 5884.6 771.154 6
-8 1 -5 5820.4 768.833 6
8 -1 -5 5536.75 681.192 8
8 1 -5 5411.38 984.94 3
8 -1 -5 5642.9 828.147 3
8 -1 -4 902.154 277.462 8
-8 -1 -4 1232.98 352.464 6
-8 1 -4 916.419 308.638 6
8 1 -4 1143.17 482.74 3
8 -1 -4 868.904 352.009 3
8 -1 -3 97.1733 120.211 8
-8 -1 -3 64.3108 74.3231 6
8 1 -3 58.4794 155.544 3
-8 1 -3 -71.1403 100.481 6
8 -1 -3 48.1469 104.625 3
8 -1 -2 1834.48 385.181 8
-8 -1 -2 1735.72 414.759 6
8 1 -2 1292.6 468.379 3
-8 1 -2 1443.65 406.224 6
8 -1 -2 1627.67 455.782 3
8 -1 -1 1181.82 299.962 8
8 1 -1 1264.84 450.104 3
-8 -1 -1 1034.54 309.409 6
-8 1 -1 1032.14 331.516 6
8 -1 -1 1005.98 393.466 3
8 -1 0 -71.3669 106.694 8
8 1 0 163.908 190.146 3
-8 -1 0 205.583 141.239 6
-8 1 0 387.937 133.573 6
8 -1 0 587.174 297.401 3
-8 1 0 106.861 84.0201 4
8 -1 1 1134.14 290.234 8
8 1 1 875.132 358.482 3
-8 -1 1 758.825 286.397 6
8 -1 1 1322.25 414.285 3
-8 1 1 1671.88 408.054 6
-8 1 1 1021.27 286.96 4
8 1 2 1576.48 345.242 8
8 -1 2 1408.29 313.933 8
8 1 2 1732.68 526.219 3
8 -1 2 1296.29 413.601 3
-8 -1 2 1386.81 378.436 6
-8 1 2 1426.45 364.033 6
-8 1 2 902.538 267.991 4
8 1 3 67.5232 93.8154 8
8 -1 3 -66.6514 121.009 8
8 1 3 -34.2228 118.686 3
-8 -1 3 14.5092 111.709 6
-8 1 3 -24.6422 80.6822 6
-8 1 3 -23.5742 71.3995 4
8 1 4 1035.12 291.785 8
8 -1 4 1047.48 264.606 8
8 1 4 1425.07 445.41 3
-8 -1 4 532.233 233.575 6
-8 1 4 938.215 303.652 6
-8 1 4 537.829 217.14 4
-8 -1 5 4653.01 653.661 6
-8 1 5 4398.81 663.473 6
-8 1 5 3943.29 582.866 4
8 1 5 6835.66 979.013 3
8 1 5 5628.46 664.832 8
8 -1 5 5856.69 631.989 8
8 1 6 633.024 211.157 8
8 -1 6 954.638 248.139 8
8 1 6 866.975 364.189 3
-8 -1 6 1119.17 324.867 6
-8 1 6 895.24 294.458 6
-8 1 6 683.44 254.306 4
-8 -1 7 5466.71 712.487 6
-8 1 7 5968.82 777.008 6
-8 1 7 5113.57 693.251 4
8 1 7 7673.42 1045.88 3
8 1 7 7639.41 748.546 8
8 -1 7 9128.84 803.357 8
8 1 8 1045.43 269.346 8
8 -1 8 1098.79 292.559 8
8 1 8 909.729 350.456 3
-8 -1 8 699.745 263.393 6
-8 1 8 752.177 285.412 6
-8 1 8 582.015 236.616 4
8 1 9 1297.48 293.003 8
8 -1 9 1619.51 333.846 8
8 1 9 799.463 330.183 3
-8 -1 9 503.259 217.16 6
-8 1 9 1347.89 362.93 6
-8 1 9 920.173 301.162 4
8 1 10 534.712 190.672 8
8 -1 10 681.181 215.58 8
8 1 10 395.675 251 3
-8 -1 10 427.065 215.05 6
-8 1 10 538.461 228.957 6
-8 1 10 467.044 245.515 4
8 1 11 66.0508 100.983 8
8 -1 11 9.05752 37.4577 8
8 1 11 113.358 148.197 3
-8 1 11 -84.1728 87.1675 6
8 1 11 328.69 696.799 5
-8 1 11 127.123 127.794 4
8 -1 12 775.518 222.924 8
-8 1 12 704.265 269.822 6
8 -1 13 120.495 90.162 8
-8 1 13 79.2252 87.9117 6
8 1 13 -44.3108 658.83 5
8 -1 14 107.161 95.4069 8
8 -2 -12 4211.91 585.683 3
-8 -2 -11 640.56 212.227 6
8 2 -11 1037.41 509.197 3
8 -2 -11 524.05 207.706 3
-8 -2 -10 276.184 135.542 6
-8 2 -10 973.429 324.641 6
8 2 -10 428.281 370.335 3
8 -2 -10 609.898 210.804 3
8 -2 -9 96.283 105.864 8
-8 -2 -9 248.582 162.813 6
-8 2 -9 409.388 261.163 6
8 2 -9 -235.129 242.396 3
8 -2 -9 67.1235 78.3191 3
8 -2 -8 323.781 168.082 8
-8 -2 -8 319.702 167.765 6
-8 2 -8 206.341 200.762 6
8 2 -8 140.235 216.089 3
8 -2 -8 617.136 223.99 3
8 -2 -7 64.5243 80.5037 8
-8 -2 -7 107.06 119.646 6
-8 2 -7 -276.265 187.036 6
8 2 -7 551.748 384.99 3
8 -2 -7 263.051 143.913 3
8 -2 -6 1073.71 290.812 8
-8 -2 -6 901.323 277.191 6
-8 2 -6 751.389 243.43 6
8 2 -6 1166.15 511.632 3
8 -2 -6 1238.14 315.007 3
8 -2 -5 792.536 242.129 8
-8 -2 -5 174.907 98.3217 6
-8 2 -5 545.496 230.103 6
8 2 -5 1056.68 431.103 3
8 -2 -5 603.309 229.857 3
8 -2 -4 2541.91 441.684 3
-8 -2 -4 1860.1 397.139 6
8 2 -4 2437.18 675.312 3
-8 2 -4 2234.64 483.373 6
8 -2 -4 2859.64 464.291 8
8 -2 -3 1951.94 390.902 3
-8 -2 -3 2907.96 524.743 6
8 2 -3 1487.64 547.735 3
-8 2 -3 1762.21 427.409 6
8 -2 -3 2145.87 405.888 8
8 -2 -2 849.892 261.116 8
8 2 -2 1194.81 499.201 3
-8 -2 -2 1174.74 348.28 6
-8 2 -2 900.976 322.703 6
8 -2 -1 94.3894 73.0932 8
8 2 -1 59.5583 98.6348 3
-8 -2 -1 273.44 196.816 6
-8 2 -1 261.143 172.739 6
8 -2 0 49.6289 90.718 8
8 2 0 -120.855 244.111 3
-8 -2 0 61.3556 109.111 6
-8 2 0 191.566 154.177 6
-8 2 0 26.6875 39.5359 4
8 -2 1 -35.4501 64.1996 8
8 2 1 -4.37488 125.311 3
-8 -2 1 189.369 197.138 6
-8 2 1 59.3428 142.99 6
-8 2 1 100.724 87.9578 4
8 -2 2 833.499 234.102 8
8 2 2 582.374 300.745 3
-8 -2 2 947.938 282.465 6
-8 2 2 1019.02 331.591 6
-8 2 2 467.698 146.301 4
8 2 3 2126.76 568.797 3
-8 -2 3 1702.15 379.961 6
-8 2 3 1949.24 429.678 6
-8 2 3 1623.71 288.228 4
8 -2 3 2211.64 393.519 8
8 2 4 2248.37 440.624 8
8 2 4 2933.92 666.736 3
-8 -2 4 1841.42 399.507 6
-8 2 4 2205.14 461.442 6
-8 2 4 2129.23 341.577 4
8 -2 4 3046.53 460.838 8
8 2 5 419.963 188.575 8
8 -2 5 883.579 265.02 8
8 2 5 601.806 350.089 3
-8 -2 5 411.638 212.916 6
-8 2 5 794.643 286.129 6
-8 2 5 472.123 173.986 4
8 2 6 1010.06 280.933 8
8 -2 6 1307.37 323.579 8
8 2 6 902.91 395.769 3
-8 -2 6 897.073 284.383 6
-8 2 6 340.796 194.896 6
-8 2 6 573.445 183.091 4
8 2 7 6.07483 46.6031 8
8 -2 7 225.251 139.097 8
8 2 7 23.0812 139.159 3
-8 -2 7 17.4332 109.085 6
-8 2 7 44.6212 76.9795 4
8 2 8 223.98 106.094 8
8 -2 8 346.637 176.996 8
8 2 8 12.8274 61.435 3
-8 -2 8 -27.4083 74.4118 6
8 2 8 -235.145 692.508 5
-8 2 8 208.098 89.9753 4
8 2 9 20.8182 40.5677 8
8 -2 9 255.869 129.99 8
8 2 9 236.099 207.245 3
8 2 9 -188.67 331.023 5
-8 2 9 34.4728 69.0757 4
8 -2 10 249.306 131.673 8
8 2 10 413.395 264.697 3
-8 2 10 287.165 142.052 4
8 -2 11 461.583 180.023 8
8 2 11 747.691 356.408 3
8 2 11 67.646 649.612 5
-8 2 11 290.253 143.641 4
8 -2 12 3308.03 452.766 8
8 2 12 1393.28 501.999 3
8 2 12 1315.27 1144.96 5
8 2 13 238.254 228.788 3
8 -3 -12 223.531 132.803 3
8 -3 -11 8.12888 40.1977 3
8 3 -9 348.719 291.883 3
-8 -3 -8 348.009 155.973 6
-8 3 -8 34.4533 92.5655 6
8 3 -8 306.102 277.15 3
8 -3 -7 146.749 100.165 8
-8 -3 -7 329.07 127.658 6
-8 3 -7 26.8313 151.356 6
8 3 -7 406.613 375.168 3
8 -3 -6 243.435 133.417 8
-8 -3 -6 289.234 139.919 6
-8 3 -6 180.074 96.6189 6
8 3 -6 -91.6446 148.989 3
8 -3 -5 172.621 78.7946 8
-8 -3 -5 -61.5277 86.1698 6
8 3 -5 51.9692 152.468 3
-8 3 -5 31.0544 130.594 6
8 -3 -4 655.779 234.245 8
-8 -3 -4 692.758 238.857 6
8 3 -4 1209.04 511.095 3
-8 3 -4 706.771 263.517 6
8 -3 -3 235.137 120.688 8
-8 -3 -3 857.57 259.785 6
8 3 -3 771.163 410.139 3
-8 3 -3 259.053 169.464 6
8 3 -2 791.051 413.059 3
-8 3 -2 902.46 328.221 6
8 -3 -2 1832.96 469.919 8
-8 -3 -1 23376.9 1447.6 6
-8 3 -1 19254.9 1517.79 6
8 3 -1 21848.8 2114.87 3
8 -3 -1 24460.2 1409.71 8
-8 -3 0 9974.38 894.628 6
-8 3 0 5705.28 801.811 6
8 3 0 6404.76 1109.26 3
8 -3 0 8716.11 802.339 8
-8 -3 1 20518.9 1371.57 6
-8 3 1 18283.9 1436.78 6
-8 3 1 18017.4 922.385 4
8 3 1 22354.1 2063.71 3
8 -3 2 975.26 282.755 8
8 3 2 699.633 431.736 3
-8 -3 2 702.694 248.216 6
-8 3 2 860.642 299.377 6
-8 3 2 416.848 131.654 4
8 -3 3 436.572 166.043 8
8 3 3 196.134 217.052 3
-8 -3 3 300.899 153.504 6
-8 3 3 262.978 186.332 6
-8 3 3 232.664 102.691 4
8 -3 4 929.623 259.152 8
8 3 4 612.633 387.521 3
-8 -3 4 521.135 208.736 6
-8 3 4 811.437 284.997 6
-8 3 4 644.615 162.493 4
8 3 5 -47.4162 49.9562 8
8 -3 5 -135.056 93.2666 8
8 3 5 337.126 224.061 3
-8 -3 5 359.299 210.744 6
-8 3 5 -5.94952 30.0205 4
8 3 6 313.359 214.53 8
8 -3 6 114.128 80.4049 8
8 3 6 -13.5345 111.005 3
-8 -3 6 35.7111 75.9845 6
-8 3 6 115.424 73.4405 4
8 3 7 429.155 174.218 8
8 -3 7 279.99 128.046 8
8 3 7 235.561 261.305 3
-8 3 7 203.847 110.241 4
8 -3 8 1.17721 35.7491 8
8 3 8 171.73 169.299 3
-8 3 8 169.346 109.606 4
8 -3 9 237.271 129.282 8
8 3 9 347.607 306.089 3
-8 3 9 259.426 131.263 4
8 3 10 428.738 299.596 3
-8 -4 -6 240.67 144.398 6
8 4 -6 103.965 181.041 3
8 -4 -5 785.892 259.754 8
-8 -4 -5 644.471 196.579 6
8 4 -5 579.712 339.563 3
-8 4 -5 704.645 292.33 6
8 -4 -4 109.393 97.486 8
-8 -4 -4 355.038 159.141 6
8 4 -4 467.973 315.357 3
-8 4 -4 64.6852 130.167 6
8 -4 -3 97.6341 107.413 8
-8 -4 -3 294.585 149.179 6
8 4 -3 -56.6603 279.859 3
-8 4 -3 169.559 199.512 6
8 -4 -2 128.391 126.512 8
8 4 -2 117.613 225.631 3
-8 4 -2 -49.4938 92.8337 6
-8 -4 -1 3256.16 438.859 6
-8 4 -1 3666.37 641.586 6
8 4 -1 3665.46 861.167 3
8 -4 -1 4661.08 550.51 8
8 -4 0 1037.51 273.941 8
8 4 0 874.794 456.488 3
-8 -4 0 1051.2 256.94 6
-8 4 0 814.143 292.078 6
-8 -4 1 3339.19 442.186 6
8 4 1 3761.52 846.778 3
-8 4 1 3050.74 586.197 6
8 -4 1 4758.68 553.564 8
8 -4 2 69.0353 96.0413 8
8 4 2 389.053 331.574 3
-8 -4 2 122.89 111.779 6
-8 4 2 249.684 147.649 6
-8 4 2 10.6688 27.2197 4
8 -4 3 153.763 126.035 8
8 4 3 254.456 275.349 3
-8 -4 3 199.31 122.059 6
-8 4 3 435.102 137.133 4
8 -4 4 479.326 183.47 8
8 4 4 253.087 248.293 3
-8 4 4 442.037 140.014 4
8 -4 5 630.648 212.04 8
8 4 5 610.282 345.945 3
-8 4 5 535.861 155.719 4
8 -4 6 146.144 97.9401 8
8 4 6 152.982 173.726 3
-8 4 6 99.8137 85.5916 4
-8 4 7 2168.65 326.222 4
-8 5 -3 1782.93 454.366 6
8 -5 -2 231.51 130.14 8
-8 -5 -2 255.293 117.69 6
-8 5 -2 478.746 257.778 6
8 -5 -1 1405.21 290.882 8
-8 -5 -1 681.3 177.507 6
-8 5 -1 885.672 334.247 6
8 -5 0 141.557 126.166 8
-8 -5 0 67.4224 64.5156 6
-8 5 0 316.159 198.695 6
8 -5 1 1040.31 249.323 8
-8 5 3 1911.61 290.618 4
-8 5 4 807.362 193.548 4
-9 0 -10 -51.1613 110.775 6
9 0 -10 15.9571 93.8938 3
-9 0 -9 -71.8163 135.832 6
9 0 -9 97.7256 127.639 3
-9 0 -8 193.482 118.656 6
9 0 -8 102.528 67.483 3
-9 0 -7 592.223 292.298 6
9 0 -7 250.046 240.899 3
-9 0 -6 316.249 211.66 6
9 0 -6 -2.04609 80.279 3
-9 0 -5 -226.604 141.985 6
9 0 -5 112.261 266.392 3
9 0 -4 -21.2644 71.311 8
-9 0 -4 -28.2225 83.1383 6
9 0 -3 7.23284 111.796 8
-9 0 -3 -155.28 149.208 6
9 0 -3 149.417 200.726 3
9 0 -2 -188.73 153.127 8
-9 0 -2 -161.687 201.737 6
9 0 -2 300.528 245.921 3
9 0 -1 -137.067 118.583 8
-9 0 -1 -167.419 177.347 6
9 0 -1 -151.008 192.608 3
9 0 0 -86.3946 51.0183 8
-9 0 0 -279.618 203.009 6
9 0 0 -47.643 136.998 3
9 0 1 19.1155 98.0504 8
9 0 1 247.536 210.712 3
9 0 2 142.017 116.295 8
9 0 2 122.01 179.723 3
-9 0 2 -87.8811 97.1856 6
9 0 3 239.629 146.729 8
9 0 3 -79.519 122.796 3
-9 0 3 235.947 173.755 6
9 0 4 -5.80139 59.5182 8
-9 0 4 34.3118 79.9675 6
9 0 5 -117.989 89.4765 8
-9 0 5 361.072 215.034 6
9 0 6 -62.8337 75.4981 8
-9 0 6 3.62397 56.1853 6
9 0 7 133.3 101.911 8
-9 0 7 383.203 207.856 6
-9 0 7 -10.0727 132.643 4
9 0 8 142.058 151.949 8
-9 0 8 -58.2228 79.5641 6
-9 0 8 -81.5475 140.182 4
9 0 9 84.7178 125.285 8
-9 0 9 149.116 160.636 6
-9 0 9 50.7387 165.129 4
9 0 10 263.923 162.845 8
-9 0 10 127.156 186.26 6
9 0 11 156.057 136.935 8
-9 0 11 -85.4522 66.971 6
9 -1 -10 1122.29 354.424 8
-9 1 -10 603.41 227.519 6
9 -1 -10 1255.37 386.487 3
9 -1 -9 -1.24862 116.094 8
-9 -1 -9 332.244 171.612 6
-9 1 -9 423.817 238.577 6
9 1 -9 279.037 248.779 3
9 -1 -9 3.41952 81.0776 3
9 -1 -8 1589.92 388.906 8
-9 -1 -8 1346.26 351.879 6
-9 1 -8 1790.57 436.999 6
9 1 -8 1222.85 535.774 3
9 -1 -8 2034.54 507.528 3
9 -1 -7 3575.24 666.985 3
-9 -1 -7 2481.2 492.685 6
-9 1 -7 2964.37 570.402 6
9 1 -7 2913.68 800.367 3
9 -1 -7 2918.45 542.026 8
9 -1 -6 35.3538 49.8961 8
-9 -1 -6 352.34 176.418 6
-9 1 -6 96.0603 125.003 6
9 1 -6 353.211 283.891 3
9 -1 -6 196.03 188.487 3
9 -1 -5 185.58 139.255 8
-9 -1 -5 865.763 361.632 6
-9 1 -5 451.696 242.084 6
9 1 -5 999.614 457.765 3
9 -1 -5 431.24 260.077 3
9 -1 -4 600.863 244.953 8
-9 -1 -4 987.882 343.832 6
-9 1 -4 588.461 276.255 6
9 1 -4 586.388 401.119 3
9 -1 -4 389.99 217.422 3
9 -1 -3 249.707 156.989 8
-9 -1 -3 800.839 364.361 6
-9 1 -3 535.45 243.684 6
9 1 -3 542.133 351.512 3
9 -1 -3 531.178 255.681 3
9 -1 -2 2334.86 450.529 8
-9 -1 -2 3378.04 612.886 6
9 1 -2 3661.37 818.535 3
-9 1 -2 2769.33 544.404 6
9 -1 -2 2459.28 591.574 3
9 -1 -1 1840.99 417.81 8
-9 -1 -1 1777.69 433.253 6
9 1 -1 1829.11 585.06 3
-9 1 -1 1332.44 375.604 6
9 1 0 1317.86 374.159 8
9 -1 0 1754.43 403.33 8
9 1 0 1798.86 552.751 3
-9 -1 0 1641.66 419.806 6
-9 1 0 1408.1 397.776 6
9 1 1 1783.23 415.202 8
9 -1 1 1587.23 371.945 8
9 1 1 1936.73 590.735 3
-9 -1 1 1525.59 409.049 6
-9 1 1 1674.66 434.745 6
9 1 2 2818.64 704.461 3
-9 -1 2 2328.56 496.139 6
-9 1 2 2310.46 532.444 6
-9 1 2 1191.11 347.547 4
9 1 2 2756.98 505.124 8
9 -1 2 2717.98 471.184 8
9 1 3 1015.42 327.634 8
9 -1 3 217.874 136.888 8
9 1 3 512.778 350.709 3
-9 -1 3 388.365 203.868 6
-9 1 3 311.671 221.611 6
-9 1 3 110.797 86.2021 4
9 1 4 814.701 308.866 8
9 -1 4 722.967 243.654 8
9 1 4 1006.18 402.796 3
-9 -1 4 254.03 145.079 6
-9 1 4 749.016 293.728 6
-9 1 4 180.958 130.36 4
9 1 5 566.978 219.98 8
9 -1 5 556.249 228.544 8
9 1 5 733.553 330.384 3
-9 -1 5 626.432 266.666 6
-9 1 5 356.995 176.004 6
-9 1 5 272.793 152.298 4
9 1 6 94.3168 83.8153 8
9 -1 6 136.42 132.073 8
9 1 6 0.32935 72.7401 3
-9 -1 6 -119.644 135.053 6
-9 1 6 219.412 171.785 6
-9 1 6 196.465 178.591 4
9 1 7 3006.99 697.747 3
-9 -1 7 2263.31 481.173 6
-9 1 7 2151.87 500.074 6
-9 1 7 1313.27 394.667 4
9 1 7 2964.99 492.566 8
9 -1 7 3618 542.488 8
9 1 8 1735.47 363.393 8
9 -1 8 1920.17 400.19 8
9 1 8 1474.73 484.579 3
-9 -1 8 1520.9 397.29 6
-9 1 8 1200.55 398.006 6
-9 1 8 738.843 304.427 4
9 1 9 99.2629 98.7057 8
9 -1 9 212.419 132.743 8
-9 -1 9 202.987 133.45 6
-9 1 9 378.611 244.498 6
-9 1 9 90.3104 159.424 4
9 1 10 1223.25 311.775 8
9 -1 10 1160.64 304.572 8
-9 -1 10 650.331 266.055 6
9 1 11 319.77 181.605 8
-9 2 -10 384.92 219.976 6
9 -2 -10 51.5473 70.5776 3
-9 2 -9 51.5887 124.685 6
9 -2 -9 85.2275 103.138 3
9 -2 -8 96.9076 131.224 8
-9 2 -8 18.7864 53.3231 6
9 -2 -8 -19.6933 95.9575 3
9 -2 -7 785.646 273.11 8
-9 -2 -7 716.133 259.109 6
-9 2 -7 764.276 294.785 6
9 2 -7 132.327 95.9719 3
9 -2 -6 1855.91 403.741 8
-9 -2 -6 2001.48 407.391 6
-9 2 -6 1659.15 425.271 6
9 2 -6 2174.3 683.702 3
9 -2 -5 -67.1982 78.1066 8
-9 -2 -5 363.349 187.714 6
-9 2 -5 -33.7886 129.318 6
9 2 -5 129.517 194.767 3
-9 -2 -4 2402.84 480.715 6
-9 2 -4 1950.41 484.058 6
9 2 -4 3299.13 816.632 3
9 -2 -4 2399.16 446.316 8
9 -2 -3 165.879 134.386 8
-9 -2 -3 523.793 213.522 6
9 2 -3 342.864 352.488 3
-9 2 -3 -201.868 180.907 6
9 -2 -2 505.076 201.535 8
9 2 -2 220.823 247.287 3
-9 2 -2 532.675 235.777 6
9 -2 -1 508.01 201.946 8
9 2 -1 412.96 286.247 3
-9 2 -1 264.104 198.389 6
9 -2 0 224.359 113.063 8
9 2 0 394.88 341.058 3
-9 -2 0 541.333 238.074 6
-9 2 0 351.392 200.165 6
9 -2 1 569.877 211.239 8
9 2 1 668.078 353.94 3
-9 -2 1 814.752 307.617 6
-9 2 1 430.885 248.285 6
9 2 2 637.873 255.093 8
9 -2 2 487.476 207.595 8
9 2 2 593.1 418.169 3
-9 -2 2 415.028 256.976 6
-9 2 2 405.272 268.583 6
9 2 3 430.821 251.403 8
9 -2 3 378.182 180.073 8
9 2 3 588.201 355.426 3
-9 -2 3 -4.65157 68.7784 6
-9 2 3 295.338 168.448 6
-9 2 3 104.313 103.253 4
9 2 4 2117.3 444.385 8
9 2 4 2870.4 704.287 3
-9 -2 4 1975.26 450.972 6
-9 2 4 2385.12 515.006 6
-9 2 4 1544.16 357.508 4
9 -2 4 2495.07 461.022 8
9 2 5 -27.6762 77.1916 8
9 -2 5 203.451 177.629 8
9 2 5 312.128 265.759 3
-9 -2 5 189.611 132.777 6
-9 2 5 281.245 190.61 6
-9 2 5 115.739 83.1657 4
9 2 6 1888.18 417.9 8
9 2 6 1913.9 573.295 3
-9 -2 6 1565.72 392.756 6
-9 2 6 1975.9 468.155 6
-9 2 6 1397.37 352.316 4
9 -2 6 3221.74 527.748 8
9 2 7 1111.62 304 8
9 -2 7 1042.58 281.137 8
9 2 7 1077.09 438.13 3
-9 -2 7 633.61 255.047 6
-9 2 7 640.954 285.824 6
-9 2 7 512.907 214.649 4
9 2 8 52.4523 63.208 8
9 -2 8 -1.68554 57.6306 8
9 2 8 -24.8828 98.8354 3
-9 2 8 48.8472 124.767 4
9 2 9 61.6275 45.0144 8
9 2 9 -178.095 123.396 3
9 2 10 127.167 170.132 3
-9 3 -8 330.291 214.557 6
-9 3 -7 2366.28 539.173 6
9 -3 -6 18.4109 58.0165 8
-9 3 -6 31.4707 94.0592 6
9 -3 -5 700.196 233.506 8
-9 3 -5 6.47978 72.8483 6
9 3 -5 862.934 458.738 3
9 -3 -4 318.564 164.897 8
-9 -3 -4 205.282 123.531 6
9 3 -4 314.088 190.789 3
-9 3 -4 122.576 128.386 6
9 -3 -3 -30.4641 47.489 8
-9 -3 -3 -100.757 151.347 6
9 3 -3 16.7154 90.5315 3
-9 3 -3 8.71311 71.975 6
9 -3 -2 283.927 171.904 8
-9 -3 -2 175.922 124.894 6
9 3 -2 -6.95653 112.175 3
-9 3 -2 237.47 166.415 6
9 -3 -1 1124.16 309.615 8
9 3 -1 615.681 349.777 3
-9 -3 -1 972.399 279.251 6
-9 3 -1 1170.09 382.778 6
9 -3 0 1726.79 389.522 8
9 3 0 1324.61 516.774 3
-9 -3 0 1020.91 272.497 6
-9 3 0 945.266 355.298 6
9 -3 1 1212.18 331.302 8
9 3 1 788.668 421.062 3
-9 -3 1 601.055 228.533 6
-9 3 1 905.144 333.961 6
9 -3 2 326.026 200.854 8
9 3 2 283.871 284.181 3
-9 -3 2 265.609 116.752 6
-9 3 2 66.47 138.596 6
9 -3 3 234.142 157.345 8
9 3 3 291.39 282.067 3
-9 -3 3 497.709 220.882 6
-9 3 3 488.204 256.135 6
9 3 4 331.524 205.32 8
9 -3 4 245.199 133.638 8
9 3 4 563.422 350.519 3
-9 -3 4 553.911 273.324 6
-9 3 4 187.384 150.052 6
-9 3 4 208.304 118.904 4
9 3 5 640.878 244.613 8
9 3 5 360.533 257.993 3
-9 -3 5 794.698 294.461 6
-9 3 5 604.533 203.779 4
9 3 6 -38.5672 47.4054 8
9 3 6 151.928 191.825 3
-9 3 6 -26.6269 44.9151 4
-9 3 7 2156.12 401.432 4
9 3 7 3444.69 558.564 8
-9 4 -5 -105.258 195.061 6
-9 4 -4 1280.3 401.383 6
9 -4 -4 1984.72 396.529 8
9 -4 -3 -10.6856 45.7369 8
-9 4 -3 -70.9124 112.866 6
9 -4 -2 245.43 144.068 8
-9 -4 -1 4043.11 534.055 6
9 -4 -1 5878.78 665.592 8
-9 -4 0 2580.38 426.706 6
-9 -4 1 3170.92 458.176 6
-9 -4 2 13.712 92.975 6
9 4 5 302.701 195.565 8
-9 4 5 134.89 92.2371 4
10 0 -7 990.945 448.139 3
10 0 -6 6643.72 1088.22 3
10 0 -5 75.4818 151.3 8
10 0 -5 66.1612 196.494 3
10 0 -4 367.507 213.1 8
10 0 -4 534.785 311.714 3
-10 0 -3 2845.42 602.753 6
10 0 -3 2900.82 727.088 3
10 0 -3 2929.16 572.326 8
10 0 -2 270.477 183.018 8
-10 0 -2 434.054 227.325 6
10 0 -2 311.909 228.293 3
10 0 -1 129.032 120.964 8
-10 0 -1 412.179 212.067 6
10 0 0 1132.06 350.24 8
-10 0 0 1448.11 419.897 6
10 0 0 1279.29 509.83 3
10 0 1 453.145 238.219 8
-10 0 1 79.407 84.038 6
10 0 2 110.115 140.926 8
-10 0 2 -15.6324 98.4428 6
-10 0 3 2480.6 552.843 6
10 0 3 3297.19 579.21 8
10 0 4 200.202 164.065 8
-10 0 4 18.1263 68.3171 6
10 0 5 -17.9698 66.7677 8
10 -1 -8 929.229 357.185 3
10 -1 -7 510.488 283.493 3
10 1 -6 421.606 296.012 3
10 -1 -5 2536.4 525.527 8
10 1 -5 2155.46 681.386 3
10 -1 -4 774.153 294.292 8
10 1 -4 902.03 479.436 3
10 1 -3 1290.94 397.174 8
10 -1 -3 1096.37 346.636 8
10 1 -3 1434.09 618.979 3
10 1 -2 202.665 195.417 8
10 -1 -2 -3.74853 60.6915 8
-10 -1 -2 242.498 206.752 6
-10 1 -2 130.054 179.951 6
10 1 -2 49.9524 97.7644 3
10 1 -1 249.749 173.791 8
10 -1 -1 -115.168 167.301 8
-10 -1 -1 211.346 219.28 6
-10 1 -1 -258.758 233.933 6
10 1 -1 -27.7112 92.8101 3
10 1 0 616.627 253.274 8
10 -1 0 602.411 213.881 8
-10 -1 0 415.207 225.749 6
10 1 0 820.701 404.423 3
-10 1 0 668.939 309.144 6
10 1 1 106.393 133.288 8
10 -1 1 306.438 170.274 8
10 1 1 -82.6835 162.517 3
-10 -1 1 105.394 109.365 6
-10 1 1 220.787 172.919 6
10 1 2 283.397 166.075 8
10 -1 2 -26.8314 67.3426 8
10 1 2 62.1114 100.993 3
-10 -1 2 150.868 140.86 6
-10 1 2 66.2002 169.033 6
10 1 3 1745.8 423.652 8
10 -1 3 1147.23 323.485 8
10 1 3 1226.26 486.559 3
-10 -1 3 1035.36 351.771 6
10 1 4 401.519 201.468 8
-10 -1 4 342.002 214.395 6
10 1 5 2762.92 516.65 8
-10 -1 5 1954.88 476.156 6
-10 1 5 1032.42 364.507 4
-10 1 6 98.9618 101.963 4
-10 1 7 67.3706 99.3499 4
10 2 -2 2041.15 684.729 3
10 2 -1 19.2547 146.535 3
10 2 0 5817.05 1123.53 3
10 2 1 127.582 168.652 3
10 2 2 2649.52 740.156 3
-10 -2 2 2418.76 533.43 6
10 2 3 757.039 363.89 3
-10 -2 3 474.379 222.015 6
10 2 4 -53.6156 143.378 3
-10 -2 4 175.103 162.118 6
10 2 5 463.621 373.794 3
-10 -2 5 512.588 240.943 6
10 2 6 1030.26 432.084 3
-10 2 6 651.505 281.14 4
