#------------------------------------------------------------------------------
#$Date: 2020-06-09 01:06:46 +0300 (Tue, 09 Jun 2020) $
#$Revision: 253009 $
#$URL: file:///home/coder/svn-repositories/cod/cif/4/51/77/4517757.cif $
#------------------------------------------------------------------------------
#
# This file is available in the Crystallography Open Database (COD),
# http://www.crystallography.net/
#
# All data on this site have been placed in the public domain by the
# contributors.
#
data_4517757
loop_
_publ_author_name
'Wang, Zhihan'
'Scheuring, Mark'
'Mabin, Micah'
'Shahni, Rahul'
'Wang, Zijun D.'
'Ugrinov, Angel'
'Butz, Jonathan'
'Chu, Qianli R.'
_publ_section_title
;
 Renewable Cyclobutane-1,3-dicarboxylic Acid (CBDA) Building Block
 Synthesized from Furfural via Photocyclization
;
_journal_name_full               'ACS Sustainable Chemistry &amp; Engineering'
_journal_paper_doi               10.1021/acssuschemeng.0c00708
_journal_year                    2020
_chemical_formula_moiety         'C14 H12 O6'
_chemical_formula_sum            'C14 H12 O6'
_chemical_formula_weight         276.24
_space_group_crystal_system      triclinic
_space_group_IT_number           2
_space_group_name_Hall           '-P 1'
_space_group_name_H-M_alt        'P -1'
_atom_sites_solution_hydrogens   mixed
_audit_creation_date             2020-01-07
_audit_creation_method
;
Olex2 1.2
(compiled 2018.05.29 svn.r3508 for OlexSys, GUI svn.r5506)
;
_cell_angle_alpha                73.144(4)
_cell_angle_beta                 68.207(4)
_cell_angle_gamma                86.546(4)
_cell_formula_units_Z            2
_cell_length_a                   8.2085(5)
_cell_length_b                   8.3297(5)
_cell_length_c                   10.3384(6)
_cell_measurement_reflns_used    796
_cell_measurement_temperature    100(2)
_cell_measurement_theta_max      25
_cell_measurement_theta_min      2
_cell_volume                     627.27(7)
_computing_molecular_graphics    'Olex2 (Dolomanov et al., 2009)'
_computing_publication_material  'Olex2 (Dolomanov et al., 2009)'
_computing_structure_refinement  'XL (Sheldrick, 2008)'
_diffrn_ambient_temperature      99.99
_diffrn_measured_fraction_theta_full 0.993
_diffrn_measured_fraction_theta_max 0.993
_diffrn_measurement_device_type  Bruker
_diffrn_radiation_type           MoK\a
_diffrn_radiation_wavelength     0.71073
_diffrn_reflns_av_R_equivalents  0.0192
_diffrn_reflns_av_unetI/netI     0.0213
_diffrn_reflns_Laue_measured_fraction_full 0.993
_diffrn_reflns_Laue_measured_fraction_max 0.993
_diffrn_reflns_limit_h_max       9
_diffrn_reflns_limit_h_min       -9
_diffrn_reflns_limit_k_max       9
_diffrn_reflns_limit_k_min       -9
_diffrn_reflns_limit_l_max       12
_diffrn_reflns_limit_l_min       -11
_diffrn_reflns_number            6182
_diffrn_reflns_point_group_measured_fraction_full 0.993
_diffrn_reflns_point_group_measured_fraction_max 0.993
_diffrn_reflns_theta_full        25.130
_diffrn_reflns_theta_max         25.130
_diffrn_reflns_theta_min         2.861
_exptl_absorpt_coefficient_mu    0.116
_exptl_crystal_colour            'clear colourless'
_exptl_crystal_colour_lustre     clear
_exptl_crystal_colour_primary    colourless
_exptl_crystal_density_diffrn    1.463
_exptl_crystal_description       plate
_exptl_crystal_F_000             288
_exptl_crystal_size_max          0.6
_exptl_crystal_size_mid          0.45
_exptl_crystal_size_min          0.25
_refine_diff_density_max         0.424
_refine_diff_density_min         -0.278
_refine_diff_density_rms         0.046
_refine_ls_extinction_method     none
_refine_ls_goodness_of_fit_ref   1.084
_refine_ls_hydrogen_treatment    mixed
_refine_ls_matrix_type           full
_refine_ls_number_parameters     187
_refine_ls_number_reflns         2221
_refine_ls_number_restraints     0
_refine_ls_restrained_S_all      1.084
_refine_ls_R_factor_all          0.0493
_refine_ls_R_factor_gt           0.0433
_refine_ls_shift/su_max          0.000
_refine_ls_shift/su_mean         0.000
_refine_ls_structure_factor_coef Fsqd
_refine_ls_weighting_details
'w=1/[\s^2^(Fo^2^)+(0.0583P)^2^+0.3074P] where P=(Fo^2^+2Fc^2^)/3'
_refine_ls_weighting_scheme      calc
_refine_ls_wR_factor_gt          0.1189
_refine_ls_wR_factor_ref         0.1247
_reflns_Friedel_coverage         0.000
_reflns_number_gt                1869
_reflns_number_total             2221
_reflns_threshold_expression     'I > 2\s(I)'
_cod_data_source_file            sc0c00708_si_002.cif
_cod_data_source_block           cbda_5_0m
_cod_database_code               4517757
_shelx_shelxl_version_number     2018/3
_shelx_space_group_comment
;
The symmetry employed for this shelxl refinement is uniquely defined
by the following loop, which should always be used as a source of
symmetry information in preference to the above space-group names.
They are only intended as comments.
;
_shelx_estimated_absorpt_t_max   0.972
_shelx_estimated_absorpt_t_min   0.934
_olex2_refinement_description
;
1. Fixed Uiso
 At 1.2 times of:
  All C(H) groups
 At 1.5 times of:
  All O(H) groups
2.a Ternary CH refined with riding coordinates:
 C4(H4), C5(H5A), C6(H6), C11(H11)
2.b Aromatic/amide H refined with riding coordinates:
 C1(H1), C2(H2), C8(H8), C9(H9), C10(H10), C13(H13)
;
_shelx_res_file
;
TITL CBDA_5_0m in P-1
    cbda_5_0m.res
    created by SHELXL-2018/3 at 19:41:53 on 07-Jan-2020
CELL 0.71073 8.2085 8.3297 10.3384 73.144 68.207 86.546
ZERR 2 0.0005 0.0005 0.0006 0.004 0.004 0.004
LATT 1
SFAC C H O
UNIT 28 24 12
EQIV $1 +X,1+Y,+Z
EQIV $2 +X,-1+Y,+Z

L.S. 7
PLAN  -3
SIZE 0.25 0.45 0.6
TEMP -173.16
HTAB O5 O2_$2
HTAB O3 O6_$1
BOND $H
CONF
HTAB
fmap 2
acta
REM <olex2.extras>
REM <HklSrc "%.\\CBDA_5_0m.hkl">
REM </olex2.extras>

WGHT    0.058300    0.307400
FVAR       0.40777
O1    3   -0.064280    0.183017    0.817163    11.00000    0.02791    0.01934 =
         0.01643   -0.00649   -0.00890    0.00860
O2    3    0.278105    0.306789    0.838879    11.00000    0.04814    0.01336 =
         0.03160   -0.00959   -0.02936    0.00822
O3    3    0.286031    0.405219    0.610530    11.00000    0.03983    0.01000 =
         0.02523   -0.00394   -0.01758    0.00391
H3    2    0.258979    0.506719    0.633560    11.00000   -1.50000
O4    3    0.549725   -0.185142    0.682016    11.00000    0.02796    0.01853 =
         0.01706   -0.00636   -0.00845    0.00758
O5    3    0.202821   -0.404081    0.902818    11.00000    0.03569    0.01094 =
         0.02436   -0.00439   -0.01565    0.00342
H5    2    0.227193   -0.504663    0.876323    11.00000   -1.50000
O6    3    0.197640   -0.311418    0.678446    11.00000    0.04838    0.01329 =
         0.03432   -0.01064   -0.03080    0.00885
C1    1   -0.221702    0.277736    0.678266    11.00000    0.01965    0.01997 =
         0.03039   -0.00009   -0.01129    0.00489
AFIX  43
H1    2   -0.308296    0.332696    0.643164    11.00000   -1.20000
AFIX   0
C2    1   -0.086195    0.180260    0.609234    11.00000    0.02311    0.01747 =
         0.02193   -0.00424   -0.01204    0.00056
AFIX  43
H2    2   -0.065382    0.157942    0.519521    11.00000   -1.20000
AFIX   0
C3    1    0.006176    0.126238    0.695975    11.00000    0.02033    0.01051 =
         0.01657   -0.00461   -0.00651    0.00011
C4    1    0.167297    0.032074    0.683275    11.00000    0.02080    0.01140 =
         0.01508   -0.00504   -0.00900    0.00142
AFIX  13
H4    2    0.206507   -0.006196    0.593717    11.00000   -1.20000
AFIX   0
C5    1    0.327933    0.117991    0.692322    11.00000    0.01886    0.01238 =
         0.01649   -0.00387   -0.00912    0.00223
AFIX  13
H5A   2    0.436585    0.124567    0.604377    11.00000   -1.20000
AFIX   0
C6    1    0.328263   -0.032493    0.822440    11.00000    0.02055    0.01132 =
         0.01569   -0.00531   -0.00935    0.00196
AFIX  13
H6    2    0.293681    0.003287    0.912987    11.00000   -1.20000
AFIX   0
C7    1    0.489540   -0.128273    0.802927    11.00000    0.02131    0.00988 =
         0.01682   -0.00317   -0.00759   -0.00003
C8    1    0.589444   -0.183169    0.883139    11.00000    0.02288    0.01780 =
         0.02405   -0.00345   -0.01292   -0.00020
AFIX  43
H8    2    0.576176   -0.160667    0.971398    11.00000   -1.20000
AFIX   0
C9    1    0.719285   -0.281790    0.810026    11.00000    0.01853    0.02067 =
         0.03353    0.00028   -0.01095    0.00469
AFIX  43
H9    2    0.808873   -0.337852    0.840399    11.00000   -1.20000
AFIX   0
C10   1   -0.203336    0.276783    0.801358    11.00000    0.02165    0.01738 =
         0.02584   -0.00390   -0.00130    0.00786
AFIX  43
H10   2   -0.275857    0.332811    0.868572    11.00000   -1.20000
AFIX   0
C11   1    0.164207   -0.116135    0.816336    11.00000    0.01832    0.01187 =
         0.01621   -0.00354   -0.00830    0.00267
AFIX  13
H11   2    0.056405   -0.117753    0.903706    11.00000   -1.20000
AFIX   0
C12   1    0.295166    0.285273    0.722757    11.00000    0.02065    0.01374 =
         0.02499   -0.00569   -0.01359    0.00103
C13   1    0.690547   -0.280019    0.690961    11.00000    0.02240    0.01869 =
         0.02594   -0.00385   -0.00027    0.00768
AFIX  43
H13   2    0.757717   -0.336261    0.621997    11.00000   -1.20000
AFIX   0
C14   1    0.189665   -0.286213    0.791117    11.00000    0.01945    0.01338 =
         0.02429   -0.00483   -0.01348    0.00032
HKLF 4




REM  CBDA_5_0m in P-1
REM wR2 = 0.124692, GooF = S = 1.08396, Restrained GooF = 1.08396 for all data
REM R1 = 0.043300 for 1869 Fo > 4sig(Fo) and 0.049344 for all 2221 data
REM 187 parameters refined using 0 restraints

END

WGHT      0.0578      0.3093

REM Instructions for potential hydrogen bonds
HTAB O3 O6_$1
HTAB O5 O2_$2
EQIV $3 -x, -y, -z+1
HTAB C2 O6_$3
EQIV $4 -x+1, -y, -z+2
HTAB C8 O2_$4

REM Highest difference peak  0.424,  deepest hole -0.278,  1-sigma level  0.046
Q1    1   0.3184 -0.3008  0.6178  11.00000  0.05    0.42
Q2    1   0.2476  0.0936  0.6820  11.00000  0.05    0.33
Q3    1   0.1610 -0.0438  0.7495  11.00000  0.05    0.28
;
_shelx_res_checksum              62200
_shelx_hkl_file
;
  -2   0   0  804.79   16.34
  -3   0   0    5.35    0.27
  -3   0   0    4.51    0.26
  -4   0   0  114.05    2.58
  -4   0   0  113.61    2.55
  -4   0   0  116.07    2.57
  -5   0   0    0.39    0.14
  -5   0   0    0.56    0.16
  -5   0   0    0.54    0.13
   5   0   0    0.54    0.18
  -6   0   0   11.40    0.57
  -6   0   0   10.54    0.59
  -6   0   0   11.95    0.59
   6   0   0   11.44    0.67
  -7   0   0    0.15    0.16
  -7   0   0   -0.01    0.13
  -7   0   0    0.30    0.16
   7   0   0    0.27    0.20
  -8   0   0   44.77    1.46
  -8   0   0   43.75    1.49
  -8   0   0   41.50    1.53
   8   0   0   41.43    1.60
  -9   0   0    0.82    0.21
  -9   0   0    1.12    0.21
  -9   0   0    0.52    0.22
   9   0   0    1.40    0.28
   9  -1   0    2.13    0.32
  -9   1   0    1.82    0.28
  -9   1   0    2.04    0.30
  -9   1   0    1.68    0.24
   8  -1   0   25.05    1.19
  -8   1   0   23.92    1.09
  -8   1   0   25.78    1.05
  -8   1   0   25.81    1.05
   7  -1   0    0.85    0.23
  -7   1   0    0.86    0.24
  -7   1   0    0.70    0.23
  -7   1   0    0.84    0.17
  -6   1   0   75.35    1.94
  -6   1   0   73.96    2.03
  -6   1   0   72.53    1.94
  -5   1   0    0.59    0.14
  -5   1   0    0.57    0.17
  -5   1   0    0.39    0.13
  -4   1   0   17.43    0.63
  -4   1   0   17.18    0.65
  -4   1   0   17.70    0.61
  -3   1   0    1.45    0.15
  -3   1   0    1.82    0.18
  -3   1   0    2.20    0.19
  -2   1   0  219.12    4.61
  -2   1   0  229.97    4.53
  -2   1   0  232.79    4.59
  -1  -1   0   -0.04    0.05
  -3  -1   0    7.38    0.33
  -3  -1   0    8.28    0.34
  -3  -1   0    6.89    0.35
   3   1   0    9.26    0.41
  -4  -1   0  228.00    4.58
  -4  -1   0  194.96    4.51
  -4  -1   0  226.32    4.51
   4   1   0  216.66    4.64
  -5  -1   0    7.70    0.43
  -5  -1   0    7.08    0.44
  -5  -1   0    7.66    0.42
   5   1   0    9.05    0.52
  -6  -1   0  240.43    5.18
  -6  -1   0  240.94    5.18
  -6  -1   0  237.29    5.08
   6   1   0  227.51    5.26
  -7  -1   0    0.65    0.21
  -7  -1   0    0.77    0.17
  -7  -1   0    0.56    0.24
   7   1   0    0.75    0.25
  -8  -1   0   30.94    1.22
  -8  -1   0   30.50    1.22
  -8  -1   0   30.81    1.15
   8   1   0   29.19    1.28
  -8   2   0    0.04    0.10
  -8   2   0   -0.14    0.11
  -8   2   0    0.27    0.15
  -7   2   0    3.93    0.39
  -7   2   0    3.35    0.34
  -7   2   0    3.96    0.38
  -6   2   0   96.74    2.32
  -6   2   0   92.06    2.36
  -6   2   0   90.92    2.43
  -5   2   0    2.06    0.23
  -5   2   0    1.68    0.22
  -5   2   0    1.59    0.20
  -4   2   0  466.62    9.68
  -4   2   0  486.45    9.65
  -4   2   0  486.23    9.54
  -3   2   0    1.14    0.14
  -3   2   0    1.36    0.17
  -3   2   0    1.73    0.18
  -2   2   0   16.87    0.52
  -2   2   0   16.98    0.46
  -2   2   0   16.36    0.54
  -1   2   0    0.12    0.05
  -1   2   0    0.07    0.05
   0   2   0  903.25   17.84
   0   2   0  868.12   17.93
  -1  -2   0    0.41    0.09
   1   2   0    0.31    0.12
   1   2   0    0.47    0.08
  -2  -2   0   59.54    1.38
   2   2   0   58.21    1.37
  -3  -2   0    0.16    0.11
  -3  -2   0    0.39    0.10
   3   2   0    0.23    0.11
  -4  -2   0   75.20    1.78
  -4  -2   0   76.90    1.87
  -4  -2   0   76.36    1.79
   4   2   0   73.86    1.89
  -5  -2   0    3.71    0.29
  -5  -2   0    3.58    0.32
  -5  -2   0    3.99    0.30
   5   2   0    4.18    0.35
  -6  -2   0    0.42    0.15
  -6  -2   0    0.80    0.25
  -6  -2   0    0.61    0.18
   6   2   0    0.79    0.24
  -7  -2   0    1.50    0.22
  -7  -2   0    0.97    0.29
  -7  -2   0    1.21    0.24
   7   2   0    1.73    0.29
  -8  -2   0   21.80    1.00
  -8  -2   0   21.07    0.91
  -8  -2   0   20.54    0.96
   8   2   0   19.37    1.00
  -8   3   0   11.05    0.68
  -8   3   0   10.85    0.72
  -8   3   0   12.20    0.66
  -7   3   0    0.27    0.16
  -7   3   0    0.25    0.15
  -7   3   0    0.32    0.17
  -6   3   0   63.06    1.79
  -6   3   0   61.77    1.84
  -6   3   0   64.33    1.70
  -5   3   0    0.92    0.15
  -5   3   0    0.93    0.18
  -5   3   0    1.18    0.19
  -4   3   0    4.65    0.32
  -4   3   0    5.02    0.28
  -4   3   0    5.12    0.34
  -3   3   0    0.51    0.12
  -3   3   0    0.34    0.09
  -3   3   0    0.68    0.11
  -2   3   0  582.89   11.40
  -2   3   0  567.26   12.01
  -2   3   0  564.01   12.00
  -1   3   0    0.02    0.08
  -1   3   0    0.15    0.09
  -1   3   0    0.25    0.07
   0   3   0   12.83    0.41
   0   3   0   12.76    0.45
  -1  -3   0    0.67    0.11
   1   3   0    0.78    0.15
   1   3   0    0.71    0.11
  -2  -3   0 1000.00   20.38
   2   3   0  994.85   20.38
  -3  -3   0   -0.03    0.10
   3   3   0   -0.10    0.07
  -4  -3   0   17.92    0.70
  -4  -3   0   18.72    0.62
   4   3   0   17.76    0.69
  -5  -3   0    1.11    0.23
  -5  -3   0    1.18    0.16
   5   3   0    1.13    0.22
  -6  -3   0    1.02    0.28
  -6  -3   0    0.73    0.16
   6   3   0    0.92    0.27
  -7  -3   0    1.22    0.19
  -7  -3   0    1.28    0.28
   7   3   0    1.50    0.29
  -8  -3   0    0.13    0.09
  -8  -3   0    0.11    0.13
   8   3   0    0.24    0.14
  -8   4   0    0.15    0.11
  -8   4   0    0.10    0.14
  -8   4   0    0.19    0.11
  -7   4   0    1.81    0.29
  -7   4   0    2.25    0.30
  -7   4   0    1.58    0.22
  -6   4   0   13.79    0.71
  -6   4   0   13.90    0.73
  -6   4   0   14.55    0.63
  -5   4   0    0.95    0.20
  -5   4   0    0.81    0.13
  -5   4   0    1.14    0.20
  -4   4   0  126.42    2.88
  -4   4   0  119.18    2.91
  -4   4   0  126.51    2.71
  -3   4   0    0.05    0.07
  -3   4   0    0.02    0.05
  -3   4   0   -0.05    0.05
   2  -4   0   16.03    0.52
  -2   4   0   16.25    0.58
  -2   4   0   16.22    0.50
  -1   4   0    0.25    0.06
  -1   4   0    0.07    0.07
  -1   4   0    0.04    0.07
   0   4   0   11.10    0.45
   0   4   0   10.93    0.41
  -1  -4   0    0.48    0.07
  -1  -4   0    0.55    0.13
   1   4   0    0.46    0.17
   1   4   0    0.56    0.14
  -2  -4   0  152.22    3.27
  -2  -4   0  149.79    3.11
   2   4   0  150.80    3.25
   2   4   0  157.79    3.54
  -3  -4   0    0.35    0.14
   3   4   0    0.23    0.12
   3   4   0    0.30    0.12
  -4  -4   0  109.71    2.61
   4   4   0  110.34    2.60
  -5  -4   0    0.57    0.21
  -5  -4   0    0.50    0.17
   5   4   0    0.51    0.17
  -6  -4   0   -0.16    0.12
   6   4   0    0.16    0.16
  -7  -4   0    0.85    0.15
  -7  -4   0    0.82    0.21
   7   4   0    0.84    0.23
  -8  -4   0    9.44    0.61
  -8  -4   0    8.63    0.57
   8   4   0    8.57    0.61
  -7   5   0    1.14    0.26
  -7   5   0    0.84    0.22
  -7   5   0    0.96    0.17
  -6   5   0   48.88    1.58
  -6   5   0   47.86    1.61
  -6   5   0   49.45    1.40
  -5   5   0    0.42    0.17
  -5   5   0    0.67    0.18
  -5   5   0    0.46    0.11
  -4   5   0    1.91    0.25
  -4   5   0    1.75    0.22
  -4   5   0    2.06    0.18
   3  -5   0    0.26    0.10
  -3   5   0    0.24    0.09
  -3   5   0    0.15    0.10
  -3   5   0    0.09    0.06
   2  -5   0  212.77    4.36
  -2   5   0  206.07    4.46
  -2   5   0  212.48    4.49
  -2   5   0  213.87    4.35
  -1   5   0    0.07    0.07
  -1   5   0    0.04    0.05
   0  -5   0   20.31    0.60
   0   5   0   20.19    0.70
   0   5   0   20.08    0.66
  -1  -5   0    0.44    0.08
   1   5   0    0.43    0.15
   1   5   0    0.56    0.16
  -2  -5   0   18.07    0.65
   2   5   0   18.16    0.65
   2   5   0   17.58    0.78
  -3  -5   0    0.90    0.11
  -3  -5   0    1.19    0.21
   3   5   0    1.13    0.18
   3   5   0    1.02    0.22
  -4  -5   0   47.19    1.23
  -4  -5   0   43.63    1.32
   4   5   0   42.76    1.28
   4   5   0   41.95    1.61
  -5  -5   0    0.07    0.17
   5   5   0    0.01    0.13
  -6  -5   0    5.69    0.48
   6   5   0    5.87    0.47
  -7  -5   0    0.45    0.20
   7   5   0    1.04    0.19
  -7   6   0    0.07    0.12
  -7   6   0    0.08    0.07
  -6   6   0    2.83    0.36
  -6   6   0    2.47    0.32
  -5   6   0    1.75    0.25
  -5   6   0    1.39    0.26
  -5   6   0    1.39    0.18
   4  -6   0  241.36    5.08
  -4   6   0  240.11    5.26
  -4   6   0  236.04    5.25
  -4   6   0  239.55    4.99
   3  -6   0    0.37    0.10
  -3   6   0    0.45    0.11
  -3   6   0    0.40    0.09
  -3   6   0    0.45    0.17
  -2   6   0  167.92    3.69
  -2   6   0  162.38    3.62
  -2   6   0  167.35    3.53
  -1   6   0    0.05    0.06
  -1   6   0    0.12    0.09
   0  -6   0    6.43    0.29
   0   6   0    6.93    0.40
   0   6   0    6.85    0.38
  -1  -6   0    0.22    0.07
   1   6   0    0.15    0.12
   1   6   0    0.28    0.14
  -2  -6   0    0.47    0.08
  -2  -6   0    0.69    0.18
   2   6   0    0.66    0.22
   2   6   0    0.45    0.19
  -3  -6   0    2.48    0.29
   3   6   0    1.98    0.27
   3   6   0    2.15    0.31
  -4  -6   0   84.70    2.20
   4   6   0   85.54    2.19
   4   6   0   85.65    2.59
  -5  -6   0   -0.05    0.12
   5   6   0   -0.04    0.12
   5   6   0   -0.09    0.09
  -6  -6   0   21.36    0.94
   6   6   0   20.49    0.90
   6   6   0   21.86    1.26
   6  -7   0    9.15    0.52
  -6   7   0    8.23    0.58
  -6   7   0    7.89    0.57
   5  -7   0    0.15    0.09
  -5   7   0   -0.07    0.06
  -5   7   0   -0.04    0.10
   4  -7   0   21.07    0.77
  -4   7   0   19.73    0.89
  -4   7   0   19.62    0.85
   3  -7   0    0.09    0.09
  -3   7   0   -0.01    0.05
  -3   7   0    0.10    0.13
  -2   7   0   55.54    1.55
  -2   7   0   55.64    1.58
   1  -7   0    0.15    0.09
  -1   7   0    0.01    0.05
  -1   7   0    0.12    0.11
   0   7   0  163.67    3.64
   0   7   0  161.84    3.66
   1   7   0   -0.01    0.12
   1   7   0   -0.01    0.10
   2   7   0   60.02    1.69
   2   7   0   62.04    1.85
  -3  -7   0    0.03    0.14
   3   7   0    0.12    0.18
   3   7   0    0.06    0.15
  -4  -7   0  142.25    3.40
   4   7   0  144.93    3.84
   4   7   0  144.22    3.42
  -5  -7   0    0.37    0.21
   5   7   0    0.46    0.18
   5   7   0    0.34    0.19
   5  -8   0    0.29    0.10
  -5   8   0    0.19    0.10
  -5   8   0    0.37    0.14
   4  -8   0   19.51    0.76
  -4   8   0   18.47    0.89
  -3   8   0    0.03    0.09
  -2   8   0    5.64    0.43
  -1   8   0   -0.05    0.10
   0   8   0    8.41    0.50
   1   8   0    0.09    0.13
   2   8   0   10.59    0.60
   2   8   0   12.54    0.84
   3   8   0    0.85    0.17
   3   8   0    0.68    0.26
  -4  -8   0    3.74    0.46
   4   8   0    3.63    0.42
   4   8   0    3.85    0.40
  -3   9   0    0.66    0.15
  -2   9   0  103.85    2.73
  -1   9   0   -0.07    0.08
   0   9   0   30.42    1.12
   1   9   0    0.13    0.12
   2   9   0    2.42    0.30
   1   9  -1    7.23    0.49
   0   9  -1    0.20    0.10
  -1   9  -1    0.76    0.17
  -2   9  -1    0.31    0.13
   3   8  -1   34.40    1.46
   3   8  -1   37.08    1.29
   2   8  -1    1.35    0.28
   2   8  -1    1.44    0.25
   1   8  -1    0.66    0.21
   1   8  -1    0.72    0.25
   0   8  -1    0.28    0.14
   0   8  -1    0.39    0.16
  -1   8  -1   16.87    0.75
  -2   8  -1    0.10    0.11
  -3   8  -1   32.31    1.17
  -4   8  -1   -0.02    0.10
  -5   8  -1    0.44    0.17
   5   7  -1    2.36    0.37
   5   7  -1    2.32    0.27
  -5  -7   1    2.03    0.28
   4   7  -1    2.01    0.33
   4   7  -1    2.16    0.32
  -4  -7   1    2.34    0.34
   3   7  -1    3.36    0.36
   3   7  -1    3.82    0.42
   2   7  -1    0.82    0.24
   2   7  -1    0.82    0.30
   1   7  -1   98.81    2.39
   1   7  -1   97.38    2.58
   0   7  -1    0.62    0.17
   0   7  -1    0.67    0.17
  -1   7  -1    5.31    0.37
  -1   7  -1    5.72    0.38
  -2   7  -1    0.02    0.06
  -2   7  -1    0.05    0.10
  -3   7  -1    0.14    0.07
  -3   7  -1    0.02    0.09
  -4   7  -1    0.05    0.11
   4  -7   1    0.01    0.07
  -5   7  -1    4.37    0.39
  -5   7  -1    4.34    0.38
   5  -7   1    3.79    0.30
  -6   7  -1    0.06    0.09
  -6   7  -1    0.30    0.13
   6   6  -1    4.06    0.49
   6   6  -1    3.91    0.35
  -6  -6   1    3.68    0.40
   5   6  -1    2.94    0.46
   5   6  -1    2.97    0.33
  -5  -6   1    2.62    0.36
   4   6  -1    4.58    0.51
   4   6  -1    5.34    0.42
  -4  -6   1    5.34    0.44
   3   6  -1  101.40    2.86
   3   6  -1   99.76    2.47
  -3  -6   1  104.81    2.53
   2   6  -1    0.42    0.19
   2   6  -1    0.07    0.14
   1   6  -1    3.38    0.30
   1   6  -1    3.50    0.34
   0   6  -1   -0.09    0.07
   0   6  -1   -0.08    0.11
  -1   6  -1   57.66    1.50
  -1   6  -1   58.61    1.54
   1  -6   1   56.64    1.34
  -2   6  -1    0.55    0.13
  -2   6  -1    0.54    0.14
   2  -6   1    0.67    0.11
  -3   6  -1   59.23    1.62
  -3   6  -1   63.38    1.69
  -3   6  -1   62.13    1.55
  -4   6  -1    2.08    0.26
  -4   6  -1    1.44    0.18
  -4   6  -1    2.16    0.25
   4  -6   1    2.13    0.20
  -5   6  -1   20.83    0.89
  -5   6  -1   20.34    0.88
  -5   6  -1   21.05    0.75
  -6   6  -1    0.92    0.15
  -6   6  -1    1.07    0.21
  -6   6  -1    1.42    0.23
  -7   6  -1    5.95    0.50
  -7   6  -1    6.43    0.51
  -7   6  -1    5.69    0.46
   6   5  -1    0.21    0.18
   6   5  -1   -0.04    0.10
  -6  -5   1    0.24    0.17
   5   5  -1    0.95    0.24
   5   5  -1    1.47    0.43
  -5  -5   1    1.19    0.27
   4   5  -1    3.64    0.33
   4   5  -1    2.74    0.40
  -4  -5   1    3.39    0.36
   3   5  -1  141.39    3.20
   3   5  -1  143.17    3.63
  -3  -5   1  141.88    3.24
   2   5  -1    2.41    0.24
   2   5  -1    2.16    0.30
  -2  -5   1    2.20    0.26
   1   5  -1   53.94    1.55
   1   5  -1   52.16    1.36
   0   5  -1    0.66    0.17
   0   5  -1    0.81    0.14
  -1   5  -1    2.11    0.19
  -1   5  -1    2.04    0.21
   1  -5   1    1.83    0.14
  -2   5  -1    0.28    0.06
  -2   5  -1    0.11    0.09
  -2   5  -1    0.10    0.08
   2  -5   1    0.33    0.07
  -3   5  -1    8.87    0.44
  -3   5  -1    8.65    0.45
  -3   5  -1    8.61    0.39
   3  -5   1    7.39    0.47
  -4   5  -1    0.81    0.17
  -4   5  -1    0.80    0.13
  -4   5  -1    0.71    0.12
  -5   5  -1    0.07    0.08
  -5   5  -1    0.05    0.11
  -5   5  -1    0.16    0.11
  -6   5  -1    1.24    0.23
  -6   5  -1    1.08    0.17
  -6   5  -1    1.02    0.23
  -7   5  -1   10.52    0.66
  -7   5  -1   10.82    0.68
  -7   5  -1   10.86    0.57
  -8   5  -1    2.93    0.28
  -8   5  -1    3.41    0.39
  -8   5  -1    3.23    0.36
   7   4  -1    0.24    0.15
  -7  -4   1    0.12    0.13
   6   4  -1    0.13    0.14
  -6  -4   1    0.17    0.17
   5   4  -1   26.94    1.00
  -5  -4   1   27.63    1.04
  -5  -4   1   26.18    0.90
   4   4  -1    0.86    0.19
   4   4  -1    0.60    0.25
  -4  -4   1    0.87    0.11
  -4  -4   1    0.86    0.23
   3   4  -1   69.03    2.07
   3   4  -1   67.47    1.71
  -3  -4   1   66.01    1.73
  -3  -4   1   71.05    1.59
   2   4  -1    1.70    0.18
   2   4  -1    1.64    0.25
  -2  -4   1    1.58    0.20
   1   4  -1   59.09    1.57
   1   4  -1   58.38    1.36
  -1  -4   1   58.02    1.38
  -1  -4   1   47.00    1.31
   0   4  -1    0.16    0.13
   0   4  -1    0.26    0.10
   0  -4   1    0.20    0.06
  -1   4  -1   26.43    0.76
  -1   4  -1   27.99    0.83
  -1   4  -1   27.54    0.82
   1  -4   1   26.98    0.68
  -2   4  -1    0.17    0.08
  -2   4  -1    0.19    0.09
  -2   4  -1    0.18    0.08
  -3   4  -1   52.63    1.39
  -3   4  -1   52.43    1.38
  -3   4  -1   52.16    1.29
  -4   4  -1    2.75    0.26
  -4   4  -1    3.18    0.26
  -4   4  -1    2.03    0.20
  -5   4  -1    6.72    0.44
  -5   4  -1    6.77    0.45
  -5   4  -1    7.12    0.38
  -6   4  -1   -0.10    0.07
  -6   4  -1    0.05    0.08
  -6   4  -1   -0.05    0.07
  -7   4  -1    1.50    0.27
  -7   4  -1    2.19    0.25
  -7   4  -1    1.95    0.29
  -8   4  -1    0.34    0.17
  -8   4  -1    0.65    0.24
  -8   4  -1    0.63    0.21
   8   3  -1    0.35    0.16
  -8  -3   1    0.65    0.14
  -8  -3   1    0.27    0.09
   7   3  -1   13.53    0.78
  -7  -3   1   13.92    0.76
  -7  -3   1   14.28    0.72
   6   3  -1    0.99    0.25
  -6  -3   1    1.08    0.26
  -6  -3   1    1.07    0.16
   5   3  -1    8.39    0.52
  -5  -3   1    9.18    0.54
   4   3  -1    3.80    0.31
  -4  -3   1    3.24    0.31
   3   3  -1  103.00    2.40
  -3  -3   1  103.32    2.42
  -3  -3   1  107.86    2.28
   2   3  -1    3.78    0.36
   2   3  -1    4.46    0.27
  -2  -3   1    3.98    0.20
  -2  -3   1    4.24    0.29
   1   3  -1    8.40    0.45
   1   3  -1    7.90    0.33
  -1  -3   1    8.10    0.36
   0   3  -1    0.15    0.09
   0   3  -1    0.12    0.12
  -1   3  -1    0.64    0.11
  -1   3  -1    0.59    0.16
  -2   3  -1    0.17    0.12
  -2   3  -1    0.34    0.08
  -2   3  -1    0.23    0.10
  -3   3  -1   36.37    1.03
  -3   3  -1   36.35    0.94
  -3   3  -1   36.59    1.01
  -4   3  -1    1.50    0.18
  -4   3  -1    1.83    0.19
  -4   3  -1    1.11    0.14
  -5   3  -1    1.70    0.19
  -5   3  -1    1.80    0.22
  -5   3  -1    1.74    0.23
  -6   3  -1    1.76    0.23
  -6   3  -1    2.07    0.27
  -6   3  -1    2.69    0.32
  -7   3  -1    7.58    0.49
  -7   3  -1    7.17    0.53
  -7   3  -1    7.85    0.53
  -8   3  -1    0.21    0.16
  -8   3  -1    0.33    0.14
  -8   3  -1    0.32    0.19
   8   2  -1    3.33    0.38
  -8  -2   1    3.57    0.34
  -8  -2   1    3.14    0.36
  -8  -2   1    3.03    0.35
   7   2  -1    0.57    0.24
  -7  -2   1    0.45    0.19
  -7  -2   1    0.50    0.23
  -7  -2   1    0.51    0.13
   6   2  -1    0.40    0.20
  -6  -2   1    0.79    0.22
  -6  -2   1    0.62    0.17
  -6  -2   1    0.80    0.15
   5   2  -1   31.23    1.09
  -5  -2   1   29.85    0.97
  -5  -2   1   31.53    1.00
  -5  -2   1   30.78    1.06
   4   2  -1    0.73    0.17
  -4  -2   1    0.65    0.16
  -4  -2   1    0.62    0.13
  -4  -2   1    0.54    0.10
   3   2  -1   28.00    0.87
  -3  -2   1   28.62    0.89
  -3  -2   1   31.44    0.91
   2   2  -1    1.89    0.18
  -2  -2   1    1.46    0.18
  -2  -2   1    1.77    0.18
   1   2  -1  778.42   15.55
   1   2  -1  776.15   15.91
  -1  -2   1  749.06   15.40
   0   2  -1   -0.02    0.09
  -1   2  -1    1.29    0.11
  -1   2  -1    1.21    0.13
  -2   2  -1    0.04    0.06
  -2   2  -1    0.33    0.08
  -3   2  -1    7.92    0.36
  -3   2  -1    7.74    0.32
  -3   2  -1    7.87    0.37
  -4   2  -1    5.59    0.33
  -4   2  -1    4.03    0.26
  -5   2  -1    1.75    0.22
  -5   2  -1    1.86    0.19
  -5   2  -1    1.64    0.21
  -6   2  -1    0.14    0.13
  -6   2  -1    0.04    0.08
  -6   2  -1    0.11    0.11
  -7   2  -1    0.55    0.20
  -7   2  -1    0.65    0.21
  -7   2  -1    0.69    0.22
  -8   2  -1    0.03    0.14
  -8   2  -1    0.09    0.12
  -8   2  -1    0.10    0.09
  -9   2  -1    4.57    0.44
  -9   2  -1    4.01    0.38
  -9   2  -1    3.75    0.42
   9  -2   1    3.97    0.45
   8   1  -1    1.50    0.29
  -8  -1   1    1.20    0.20
  -8  -1   1    1.06    0.22
  -8  -1   1    1.30    0.23
   7   1  -1    6.81    0.55
  -7  -1   1    6.33    0.47
  -7  -1   1    5.73    0.44
  -7  -1   1    6.68    0.50
   6   1  -1    8.34    0.56
  -6  -1   1    6.30    0.42
  -6  -1   1    6.31    0.46
  -6  -1   1    6.69    0.45
   5   1  -1   21.78    0.89
  -5  -1   1   23.45    0.84
  -5  -1   1   23.16    0.80
  -5  -1   1   23.09    0.86
   4   1  -1    8.42    0.46
  -4  -1   1    6.56    0.36
  -4  -1   1    6.98    0.37
   3   1  -1   61.47    1.56
  -3  -1   1   63.52    1.48
  -3  -1   1   63.45    1.48
  -2  -1   1    6.47    0.30
  -2  -1   1    7.69    0.28
  -2  -1   1    6.20    0.18
   1   1  -1  279.81    5.62
  -1  -1   1  281.44    5.80
   0   1  -1   -0.34    0.10
  -1   1  -1  387.77    8.04
  -2   1  -1    0.20    0.06
  -2   1  -1    0.08    0.06
  -3   1  -1   75.38    1.70
  -3   1  -1   74.88    1.65
  -4   1  -1    2.73    0.22
  -4   1  -1    2.35    0.21
  -4   1  -1    1.89    0.19
  -5   1  -1   25.58    0.85
  -5   1  -1   26.11    0.90
  -5   1  -1   26.13    0.83
  -6   1  -1    7.77    0.46
  -6   1  -1    8.54    0.50
  -6   1  -1    8.41    0.48
  -7   1  -1    2.19    0.27
  -7   1  -1    2.92    0.32
  -7   1  -1    2.60    0.30
  -8   1  -1    0.05    0.12
  -8   1  -1    0.34    0.20
  -8   1  -1    0.14    0.13
   8  -1   1    0.28    0.16
  -9   1  -1    2.04    0.33
  -9   1  -1    1.52    0.25
  -9   1  -1    2.09    0.27
   9  -1   1    2.18    0.33
   8   0  -1    5.79    0.54
  -8   0   1    4.45    0.42
  -8   0   1    5.17    0.48
  -8   0   1    5.39    0.46
   7   0  -1   28.06    1.21
  -7   0   1   28.81    1.11
  -7   0   1   28.61    1.14
  -7   0   1   28.76    1.07
   6   0  -1    0.35    0.19
  -6   0   1    0.17    0.16
  -6   0   1    0.16    0.14
  -6   0   1    0.11    0.13
   5   0  -1  114.92    2.86
  -5   0   1  117.62    2.73
  -5   0   1  115.22    2.68
  -5   0   1  114.35    2.74
   4   0  -1    1.27    0.21
  -4   0   1    1.06    0.16
  -4   0   1    1.00    0.14
  -4   0   1    1.13    0.18
  -3   0   1   89.63    2.00
  -3   0   1   87.94    1.97
  -3   0   1   85.77    1.99
  -2   0   1    6.43    0.28
  -2   0   1    7.18    0.21
  -2   0   1    7.36    0.29
  -1   0   1  325.29    6.53
  -1   0   1  317.06    6.64
  -2   0  -1    0.62    0.08
  -2   0  -1    0.43    0.08
  -3   0  -1  321.99    6.56
  -3   0  -1  332.34    6.59
  -3   0  -1  334.10    6.56
  -4   0  -1    4.70    0.28
  -4   0  -1    4.05    0.27
  -5   0  -1   39.01    1.11
  -5   0  -1   38.39    1.15
   5   0   1   38.95    1.24
  -6   0  -1    0.66    0.20
  -6   0  -1    0.68    0.18
  -6   0  -1    0.79    0.20
   6   0   1    0.85    0.21
  -7   0  -1   16.32    0.73
  -7   0  -1   14.65    0.75
  -7   0  -1   16.71    0.76
   7   0   1   16.17    0.84
  -8   0  -1    5.05    0.44
  -8   0  -1    4.98    0.45
  -8   0  -1    4.38    0.40
   8   0   1    5.85    0.53
  -9   0  -1    1.73    0.31
  -9   0  -1    1.57    0.27
  -9   0  -1    2.02    0.28
   9   0   1    1.28    0.29
   8  -1  -1    2.45    0.38
  -8   1   1    2.11    0.30
  -8   1   1    2.05    0.29
  -8   1   1    2.51    0.32
   7  -1  -1   40.07    1.52
  -7   1   1   37.88    1.31
  -7   1   1   39.90    1.41
  -7   1   1   39.92    1.34
  -6   1   1    6.31    0.45
  -6   1   1    5.84    0.42
  -6   1   1    5.82    0.42
  -5   1   1    0.32    0.14
  -5   1   1    0.35    0.14
  -5   1   1    0.37    0.12
  -4   1   1    1.67    0.19
  -4   1   1    1.76    0.19
  -4   1   1    1.49    0.18
  -3   1   1  294.58    6.02
  -3   1   1  299.14    5.98
  -3   1   1  292.16    6.05
  -3   1   1  300.29    6.12
  -2   1   1    1.13    0.11
  -2   1   1    1.19    0.13
  -1   1   1   35.78    0.78
   0   1   1   -0.23    0.01
  -2  -1  -1    6.73    0.26
  -3  -1  -1  315.68    6.19
  -3  -1  -1  304.70    6.17
  -3  -1  -1  319.60    6.22
   3   1   1  298.72    6.26
  -4  -1  -1    5.96    0.32
  -4  -1  -1    4.95    0.32
  -4  -1  -1    5.69    0.31
   4   1   1    6.87    0.38
  -5  -1  -1  206.89    4.32
  -5  -1  -1  198.54    4.24
  -5  -1  -1  201.47    4.31
   5   1   1  193.16    4.38
  -6  -1  -1   17.52    0.75
  -6  -1  -1   18.50    0.73
  -6  -1  -1   19.03    0.78
  -7  -1  -1   35.67    1.23
  -7  -1  -1   35.98    1.18
  -7  -1  -1   35.01    1.23
   7   1   1   34.86    1.31
  -8  -1  -1    0.77    0.24
  -8  -1  -1    1.07    0.22
  -8  -1  -1    0.88    0.22
   8   1   1    1.06    0.27
  -9  -1  -1    3.03    0.36
  -9  -1  -1    3.30    0.36
  -9  -1  -1    3.27    0.37
   9   1   1    3.76    0.43
  -8   2   1    0.06    0.10
  -8   2   1    0.11    0.12
  -8   2   1    0.01    0.10
  -7   2   1   44.51    1.42
  -7   2   1   43.25    1.51
  -7   2   1   45.21    1.47
  -6   2   1    6.19    0.46
  -6   2   1    5.29    0.39
  -6   2   1    5.69    0.43
  -5   2   1    2.73    0.27
  -5   2   1    2.35    0.26
  -5   2   1    2.72    0.25
  -4   2   1    7.93    0.39
  -4   2   1   10.54    0.50
  -4   2   1    8.74    0.45
  -3   2   1    3.94    0.27
  -3   2   1    3.94    0.23
  -3   2   1    3.81    0.26
  -3   2   1    4.14    0.20
  -2   2   1    1.94    0.13
  -2   2   1    2.14    0.17
  -2   2   1    1.67    0.16
  -2   2   1    1.44    0.12
  -1   2   1   33.60    0.76
   0   2   1    0.19    0.06
   0   2   1    0.22    0.05
  -1  -2  -1  819.17   16.08
   1   2   1  790.75   16.25
  -2  -2  -1   -0.08    0.06
  -2  -2  -1   -0.09    0.07
   2   2   1   -0.12    0.08
  -3  -2  -1   69.71    1.51
  -3  -2  -1   66.18    1.57
   3   2   1   64.42    1.57
  -4  -2  -1    1.61    0.17
  -4  -2  -1    1.70    0.18
  -4  -2  -1    1.71    0.21
   4   2   1    2.11    0.22
  -5  -2  -1   25.41    0.88
  -5  -2  -1   25.98    0.84
  -5  -2  -1   25.27    0.82
   5   2   1   23.92    0.89
  -6  -2  -1    1.68    0.22
  -6  -2  -1    1.49    0.22
  -6  -2  -1    1.61    0.26
   6   2   1    1.98    0.28
  -7  -2  -1    1.07    0.20
  -7  -2  -1    1.55    0.27
  -7  -2  -1    1.40    0.24
   7   2   1    1.01    0.23
  -8  -2  -1   11.19    0.67
  -8  -2  -1   10.97    0.66
  -8  -2  -1    9.93    0.61
   8   2   1   12.99    0.77
  -9  -2  -1   22.47    1.03
  -9  -2  -1   20.52    1.01
  -9  -2  -1   22.32    0.98
   9   2   1   22.42    1.11
  -8   3   1    1.37    0.26
  -8   3   1    1.40    0.21
  -8   3   1    1.49    0.27
  -7   3   1    5.48    0.40
  -7   3   1    5.26    0.45
  -7   3   1    5.26    0.48
  -6   3   1    1.38    0.25
  -6   3   1    1.19    0.24
  -6   3   1    1.23    0.19
  -5   3   1   35.05    1.20
  -5   3   1   36.28    1.07
  -5   3   1   36.38    1.17
  -4   3   1    2.44    0.25
  -4   3   1    2.35    0.20
  -4   3   1    3.06    0.27
  -3   3   1   51.37    1.34
  -3   3   1   53.17    1.22
  -3   3   1   49.49    1.37
  -2   3   1    3.52    0.19
  -2   3   1    3.37    0.24
   1  -3  -1  542.39   10.89
  -1   3   1  551.57   11.40
  -1   3   1  529.64   11.23
  -1   3   1  556.74   10.65
  -1   3   1  532.25   11.10
   0  -3  -1    0.40    0.07
   0   3   1    0.40    0.06
   0   3   1    0.45    0.09
  -1  -3  -1  397.46    7.95
  -1  -3  -1  406.09    7.97
   1   3   1  390.63    8.15
   1   3   1  408.12    8.09
   1   3   1  399.13    8.14
  -2  -3  -1    7.34    0.28
  -2  -3  -1    8.68    0.35
   2   3   1    9.45    0.36
   2   3   1    7.75    0.22
  -3  -3  -1   71.72    1.71
  -3  -3  -1   72.98    1.61
   3   3   1   73.21    1.72
  -4  -3  -1    0.88    0.12
  -4  -3  -1    0.90    0.17
   4   3   1    1.01    0.17
  -5  -3  -1    0.19    0.14
  -5  -3  -1    0.06    0.09
   5   3   1    0.13    0.12
  -6  -3  -1    0.80    0.23
  -6  -3  -1    0.99    0.17
   6   3   1    1.08    0.22
  -7  -3  -1   25.71    1.03
  -7  -3  -1   21.22    0.93
   7   3   1   25.21    1.04
  -8  -3  -1    0.49    0.20
  -8  -3  -1    0.14    0.08
   8   3   1    0.11    0.13
  -8   4   1    0.30    0.12
  -8   4   1    0.63    0.22
  -8   4   1    0.47    0.17
  -7   4   1   22.00    0.98
  -7   4   1   22.12    0.88
  -7   4   1   20.84    1.00
  -6   4   1    1.54    0.27
  -6   4   1    1.80    0.27
  -6   4   1    1.76    0.21
  -5   4   1   13.44    0.56
  -5   4   1   13.73    0.70
  -5   4   1   13.35    0.66
  -4   4   1    2.22    0.19
  -4   4   1    3.07    0.30
  -4   4   1    2.56    0.26
  -3   4   1   27.27    0.89
  -3   4   1   26.79    0.90
  -3   4   1   27.34    0.74
   2  -4  -1    0.13    0.07
  -2   4   1    0.12    0.08
  -2   4   1    0.16    0.06
  -2   4   1    0.24    0.09
  -2   4   1    0.19    0.08
   1  -4  -1    0.72    0.11
  -1   4   1    0.57    0.09
  -1   4   1    0.63    0.09
  -1   4   1    0.91    0.12
  -1   4   1    0.75    0.13
   0  -4  -1    0.39    0.10
   0   4   1    0.28    0.06
   0   4   1    0.30    0.10
   0   4   1    0.18    0.10
  -1  -4  -1  375.90    7.27
  -1  -4  -1  362.49    7.30
   1   4   1  375.42    7.55
   1   4   1  362.39    7.53
   1   4   1  369.24    7.45
  -2  -4  -1   -0.02    0.08
  -2  -4  -1    0.00    0.04
   2   4   1    0.03    0.02
   2   4   1   -0.03    0.07
   2   4   1   -0.06    0.07
  -3  -4  -1  107.61    2.43
  -3  -4  -1  111.03    2.31
   3   4   1  104.73    2.42
  -4  -4  -1    8.46    0.45
  -4  -4  -1    8.60    0.38
  -5  -4  -1   12.33    0.53
  -5  -4  -1   12.57    0.61
   5   4   1   11.68    0.59
  -6  -4  -1    1.49    0.28
  -6  -4  -1    1.37    0.20
   6   4   1    1.13    0.23
  -7  -4  -1    3.29    0.31
  -7  -4  -1    3.36    0.40
   7   4   1    3.03    0.37
  -8  -4  -1    4.07    0.37
  -8  -4  -1    4.24    0.42
   8   4   1    3.98    0.43
  -7   5   1    0.43    0.19
  -7   5   1    0.73    0.27
  -6   5   1    0.08    0.15
  -6   5   1   -0.02    0.10
  -6   5   1    0.00    0.07
  -5   5   1   82.24    2.20
  -5   5   1   80.89    2.24
  -5   5   1   82.21    1.98
  -4   5   1    0.94    0.12
  -4   5   1    1.07    0.20
  -4   5   1    1.32    0.21
   3  -5  -1    3.70    0.26
  -3   5   1    3.48    0.30
  -3   5   1    4.22    0.22
  -3   5   1    3.22    0.29
   2  -5  -1    0.44    0.11
  -2   5   1    0.38    0.06
  -2   5   1    0.50    0.10
  -2   5   1    0.38    0.13
   1  -5  -1    2.27    0.18
  -1   5   1    2.25    0.15
  -1   5   1    2.51    0.21
  -1   5   1    2.54    0.20
  -1   5   1    2.41    0.16
   0  -5  -1    0.10    0.07
   0   5   1    0.12    0.08
   0   5   1    0.15    0.05
   0   5   1    0.09    0.08
   1   5   1    7.10    0.37
   1   5   1    6.92    0.37
   1   5   1    6.71    0.23
  -2  -5  -1    1.41    0.17
   2   5   1    1.58    0.22
   2   5   1    1.83    0.21
  -3  -5  -1  178.97    3.88
   3   5   1  180.46    3.90
   3   5   1  184.12    4.24
  -4  -5  -1    0.31    0.15
  -4  -5  -1    0.28    0.11
   4   5   1    0.38    0.16
  -5  -5  -1   11.17    0.50
  -5  -5  -1   11.08    0.60
   5   5   1   11.25    0.59
  -6  -5  -1    1.59    0.19
  -6  -5  -1    1.39    0.27
   6   5   1    1.32    0.24
  -7  -5  -1   10.49    0.58
  -7  -5  -1   10.53    0.65
   7   5   1   10.30    0.64
  -7   6   1    0.73    0.25
  -7   6   1    0.48    0.20
  -6   6   1    0.06    0.09
  -6   6   1   -0.02    0.09
   5  -6  -1    5.23    0.37
  -5   6   1    5.11    0.44
  -5   6   1    5.38    0.45
   4  -6  -1    0.29    0.12
  -4   6   1    0.22    0.14
  -4   6   1    0.19    0.10
   3  -6  -1   27.95    0.88
  -3   6   1   27.86    0.99
  -3   6   1   27.44    0.98
   2  -6  -1    0.11    0.09
  -2   6   1    0.13    0.06
  -2   6   1    0.32    0.14
  -2   6   1    0.22    0.11
   1  -6  -1    2.18    0.19
  -1   6   1    2.31    0.17
  -1   6   1    1.95    0.21
   0  -6  -1    0.12    0.09
   0   6   1    0.23    0.10
   0   6   1    0.20    0.07
   1   6   1    9.31    0.46
   1   6   1    9.91    0.48
  -2  -6  -1    0.18    0.12
   2   6   1    0.28    0.16
   2   6   1   -0.07    0.09
  -3  -6  -1   79.05    1.93
   3   6   1   77.63    1.97
   3   6   1   77.30    2.21
  -4  -6  -1    3.86    0.34
   4   6   1    3.54    0.41
   4   6   1    3.87    0.35
  -5  -6  -1    9.72    0.57
   5   6   1    9.47    0.55
   5   6   1    9.86    0.75
  -6  -6  -1    1.15    0.21
   6   6   1    1.00    0.23
  -7  -6  -1    0.63    0.14
   7   6   1    0.73    0.17
   6  -7  -1    0.28    0.11
  -6   7   1    0.15    0.15
  -6   7   1    0.21    0.13
   5  -7  -1    1.07    0.17
  -5   7   1    0.93    0.21
  -5   7   1    0.84    0.19
   4  -7  -1    0.25    0.11
  -4   7   1    0.23    0.14
  -4   7   1    0.18    0.13
   3  -7  -1   49.90    1.37
  -3   7   1   48.71    1.48
  -3   7   1   48.59    1.50
   2  -7  -1    0.23    0.12
  -2   7   1    0.24    0.15
  -2   7   1    0.27    0.13
   1  -7  -1   32.51    0.94
  -1   7   1   31.93    1.05
   0   7   1    0.39    0.15
   1   7   1    6.61    0.44
   1   7   1    6.09    0.40
  -2  -7  -1    0.15    0.08
   2   7   1    0.01    0.07
   2   7   1   -0.05    0.14
  -3  -7  -1   10.18    0.52
  -3  -7  -1    9.35    0.55
   3   7   1   10.27    0.57
   3   7   1   10.60    0.64
  -4  -7  -1    0.48    0.19
   4   7   1    0.41    0.20
   4   7   1    0.28    0.21
  -5  -7  -1    4.70    0.41
   5   7   1    4.67    0.50
   5   7   1    4.65    0.41
  -6  -7  -1    1.94    0.23
   6   7   1    2.33    0.29
   6   7   1    1.42    0.26
   5  -8  -1    0.22    0.09
  -5   8   1    0.28    0.15
  -5   8   1    0.19    0.12
   4  -8  -1   -0.02    0.08
  -4   8   1   -0.08    0.06
  -4   8   1    0.11    0.12
   3  -8  -1   70.84    1.82
  -3   8   1   68.92    1.94
  -3   8   1   70.93    2.02
   2  -8  -1   -0.03    0.07
  -2   8   1    0.04    0.10
  -1   8   1    0.47    0.18
   0   8   1    0.36    0.16
   1   8   1   26.43    0.96
   2   8   1    0.35    0.20
   3   8   1    0.58    0.25
   4   8   1    0.24    0.20
   5   8   1    0.20    0.10
   5   8   1    0.12    0.14
  -3   9   1   23.66    1.03
  -2   9   1    0.07    0.09
  -1   9   1    7.62    0.52
   0   9   1    0.11    0.11
   1   9   1   13.41    0.69
   2   9   1    0.03    0.11
   3   9   1    0.80    0.28
   2   8  -2   28.10    1.07
   2   8  -2   28.58    1.27
   1   8  -2   -0.01    0.16
   1   8  -2    0.41    0.15
   0   8  -2   18.96    0.80
   0   8  -2   18.67    0.88
  -1   8  -2    0.07    0.09
  -1   8  -2    0.14    0.08
  -2   8  -2    4.72    0.39
  -2   8  -2    5.22    0.37
  -3   8  -2   -0.01    0.05
  -4   8  -2    6.45    0.49
   4   7  -2   41.36    1.38
   4   7  -2   40.37    1.71
  -4  -7   2   42.64    1.43
   3   7  -2    0.35    0.18
   3   7  -2    0.64    0.26
   2   7  -2   24.54    1.13
   2   7  -2   23.67    0.93
   1   7  -2    1.51    0.23
   1   7  -2    1.25    0.27
   0   7  -2  149.82    3.62
   0   7  -2  151.02    3.41
  -1   7  -2    0.52    0.14
  -2   7  -2   42.27    1.29
  -2   7  -2   41.77    1.28
  -3   7  -2    0.49    0.12
  -3   7  -2    0.27    0.11
  -4   7  -2   26.80    1.03
  -4   7  -2   27.16    0.93
  -5   7  -2    0.09    0.08
  -5   7  -2    0.05    0.06
  -6   7  -2    0.11    0.12
   5   6  -2    1.56    0.23
   5   6  -2    1.47    0.29
  -5  -6   2    1.37    0.27
   4   6  -2  138.20    3.32
   4   6  -2  139.82    3.88
  -4  -6   2  144.01    3.43
   3   6  -2    4.57    0.37
   3   6  -2    3.90    0.47
  -3  -6   2    4.79    0.45
   2   6  -2    5.82    0.40
   2   6  -2    5.50    0.50
   1   6  -2    0.04    0.14
   1   6  -2   -0.02    0.13
   0   6  -2    0.23    0.16
   0   6  -2    0.23    0.12
  -1   6  -2   -0.02    0.11
  -1   6  -2    0.17    0.10
  -2   6  -2  241.89    5.15
  -2   6  -2  242.75    5.17
  -3   6  -2    0.03    0.08
  -3   6  -2    0.06    0.09
  -4   6  -2  164.99    3.79
  -4   6  -2  165.06    3.65
  -5   6  -2    3.48    0.32
  -5   6  -2    2.58    0.26
  -5   6  -2    2.97    0.30
  -6   6  -2   83.93    2.32
  -6   6  -2   82.51    2.32
  -6   6  -2   84.84    2.14
  -7   6  -2    0.83    0.20
  -7   6  -2    0.60    0.14
  -7   6  -2    0.83    0.18
   6   5  -2    0.21    0.11
   6   5  -2    0.38    0.18
  -6  -5   2    0.35    0.14
   5   5  -2    0.45    0.20
   5   5  -2    0.29    0.22
  -5  -5   2    0.23    0.21
   4   5  -2   19.09    0.79
   4   5  -2   20.94    1.13
  -4  -5   2   20.98    0.88
   3   5  -2    0.85    0.19
   3   5  -2    0.84    0.28
  -3  -5   2    0.49    0.22
   2   5  -2   94.13    2.56
   2   5  -2   91.78    2.19
  -2  -5   2   92.06    2.26
   1   5  -2    3.40    0.28
   1   5  -2    2.99    0.35
   0   5  -2  123.55    2.72
   0   5  -2  123.54    2.95
  -1   5  -2    0.28    0.15
  -1   5  -2    0.52    0.11
  -2   5  -2  159.33    3.47
  -2   5  -2  160.09    3.51
   2  -5   2  159.76    3.29
  -3   5  -2    0.31    0.12
  -3   5  -2    0.17    0.09
   3  -5   2    0.27    0.07
  -4   5  -2    0.96    0.16
  -4   5  -2    1.22    0.17
  -4   5  -2    1.02    0.18
  -5   5  -2   -0.06    0.07
  -5   5  -2   -0.02    0.08
  -5   5  -2    0.13    0.09
  -6   5  -2   28.27    0.96
  -6   5  -2   27.33    1.09
  -6   5  -2   28.15    1.07
  -7   5  -2    3.24    0.35
  -7   5  -2    2.32    0.25
  -7   5  -2    2.94    0.32
  -8   5  -2   66.75    2.17
  -8   5  -2   72.30    2.15
  -8   5  -2   71.38    2.00
   7   4  -2    1.05    0.26
   7   4  -2    0.89    0.15
   6   4  -2    2.46    0.43
   6   4  -2    3.21    0.34
  -6  -4   2    2.88    0.33
   5   4  -2    0.56    0.21
   5   4  -2    0.01    0.19
  -5  -4   2    0.37    0.23
   4   4  -2    0.51    0.25
   4   4  -2    0.64    0.21
  -4  -4   2    0.86    0.26
   3   4  -2    0.26    0.19
   3   4  -2    0.19    0.12
  -3  -4   2    0.35    0.18
   2   4  -2  202.96    4.60
   2   4  -2  195.73    4.18
  -2  -4   2  196.42    4.26
   1   4  -2    1.22    0.23
   1   4  -2    1.15    0.16
  -1  -4   2    1.28    0.18
   0   4  -2   61.71    1.46
   0   4  -2   60.02    1.65
   0  -4   2   64.09    1.60
  -1   4  -2    0.52    0.16
  -1   4  -2    0.61    0.10
   1  -4   2    0.56    0.11
  -2   4  -2  133.41    2.95
  -2   4  -2  134.05    2.90
   2  -4   2  133.97    2.77
  -3   4  -2    0.63    0.09
  -3   4  -2    0.46    0.11
  -3   4  -2    0.45    0.11
  -4   4  -2   23.88    0.77
  -4   4  -2   24.23    0.84
  -4   4  -2   23.99    0.83
  -5   4  -2    1.47    0.18
  -5   4  -2    2.21    0.23
  -5   4  -2    2.07    0.24
  -6   4  -2   38.47    1.17
  -6   4  -2   37.66    1.26
  -6   4  -2   38.92    1.31
  -7   4  -2    0.62    0.22
  -7   4  -2    0.59    0.14
  -7   4  -2    0.56    0.21
  -8   4  -2    4.95    0.47
  -8   4  -2    5.08    0.46
  -8   4  -2    5.33    0.41
   7   3  -2    0.63    0.22
  -7  -3   2    0.91    0.21
   6   3  -2   40.66    1.40
  -6  -3   2   40.15    1.40
   5   3  -2    3.02    0.33
  -5  -3   2    2.85    0.35
  -5  -3   2    2.54    0.23
   4   3  -2   32.05    1.05
  -4  -3   2   32.70    0.96
  -4  -3   2   32.86    1.09
   3   3  -2    0.29    0.19
   3   3  -2    0.19    0.11
  -3  -3   2    0.34    0.07
  -3  -3   2    0.28    0.15
  -3  -3   2    0.07    0.09
   2   3  -2  241.12    5.42
   2   3  -2  240.79    5.05
  -2  -3   2  251.83    5.24
  -2  -3   2  248.55    5.13
   1   3  -2    0.67    0.12
   1   3  -2    0.78    0.20
  -1  -3   2    0.65    0.13
  -1  -3   2    0.75    0.17
   0   3  -2  157.34    3.50
   0   3  -2  154.59    3.28
   0  -3   2  166.53    3.46
  -1   3  -2   -0.03    0.12
  -1   3  -2    0.07    0.06
  -2   3  -2   53.66    1.27
  -2   3  -2   53.45    1.32
  -2   3  -2   52.87    1.25
  -3   3  -2    0.01    0.08
  -3   3  -2    0.13    0.08
  -3   3  -2    0.09    0.05
  -4   3  -2  253.94    5.15
  -4   3  -2  249.19    5.23
  -4   3  -2  247.97    5.27
  -5   3  -2    0.24    0.10
  -5   3  -2    0.21    0.12
  -5   3  -2    0.18    0.10
  -6   3  -2    2.69    0.29
  -6   3  -2    2.85    0.31
  -6   3  -2    2.74    0.26
  -7   3  -2    2.87    0.33
  -7   3  -2    2.34    0.28
  -7   3  -2    2.06    0.27
  -8   3  -2    9.66    0.58
  -8   3  -2    9.28    0.59
  -8   3  -2    9.27    0.64
  -9   3  -2    0.20    0.11
  -9   3  -2    0.62    0.27
  -9   3  -2    0.27    0.14
   7   2  -2    0.81    0.29
  -7  -2   2    0.45    0.11
  -7  -2   2    0.65    0.22
  -7  -2   2    0.82    0.22
   6   2  -2    0.45    0.23
  -6  -2   2    0.32    0.13
  -6  -2   2    0.47    0.22
  -6  -2   2    0.51    0.18
   5   2  -2    0.18    0.15
  -5  -2   2    0.12    0.16
  -5  -2   2    0.26    0.13
   4   2  -2    0.12    0.11
  -4  -2   2   -0.07    0.10
  -4  -2   2    0.49    0.12
   3   2  -2    1.33    0.18
  -3  -2   2    0.85    0.05
  -3  -2   2    1.15    0.19
  -3  -2   2    1.13    0.11
  -3  -2   2    0.98    0.15
   2   2  -2   19.32    0.82
   2   2  -2   19.05    0.62
  -2  -2   2   20.38    0.72
  -2  -2   2   20.10    0.44
  -2  -2   2   19.05    0.65
   1   2  -2    0.97    0.22
   1   2  -2    0.77    0.11
  -1  -2   2    0.96    0.15
  -1  -2   2    0.74    0.14
   0   2  -2  491.69   10.19
   0   2  -2  468.62    9.73
  -1   2  -2    0.34    0.12
  -1   2  -2    0.34    0.06
  -2   2  -2   45.71    1.11
  -2   2  -2   45.56    1.07
  -3   2  -2    1.28    0.14
  -3   2  -2    0.67    0.13
  -3   2  -2    1.02    0.13
  -4   2  -2   48.37    1.28
  -4   2  -2   50.42    1.24
  -4   2  -2   48.47    1.31
  -5   2  -2    0.05    0.09
  -5   2  -2    0.04    0.08
  -5   2  -2   -0.08    0.06
  -6   2  -2   13.68    0.67
  -6   2  -2   13.57    0.62
  -6   2  -2   13.55    0.59
  -7   2  -2    0.07    0.11
  -7   2  -2    0.20    0.13
  -7   2  -2   -0.01    0.10
  -8   2  -2    0.80    0.25
  -8   2  -2    0.70    0.19
  -8   2  -2    0.50    0.17
  -9   2  -2    0.93    0.21
  -9   2  -2    1.37    0.25
  -9   2  -2    1.00    0.18
   9  -2   2    1.59    0.28
   8   1  -2    9.29    0.70
  -8  -1   2    8.48    0.60
  -8  -1   2    9.14    0.59
  -8  -1   2    9.00    0.61
   7   1  -2    0.17    0.15
  -7  -1   2    0.17    0.08
  -7  -1   2    0.08    0.13
  -7  -1   2    0.19    0.14
   6   1  -2   26.52    1.09
  -6  -1   2   26.24    1.03
  -6  -1   2   25.53    0.94
  -6  -1   2   26.57    1.01
   5   1  -2    2.51    0.31
  -5  -1   2    2.22    0.23
  -5  -1   2    2.50    0.28
  -5  -1   2    2.29    0.25
  -5  -1   2    1.88    0.23
   4   1  -2    8.30    0.48
  -4  -1   2    8.56    0.41
  -4  -1   2    8.69    0.44
  -4  -1   2    8.46    0.46
  -4  -1   2    8.28    0.42
   3   1  -2    0.05    0.10
  -3  -1   2    0.03    0.03
  -3  -1   2    0.07    0.11
  -3  -1   2   -0.04    0.06
  -3  -1   2    0.02    0.07
   2   1  -2  140.78    3.02
  -2  -1   2  139.92    3.01
  -2  -1   2  139.94    3.01
  -2  -1   2  141.37    2.93
  -2  -1   2  145.45    2.81
  -2  -1   2  139.27    3.08
   1   1  -2    0.50    0.08
   1   1  -2    0.22    0.13
  -1  -1   2    0.36    0.10
  -1  -1   2    0.26    0.05
   0   1  -2    2.18    0.19
  -1   1  -2    0.05    0.08
  -2   1  -2   27.52    0.69
  -2   1  -2   26.32    0.72
  -3   1  -2    1.76    0.16
  -3   1  -2    1.51    0.16
  -4   1  -2   44.34    1.15
  -4   1  -2   44.94    1.13
  -4   1  -2   44.99    1.19
  -5   1  -2    0.69    0.14
  -5   1  -2    1.00    0.15
  -5   1  -2    0.63    0.13
  -6   1  -2    1.95    0.24
  -6   1  -2    1.89    0.23
  -6   1  -2    1.46    0.21
  -7   1  -2    0.76    0.23
  -7   1  -2    0.58    0.19
  -7   1  -2    0.40    0.18
  -8   1  -2    0.86    0.21
  -8   1  -2    0.83    0.24
  -8   1  -2    0.82    0.26
   8  -1   2    0.84    0.23
  -9   1  -2    0.30    0.13
  -9   1  -2    0.11    0.12
  -9   1  -2    0.12    0.14
   9  -1   2    0.07    0.16
   8   0  -2   37.42    1.54
  -8   0   2   39.15    1.38
  -8   0   2   39.00    1.42
  -8   0   2   37.33    1.45
   7   0  -2    2.69    0.36
  -7   0   2    2.04    0.29
  -7   0   2    1.93    0.29
  -7   0   2    2.38    0.28
   6   0  -2   13.51    0.76
  -6   0   2   14.05    0.66
  -6   0   2   13.47    0.68
  -6   0   2   13.60    0.69
   5   0  -2    0.74    0.22
  -5   0   2    0.66    0.16
  -5   0   2    0.45    0.12
  -5   0   2    0.32    0.14
  -5   0   2    0.33    0.09
   4   0  -2    4.35    0.35
  -4   0   2    4.76    0.31
  -4   0   2    4.54    0.31
  -4   0   2    4.54    0.20
  -4   0   2    4.82    0.32
   3   0  -2    3.35    0.27
  -3   0   2    2.25    0.13
  -3   0   2    2.59    0.20
  -3   0   2    2.26    0.21
  -3   0   2    2.46    0.20
  -2   0   2   49.13    1.19
  -2   0   2   48.17    1.16
  -2   0   2   50.37    1.07
  -1   0   2    1.76    0.14
  -1   0   2    1.38    0.10
  -1   0   2    1.54    0.13
  -1   0  -2    0.54    0.11
  -2   0  -2  225.73    4.48
  -3   0  -2   -0.05    0.06
  -3   0  -2   -0.03    0.07
  -3   0  -2   -0.06    0.05
  -4   0  -2   83.62    1.91
  -4   0  -2   85.65    1.95
  -5   0  -2    1.24    0.17
  -5   0  -2    1.53    0.18
  -5   0  -2    2.00    0.22
   5   0   2    2.30    0.25
  -6   0  -2   53.04    1.45
  -6   0  -2   52.74    1.53
  -6   0  -2   55.50    1.50
   6   0   2   52.58    1.61
  -7   0  -2    0.32    0.18
  -7   0  -2    0.57    0.21
  -7   0  -2    0.20    0.15
   7   0   2    0.43    0.19
  -8   0  -2    0.88    0.28
  -8   0  -2    0.85    0.26
  -8   0  -2    0.84    0.22
   8   0   2    0.93    0.24
  -9   0  -2    1.55    0.26
  -9   0  -2    1.06    0.22
  -9   0  -2    1.34    0.27
   9   0   2    2.15    0.36
   8  -1  -2    3.86    0.45
  -8   1   2    4.03    0.41
  -8   1   2    3.91    0.40
  -8   1   2    4.09    0.38
   7  -1  -2    0.49    0.19
  -7   1   2    0.50    0.21
  -7   1   2    0.35    0.15
  -7   1   2    0.62    0.17
   6  -1  -2   22.45    1.03
  -6   1   2   23.29    0.91
  -6   1   2   22.78    0.90
  -6   1   2   22.98    0.95
  -5   1   2    2.96    0.29
  -5   1   2    2.96    0.29
  -5   1   2    3.09    0.29
  -4   1   2   76.03    1.64
  -4   1   2   74.90    1.83
  -4   1   2   71.76    1.87
  -4   1   2   74.81    1.84
  -3   1   2    1.28    0.12
  -3   1   2    1.70    0.18
  -3   1   2    1.38    0.17
  -3   1   2    1.21    0.16
  -2   1   2  185.26    3.79
  -2   1   2  179.74    3.82
  -2   1   2  185.48    3.69
  -2   1   2  185.16    3.76
  -1   1   2    0.46    0.07
  -1   1   2    0.53    0.07
  -1   1   2    0.43    0.07
  -2  -1  -2  422.64    8.22
   2   1   2  388.74    8.48
  -3  -1  -2    1.19    0.12
  -3  -1  -2    1.10    0.11
   3   1   2    1.31    0.14
  -4  -1  -2  269.67    5.32
  -4  -1  -2  260.26    5.28
  -4  -1  -2  264.43    5.32
   4   1   2  245.22    5.37
  -5  -1  -2    0.20    0.13
  -5  -1  -2    0.41    0.12
  -5  -1  -2    0.45    0.14
   5   1   2    0.28    0.14
  -6  -1  -2  283.42    5.90
  -6  -1  -2  281.69    5.87
  -6  -1  -2  279.37    5.80
   6   1   2  263.29    5.95
  -7  -1  -2    0.12    0.16
  -7  -1  -2    0.18    0.15
  -7  -1  -2    0.39    0.17
   7   1   2    0.10    0.14
  -8  -1  -2    1.28    0.25
  -8  -1  -2    1.16    0.30
  -8  -1  -2    1.08    0.23
   8   1   2    1.43    0.29
  -9  -1  -2    0.58    0.22
  -9  -1  -2    1.19    0.24
  -9  -1  -2    0.78    0.20
   9   1   2    1.19    0.29
   8  -2  -2    3.18    0.43
  -8   2   2    3.16    0.38
  -8   2   2    3.05    0.35
  -8   2   2    3.22    0.33
  -7   2   2    1.32    0.25
  -7   2   2    1.22    0.21
  -7   2   2    1.24    0.24
  -6   2   2   50.52    1.54
  -6   2   2   51.45    1.62
  -6   2   2   51.38    1.51
  -5   2   2    0.61    0.16
  -5   2   2    0.78    0.14
  -5   2   2    0.71    0.16
  -4   2   2   96.27    2.31
  -4   2   2   99.14    2.10
  -4   2   2   96.61    2.36
  -4   2   2   94.86    2.22
  -3   2   2    7.36    0.34
  -3   2   2    9.19    0.43
  -3   2   2    7.89    0.40
  -3   2   2    8.36    0.32
  -2   2   2  114.02    2.47
  -2   2   2  111.03    2.51
  -2   2   2  114.75    2.37
  -2   2   2  114.23    2.37
   1  -2  -2    1.45    0.12
  -1   2   2    1.50    0.13
  -1   2   2    1.64    0.12
  -1   2   2    1.87    0.15
   0   2   2  154.15    3.04
   0   2   2  147.15    3.04
   0   2   2  150.42    3.18
  -1  -2  -2    1.70    0.14
   1   2   2    2.23    0.13
   1   2   2    2.22    0.13
  -2  -2  -2  221.00    4.35
  -2  -2  -2  221.94    4.37
   2   2   2  212.78    4.38
  -3  -2  -2    0.05    0.08
  -3  -2  -2    0.07    0.07
   3   2   2    0.17    0.08
  -4  -2  -2   42.53    1.07
  -4  -2  -2   41.54    1.11
   4   2   2   40.02    1.13
  -5  -2  -2    3.08    0.28
  -5  -2  -2    3.24    0.26
  -5  -2  -2    3.56    0.26
   5   2   2    4.32    0.32
  -6  -2  -2    0.34    0.17
  -6  -2  -2    0.17    0.12
  -6  -2  -2    0.32    0.13
   6   2   2    0.07    0.12
  -7  -2  -2   -0.02    0.14
  -7  -2  -2    0.17    0.14
  -7  -2  -2   -0.21    0.08
   7   2   2    0.07    0.10
  -8  -2  -2   21.00    0.95
  -8  -2  -2   20.07    0.93
  -8  -2  -2   21.27    0.88
   8   2   2   19.59    0.96
  -9  -2  -2    1.85    0.27
  -9  -2  -2    1.85    0.27
  -9  -2  -2    1.90    0.29
   9   2   2    2.29    0.32
  -8   3   2   21.21    0.93
  -8   3   2   20.37    0.97
  -8   3   2   20.85    1.05
  -7   3   2    0.02    0.10
  -7   3   2    0.21    0.14
  -7   3   2    0.19    0.10
  -6   3   2  103.61    2.76
  -6   3   2  106.12    2.71
  -6   3   2  108.73    2.60
  -5   3   2    0.08    0.09
  -5   3   2   -0.01    0.10
  -5   3   2    0.00    0.06
  -4   3   2    5.86    0.38
  -4   3   2    5.96    0.40
  -4   3   2    5.91    0.29
  -4   3   2    5.73    0.31
  -3   3   2    1.76    0.20
  -3   3   2    1.51    0.14
  -3   3   2    1.40    0.17
  -3   3   2    1.25    0.13
  -2   3   2  338.47    6.72
  -2   3   2  337.81    6.55
  -2   3   2  326.82    6.58
  -2   3   2  324.59    6.76
   1  -3  -2    8.29    0.32
  -1   3   2    8.11    0.30
  -1   3   2    7.63    0.34
   0  -3  -2  597.05   12.27
   0   3   2  607.83   12.37
   0   3   2  615.02   12.45
  -1  -3  -2    0.86    0.11
  -1  -3  -2    1.10    0.10
   1   3   2    1.05    0.13
   1   3   2    0.97    0.09
  -2  -3  -2  436.23    8.43
  -2  -3  -2  413.43    8.34
   2   3   2  404.67    8.79
   2   3   2  441.73    8.72
  -3  -3  -2    0.07    0.08
  -3  -3  -2    0.14    0.10
   3   3   2    0.12    0.09
  -4  -3  -2    3.39    0.22
  -4  -3  -2    3.27    0.26
   4   3   2    3.19    0.25
  -5  -3  -2    0.40    0.12
  -5  -3  -2    0.30    0.15
   5   3   2    0.55    0.14
  -6  -3  -2   12.04    0.57
  -6  -3  -2   12.24    0.62
   6   3   2   12.04    0.62
  -7  -3  -2    1.50    0.22
  -7  -3  -2    2.09    0.31
   7   3   2    2.31    0.30
  -8  -3  -2    3.40    0.37
  -8  -3  -2    3.68    0.40
   8   3   2    4.40    0.43
  -9  -3  -2    0.76    0.18
  -9  -3  -2    0.33    0.17
   9   3   2    0.94    0.18
  -7   4   2    2.30    0.33
  -7   4   2    2.19    0.29
  -7   4   2    2.02    0.21
  -6   4   2   13.16    0.60
  -6   4   2   12.83    0.70
  -6   4   2   12.86    0.74
  -5   4   2    0.32    0.09
  -5   4   2    0.28    0.16
  -5   4   2    0.24    0.15
  -4   4   2  146.08    3.12
  -4   4   2  145.04    3.07
  -4   4   2  142.18    3.36
  -4   4   2  141.89    3.30
  -3   4   2    2.42    0.18
  -3   4   2    2.52    0.24
  -3   4   2    3.06    0.27
  -3   4   2    2.29    0.17
   2  -4  -2  121.78    2.64
  -2   4   2  123.18    2.56
  -2   4   2  121.74    2.49
  -2   4   2  121.64    2.70
  -2   4   2  116.38    2.73
   1  -4  -2    0.40    0.11
  -1   4   2    0.25    0.05
  -1   4   2    0.33    0.10
  -1   4   2    0.37    0.09
  -1   4   2    0.39    0.09
   0  -4  -2    2.41    0.18
   0   4   2    2.60    0.19
   0   4   2    2.57    0.16
   0   4   2    2.54    0.13
  -1  -4  -2   -0.02    0.06
  -1  -4  -2   -0.01    0.08
   1   4   2    0.01    0.05
   1   4   2    0.00    0.07
   1   4   2    0.17    0.12
  -2  -4  -2   66.32    1.49
  -2  -4  -2   65.48    1.51
   2   4   2   71.15    1.44
   2   4   2   65.57    1.56
  -3  -4  -2    0.03    0.07
  -3  -4  -2    0.12    0.07
   3   4   2    0.11    0.09
   3   4   2    0.02    0.03
  -4  -4  -2  243.78    4.89
  -4  -4  -2  236.56    5.00
   4   4   2  233.44    5.00
  -5  -4  -2    1.77    0.20
  -5  -4  -2    2.03    0.24
   5   4   2    2.00    0.25
  -6  -4  -2   20.61    0.79
  -6  -4  -2   20.72    0.85
   6   4   2   21.30    0.86
  -7  -4  -2    0.67    0.16
  -7  -4  -2    0.90    0.21
   7   4   2    0.90    0.22
  -8  -4  -2   25.05    1.06
  -8  -4  -2   24.03    1.02
   8   4   2   24.67    1.07
  -7   5   2    0.24    0.16
  -7   5   2    0.48    0.19
  -6   5   2   10.25    0.66
  -6   5   2   11.33    0.67
  -5   5   2    2.05    0.27
  -5   5   2    1.85    0.26
  -4   5   2   20.09    0.82
  -4   5   2   20.51    0.86
   3  -5  -2    0.54    0.13
  -3   5   2    0.40    0.15
  -3   5   2    0.33    0.06
  -3   5   2    0.32    0.11
  -3   5   2    0.64    0.14
   2  -5  -2   56.47    1.41
  -2   5   2   57.56    1.26
  -2   5   2   55.12    1.48
  -2   5   2   55.54    1.51
  -2   5   2   55.56    1.32
   1  -5  -2    2.10    0.18
  -1   5   2    2.13    0.21
  -1   5   2    1.86    0.15
  -1   5   2    2.29    0.20
  -1   5   2    1.47    0.10
   0  -5  -2  103.53    2.26
   0   5   2  102.92    2.19
   0   5   2  104.86    2.18
   0   5   2  102.93    2.33
  -1  -5  -2    0.47    0.10
   1   5   2    0.62    0.15
   1   5   2    0.64    0.10
   1   5   2    0.48    0.06
  -2  -5  -2    7.82    0.32
  -2  -5  -2    7.61    0.33
   2   5   2    8.65    0.44
   2   5   2    7.74    0.39
   2   5   2    7.79    0.26
  -3  -5  -2    1.32    0.14
  -3  -5  -2    1.34    0.17
   3   5   2    1.50    0.18
  -4  -5  -2    0.66    0.16
  -4  -5  -2    0.81    0.14
   4   5   2    0.89    0.17
  -5  -5  -2   -0.04    0.13
  -5  -5  -2    0.10    0.08
   5   5   2    0.10    0.12
  -6  -5  -2    7.03    0.42
  -6  -5  -2    7.13    0.50
   6   5   2    7.24    0.48
  -7  -5  -2    2.83    0.35
  -7  -5  -2    2.68    0.27
   7   5   2    2.84    0.35
  -8  -5  -2    1.56    0.25
  -8  -5  -2    1.55    0.22
   8   5   2    1.97    0.26
  -6   6   2    2.72    0.35
  -6   6   2    3.02    0.35
   5  -6  -2    0.47    0.17
  -5   6   2    0.71    0.23
  -5   6   2    0.82    0.25
   4  -6  -2   43.04    1.27
  -4   6   2   41.26    1.36
  -4   6   2   41.71    1.39
   3  -6  -2    0.16    0.11
  -3   6   2    0.46    0.17
  -3   6   2    0.27    0.14
   2  -6  -2    4.16    0.29
  -2   6   2    3.74    0.31
  -2   6   2    4.21    0.25
  -2   6   2    4.25    0.33
   1  -6  -2    0.08    0.09
  -1   6   2    0.03    0.08
  -1   6   2    0.01    0.06
   0  -6  -2   13.80    0.51
   0   6   2   14.00    0.44
   0   6   2   13.33    0.55
  -1  -6  -2    0.20    0.09
   1   6   2    0.14    0.06
   1   6   2    0.08    0.05
   1   6   2    0.06    0.09
  -2  -6  -2   46.19    1.16
  -2  -6  -2   44.26    1.17
   2   6   2   47.19    1.29
   2   6   2   47.39    1.34
  -3  -6  -2    0.17    0.11
  -3  -6  -2    0.05    0.09
   3   6   2    0.04    0.14
   3   6   2    0.14    0.11
  -4  -6  -2   11.85    0.48
  -4  -6  -2   12.25    0.57
   4   6   2   12.66    0.59
   4   6   2   12.57    0.74
  -5  -6  -2    0.21    0.13
  -5  -6  -2    0.02    0.08
   5   6   2   -0.07    0.11
  -6  -6  -2    0.32    0.12
  -6  -6  -2    0.21    0.15
   6   6   2    0.10    0.13
  -7  -6  -2    0.26    0.12
  -7  -6  -2    0.60    0.10
   7   6   2    0.31    0.13
   6  -7  -2    1.07    0.19
  -6   7   2    0.91    0.28
  -6   7   2    0.73    0.20
   5  -7  -2   -0.02    0.09
  -5   7   2    0.03    0.10
  -5   7   2    0.16    0.12
   4  -7  -2   31.16    1.04
  -4   7   2   29.20    1.14
  -4   7   2   29.51    1.14
   3  -7  -2    1.31    0.21
  -3   7   2    1.22    0.22
  -3   7   2    1.20    0.23
   2  -7  -2    0.12    0.11
  -2   7   2    0.07    0.10
  -2   7   2    0.10    0.13
   1  -7  -2    0.04    0.09
  -1   7   2    0.12    0.10
   0  -7  -2    0.24    0.12
   0   7   2    0.22    0.08
   0   7   2    0.31    0.13
  -1  -7  -2    0.30    0.11
   1   7   2    0.19    0.14
  -2  -7  -2    6.87    0.35
   2   7   2    7.26    0.45
  -3  -7  -2    1.22    0.15
   3   7   2    0.97    0.17
   3   7   2    0.97    0.24
  -4  -7  -2    3.93    0.28
   4   7   2    4.32    0.41
   4   7   2    3.73    0.36
  -5  -7  -2    0.53    0.09
  -5  -7  -2    0.70    0.14
   5   7   2    0.57    0.22
   5   7   2    0.48    0.20
  -6  -7  -2    3.32    0.31
  -6  -7  -2    3.35    0.34
   6   7   2    3.11    0.42
   6   7   2    3.27    0.35
   5  -8  -2    0.44    0.15
  -5   8   2    0.19    0.12
  -5   8   2    0.30    0.16
   4  -8  -2    0.32    0.16
  -4   8   2    0.31    0.14
  -4   8   2    0.12    0.14
   3  -8  -2    0.19    0.12
  -3   8   2    0.24    0.14
  -3   8   2    0.15    0.14
   2  -8  -2    0.16    0.12
  -2   8   2    0.28    0.16
   1  -8  -2    0.31    0.12
  -1   8   2    0.45    0.17
   0  -8  -2   20.80    0.72
   0   8   2   20.16    0.82
  -1  -8  -2    0.05    0.09
   1   8   2    0.28    0.15
  -2  -8  -2   11.00    0.59
   2   8   2   11.10    0.59
   3   8   2   -0.04    0.16
   4   8   2    6.02    0.48
   5   8   2    0.41    0.21
   3  -9  -2    0.02    0.10
  -3   9   2    0.13    0.11
   2  -9  -2   32.18    1.06
  -2   9   2   31.78    1.21
   1  -9  -2    0.01    0.09
  -1   9   2    0.14    0.13
   0  -9  -2    1.60    0.19
   0   9   2    1.69    0.25
   1   9   2    0.25    0.15
   2   9   2    1.06    0.22
   3   9   2    0.38    0.22
   1   8  -3    0.98    0.20
   1   8  -3    0.71    0.16
   0   8  -3    0.08    0.08
  -1   8  -3   27.35    1.00
  -1   8  -3   26.93    1.09
  -2   8  -3    0.08    0.09
  -2   8  -3    0.11    0.10
  -3   8  -3   16.26    0.74
  -3   8  -3   15.79    0.76
  -4   8  -3    0.15    0.09
  -4   8  -3    0.05    0.05
   3   7  -3    3.49    0.35
   3   7  -3    3.76    0.44
   2   7  -3    0.19    0.17
   2   7  -3   -0.05    0.13
   1   7  -3    1.02    0.23
   1   7  -3    0.81    0.19
   0   7  -3    0.54    0.20
   0   7  -3    0.97    0.18
  -1   7  -3    6.13    0.46
  -1   7  -3    6.06    0.39
  -2   7  -3    0.14    0.09
  -2   7  -3    0.02    0.06
  -3   7  -3   32.36    1.11
  -3   7  -3   32.51    1.10
  -4   7  -3    0.01    0.06
  -4   7  -3    0.07    0.08
  -5   7  -3    1.47    0.21
  -5   7  -3    1.53    0.23
  -6   7  -3    0.07    0.06
  -6   7  -3   -0.01    0.07
   4   6  -3    1.83    0.34
   4   6  -3    2.13    0.23
  -4  -6   3    2.27    0.33
   3   6  -3   38.33    1.59
   3   6  -3   38.00    1.22
   2   6  -3    0.33    0.22
   2   6  -3    0.17    0.16
   1   6  -3    1.59    0.25
   1   6  -3    2.39    0.35
   0   6  -3   -0.02    0.13
   0   6  -3   -0.03    0.08
  -1   6  -3    2.94    0.32
  -1   6  -3    3.17    0.26
  -2   6  -3    0.04    0.07
  -2   6  -3   -0.06    0.09
  -3   6  -3   89.38    2.20
  -3   6  -3   86.22    2.19
  -4   6  -3    0.02    0.09
  -4   6  -3    0.41    0.16
  -5   6  -3   54.31    1.54
  -5   6  -3   55.79    1.64
  -6   6  -3    0.44    0.16
  -6   6  -3    0.41    0.15
  -7   6  -3    1.98    0.27
  -7   6  -3    1.94    0.22
   5   5  -3    1.25    0.17
   5   5  -3    1.12    0.39
  -5  -5   3    1.47    0.37
   4   5  -3    2.43    0.40
   4   5  -3    2.66    0.30
  -4  -5   3    3.06    0.39
   3   5  -3    8.57    0.48
   3   5  -3    8.55    0.69
  -3  -5   3    8.40    0.55
   2   5  -3    1.44    0.21
   2   5  -3    1.43    0.30
   1   5  -3   61.70    1.87
   1   5  -3   60.42    1.55
   0   5  -3    1.42    0.18
   0   5  -3    0.90    0.22
   0  -5   3    1.31    0.20
  -1   5  -3   16.32    0.59
  -1   5  -3   16.94    0.75
   1  -5   3   17.23    0.69
  -2   5  -3    0.13    0.11
  -2   5  -3    0.02    0.06
  -3   5  -3  196.75    4.19
  -3   5  -3  191.15    4.21
  -4   5  -3    0.68    0.15
  -4   5  -3    0.50    0.13
  -5   5  -3   30.43    0.98
  -5   5  -3   30.42    1.04
  -5   5  -3   27.96    1.12
  -6   5  -3   -0.03    0.05
  -6   5  -3    0.05    0.10
  -6   5  -3    0.09    0.09
  -7   5  -3   31.07    1.22
  -7   5  -3   31.98    1.10
  -7   5  -3   32.40    1.20
  -8   5  -3    2.09    0.25
  -8   5  -3    2.94    0.34
  -8   5  -3    2.34    0.30
   6   4  -3    0.53    0.25
   6   4  -3    0.96    0.20
  -6  -4   3    0.48    0.21
   5   4  -3    4.02    0.51
   5   4  -3    3.44    0.35
  -5  -4   3    3.84    0.40
   4   4  -3    0.36    0.26
   4   4  -3    0.45    0.17
  -4  -4   3    0.48    0.22
   3   4  -3   35.05    1.43
   3   4  -3   35.17    1.07
  -3  -4   3   35.27    1.16
  -3  -4   3   33.98    1.22
   2   4  -3    4.03    0.42
   2   4  -3    4.45    0.29
  -2  -4   3    4.30    0.38
  -2  -4   3    4.49    0.37
   1   4  -3   14.35    0.73
   1   4  -3   14.53    0.53
  -1  -4   3   14.94    0.68
   0   4  -3    1.34    0.16
   0   4  -3    1.01    0.24
   0  -4   3    1.13    0.18
  -1   4  -3   31.06    0.87
  -1   4  -3   32.96    1.06
   1  -4   3   32.96    1.01
  -2   4  -3   -0.04    0.08
  -3   4  -3    5.35    0.31
  -3   4  -3    5.85    0.35
  -4   4  -3    0.14    0.07
  -4   4  -3    0.20    0.11
  -5   4  -3  128.13    3.01
  -5   4  -3  127.64    2.90
  -5   4  -3  125.97    2.96
  -6   4  -3   -0.10    0.06
  -6   4  -3    0.07    0.11
  -6   4  -3    0.01    0.06
  -7   4  -3    0.12    0.12
  -7   4  -3    0.05    0.12
  -7   4  -3    0.08    0.07
  -8   4  -3    0.04    0.11
  -8   4  -3    0.20    0.07
  -8   4  -3    0.17    0.10
   7   3  -3    1.51    0.21
   6   3  -3    1.68    0.23
   6   3  -3    1.86    0.38
  -6  -3   3    2.00    0.31
   5   3  -3   11.36    0.88
   5   3  -3   11.47    0.62
  -5  -3   3   11.08    0.65
   4   3  -3    6.16    0.41
   4   3  -3    5.69    0.59
  -4  -3   3    5.06    0.42
  -4  -3   3    6.06    0.45
   3   3  -3   11.31    0.73
   3   3  -3   11.35    0.52
  -3  -3   3   11.46    0.61
  -3  -3   3   11.36    0.57
   2   3  -3    0.35    0.20
   2   3  -3    0.62    0.13
  -2  -3   3    0.65    0.18
  -2  -3   3    0.59    0.15
   1   3  -3    1.98    0.27
   1   3  -3    1.87    0.16
  -1  -3   3    2.06    0.22
  -1  -3   3    1.78    0.21
   0   3  -3    0.89    0.20
   0   3  -3    1.11    0.14
   0  -3   3    1.28    0.17
  -1   3  -3  352.96    7.15
  -1   3  -3  362.02    7.32
   1  -3   3  353.49    7.27
  -2   3  -3    0.70    0.10
  -2   3  -3    0.58    0.16
  -3   3  -3  139.13    3.06
  -3   3  -3  140.83    3.31
  -3   3  -3  140.84    3.02
  -4   3  -3    4.00    0.27
  -4   3  -3    3.38    0.26
  -5   3  -3   31.04    0.99
  -5   3  -3   31.72    1.04
  -5   3  -3   31.75    0.97
  -6   3  -3    0.64    0.17
  -6   3  -3    0.50    0.17
  -6   3  -3    0.58    0.15
  -7   3  -3   32.03    1.13
  -7   3  -3   32.50    1.09
  -7   3  -3   31.83    1.20
  -8   3  -3    0.35    0.15
  -8   3  -3    0.60    0.21
  -8   3  -3    0.76    0.20
  -9   3  -3    3.71    0.37
  -9   3  -3    3.66    0.37
  -9   3  -3    3.01    0.38
   7   2  -3    0.41    0.15
  -7  -2   3    0.44    0.18
   6   2  -3    0.17    0.15
  -6  -2   3    0.14    0.14
   5   2  -3    0.25    0.14
  -5  -2   3    0.08    0.10
  -5  -2   3    0.12    0.06
  -5  -2   3    0.27    0.17
   4   2  -3    1.00    0.18
  -4  -2   3    0.78    0.20
  -4  -2   3    0.79    0.11
  -4  -2   3    0.51    0.14
   3   2  -3   11.34    0.71
   3   2  -3   10.25    0.49
  -3  -2   3   11.52    0.58
  -3  -2   3   11.25    0.53
  -3  -2   3   10.92    0.43
   2   2  -3    6.87    0.50
  -2  -2   3    7.23    0.44
  -2  -2   3    8.29    0.42
  -2  -2   3    7.41    0.24
   1   2  -3   35.78    1.16
   1   2  -3   35.01    0.90
  -1  -2   3   37.24    1.10
  -1  -2   3   34.96    0.98
   0   2  -3    2.15    0.27
   0   2  -3    2.76    0.17
   0  -2   3    2.80    0.25
  -1   2  -3  343.85    6.96
  -1   2  -3  340.83    7.00
  -2   2  -3   -0.01    0.05
  -2   2  -3   -0.12    0.09
  -3   2  -3   90.81    2.01
  -3   2  -3   92.58    2.06
  -3   2  -3   91.62    2.04
  -4   2  -3    0.47    0.10
  -4   2  -3    0.28    0.11
  -4   2  -3    0.49    0.09
  -5   2  -3    0.88    0.15
  -5   2  -3    0.60    0.12
  -5   2  -3    0.61    0.13
  -6   2  -3    5.48    0.39
  -6   2  -3    3.83    0.31
  -6   2  -3    4.46    0.34
  -7   2  -3   70.07    1.87
  -7   2  -3   69.36    1.89
  -7   2  -3   69.55    1.99
  -8   2  -3    0.84    0.21
  -8   2  -3    0.29    0.15
  -8   2  -3    0.67    0.21
  -9   2  -3   27.40    1.11
  -9   2  -3   28.16    1.23
  -9   2  -3   28.25    1.12
   9  -2   3   27.28    1.27
   7   1  -3    8.19    0.64
  -7  -1   3    7.89    0.54
  -7  -1   3    7.86    0.56
  -7  -1   3    8.43    0.53
   6   1  -3    0.53    0.24
  -6  -1   3    0.50    0.13
  -6  -1   3    0.33    0.15
  -6  -1   3    0.22    0.15
   5   1  -3   29.89    1.12
  -5  -1   3   29.97    1.07
  -5  -1   3   29.59    1.03
  -5  -1   3   29.67    1.05
  -5  -1   3   29.54    0.97
   4   1  -3    0.21    0.13
  -4  -1   3    0.23    0.12
  -4  -1   3    0.26    0.05
  -4  -1   3    0.24    0.11
  -4  -1   3    0.17    0.13
   3   1  -3   33.18    1.03
  -3  -1   3   34.10    0.95
  -3  -1   3   35.35    1.10
  -3  -1   3   33.33    0.93
  -3  -1   3   33.53    1.02
  -3  -1   3   33.35    0.79
   2   1  -3    0.88    0.22
   2   1  -3    1.07    0.15
  -2  -1   3    0.93    0.16
  -2  -1   3    0.95    0.10
  -2  -1   3    0.60    0.19
  -2  -1   3    1.03    0.12
  -2  -1   3    0.77    0.08
   1   1  -3   67.52    1.53
   1   1  -3   68.35    1.78
  -1  -1   3   71.14    1.47
  -1  -1   3   72.36    1.76
  -1  -1   3   66.00    1.58
   0   1  -3    2.25    0.22
  -1   1  -3   19.76    0.63
  -2   1  -3    0.13    0.08
  -3   1  -3  172.33    3.55
  -3   1  -3  171.04    3.50
  -3   1  -3  170.31    3.54
  -4   1  -3    2.13    0.20
  -4   1  -3    3.38    0.23
  -4   1  -3    2.83    0.20
  -5   1  -3   58.05    1.53
  -5   1  -3   58.26    1.47
  -5   1  -3   57.45    1.45
  -6   1  -3    1.60    0.21
  -6   1  -3    2.01    0.24
  -6   1  -3    1.69    0.21
  -7   1  -3   52.81    1.49
  -7   1  -3   51.28    1.58
  -7   1  -3   49.64    1.47
  -8   1  -3    0.93    0.22
  -8   1  -3    0.80    0.25
  -8   1  -3    0.97    0.23
   8  -1   3    0.91    0.20
  -9   1  -3    7.86    0.55
  -9   1  -3    7.78    0.54
  -9   1  -3    6.21    0.55
   9  -1   3    7.89    0.62
   7   0  -3    4.49    0.49
  -7   0   3    4.58    0.43
  -7   0   3    4.49    0.40
  -7   0   3    4.14    0.38
   6   0  -3    0.92    0.29
  -6   0   3    0.64    0.17
  -6   0   3    0.49    0.22
  -6   0   3    0.48    0.12
   5   0  -3    2.33    0.31
  -5   0   3    2.43    0.24
  -5   0   3    1.82    0.26
  -5   0   3    2.24    0.25
   4   0  -3    0.72    0.17
  -4   0   3    0.79    0.12
  -4   0   3    0.56    0.12
  -4   0   3    0.65    0.16
  -4   0   3    0.85    0.09
   3   0  -3   41.55    1.21
  -3   0   3   40.57    1.24
  -3   0   3   42.57    1.22
  -3   0   3   40.52    1.13
  -3   0   3   41.68    1.10
  -3   0   3   41.42    0.97
   2   0  -3   -0.06    0.05
  -2   0   3    0.04    0.09
  -2   0   3   -0.01    0.06
  -2   0   3    0.04    0.06
  -2   0   3   -0.04    0.05
   1   0  -3   25.29    0.81
   1   0  -3   25.36    0.68
  -1   0   3   24.58    0.63
  -1   0   3   25.15    0.68
  -1   0   3   24.50    0.62
   0   0  -3   -0.08    0.09
  -1   0  -3    1.95    0.15
  -2   0  -3    0.13    0.06
  -3   0  -3   58.56    1.33
  -3   0  -3   59.63    1.34
  -3   0  -3   57.26    1.29
  -4   0  -3    0.17    0.10
  -4   0  -3    0.28    0.10
  -4   0  -3    0.26    0.10
  -5   0  -3   48.83    1.31
  -5   0  -3   49.55    1.27
  -5   0  -3   48.01    1.25
   5   0   3   47.61    1.36
  -6   0  -3    5.85    0.40
  -6   0  -3    5.44    0.34
  -6   0  -3    4.39    0.34
  -7   0  -3    3.61    0.36
  -7   0  -3    3.84    0.33
  -7   0  -3    3.47    0.34
   7   0   3    3.63    0.35
  -8   0  -3    1.19    0.24
  -8   0  -3    0.95    0.26
  -8   0  -3    0.99    0.23
   8   0   3    1.19    0.24
  -9   0  -3   28.98    1.24
  -9   0  -3   30.05    1.18
  -9   0  -3   30.46    1.14
   9   0   3   28.74    1.26
   7  -1  -3   47.43    1.76
  -7   1   3   48.38    1.65
  -7   1   3   50.38    1.61
  -7   1   3   49.75    1.57
   6  -1  -3    0.04    0.17
  -6   1   3    0.14    0.13
  -6   1   3    0.27    0.12
  -6   1   3    0.07    0.12
  -5   1   3    4.11    0.23
  -5   1   3    3.77    0.32
  -5   1   3    3.71    0.33
  -5   1   3    3.94    0.32
  -4   1   3    1.11    0.16
  -4   1   3    0.92    0.18
  -4   1   3    0.88    0.11
  -4   1   3    0.95    0.16
  -4   1   3    0.95    0.15
  -3   1   3    1.84    0.18
  -3   1   3    1.83    0.14
  -3   1   3    1.77    0.18
  -3   1   3    1.89    0.18
  -2   1   3    0.56    0.11
  -2   1   3    0.54    0.11
  -2   1   3    0.63    0.11
  -2   1   3    0.48    0.12
   1  -1  -3  140.07    3.01
   1  -1  -3  143.18    2.86
  -1   1   3  139.78    2.88
  -1   1   3  137.36    2.86
  -1   1   3  138.81    2.87
  -1   1   3  139.09    2.92
   0   1   3    0.07    0.08
  -1  -1  -3  136.75    2.75
  -2  -1  -3    0.25    0.06
  -3  -1  -3  105.51    2.22
  -3  -1  -3  109.55    2.27
  -3  -1  -3  110.39    2.27
   3   1   3  103.25    2.28
  -4  -1  -3   -0.01    0.06
  -4  -1  -3    0.01    0.08
  -4  -1  -3    0.07    0.07
   4   1   3    0.06    0.07
  -5  -1  -3    0.16    0.10
  -5  -1  -3    0.27    0.10
  -5  -1  -3    0.30    0.14
   5   1   3    0.43    0.13
  -6  -1  -3    2.22    0.25
  -6  -1  -3    1.84    0.24
  -6  -1  -3    2.51    0.24
   6   1   3    2.85    0.29
  -7  -1  -3   28.80    0.98
  -7  -1  -3   29.80    1.08
  -7  -1  -3   29.04    1.04
   7   1   3   28.96    1.10
  -8  -1  -3    1.40    0.28
  -8  -1  -3    1.44    0.27
  -8  -1  -3    1.78    0.27
   8   1   3    2.64    0.32
  -9  -1  -3    1.63    0.29
  -9  -1  -3    1.35    0.26
  -9  -1  -3    1.25    0.25
   9   1   3    1.49    0.28
  -7   2   3    4.47    0.38
  -7   2   3    3.84    0.38
  -7   2   3    3.71    0.40
  -6   2   3    2.88    0.28
  -6   2   3    3.47    0.35
  -6   2   3    2.80    0.31
  -5   2   3    3.01    0.27
  -5   2   3    2.98    0.29
  -5   2   3    2.87    0.21
  -5   2   3    2.74    0.29
  -4   2   3   -0.01    0.05
  -4   2   3   -0.02    0.06
  -4   2   3    0.03    0.06
  -4   2   3    0.02    0.05
  -3   2   3   23.84    0.77
  -3   2   3   23.14    0.81
  -3   2   3   23.06    0.66
  -3   2   3   23.08    0.71
  -2   2   3    0.97    0.14
  -2   2   3    0.65    0.11
  -2   2   3    0.57    0.09
  -2   2   3    0.69    0.12
   1  -2  -3  144.57    2.96
  -1   2   3  144.32    2.98
  -1   2   3  142.33    2.89
  -1   2   3  140.71    3.04
  -1   2   3  144.80    2.97
   0  -2  -3    0.02    0.05
   0   2   3   -0.01    0.05
   0   2   3   -0.01    0.05
   0   2   3   -0.03    0.04
  -1  -2  -3    0.06    0.05
   1   2   3    0.07    0.06
   1   2   3    0.04    0.05
  -2  -2  -3    1.65    0.12
  -2  -2  -3    1.21    0.10
   2   2   3    1.73    0.12
  -3  -2  -3  181.39    3.64
  -3  -2  -3  177.46    3.61
   3   2   3  172.59    3.64
  -4  -2  -3    0.31    0.12
  -4  -2  -3    0.41    0.11
   4   2   3    0.53    0.12
  -5  -2  -3   -0.05    0.07
  -5  -2  -3    0.00    0.08
  -5  -2  -3    0.43    0.14
   5   2   3    0.15    0.08
  -6  -2  -3    0.55    0.15
  -6  -2  -3    0.45    0.16
  -6  -2  -3    0.45    0.15
   6   2   3    0.57    0.16
  -7  -2  -3   41.69    1.24
  -7  -2  -3   40.29    1.30
  -7  -2  -3   41.54    1.32
   7   2   3   39.77    1.35
  -8  -2  -3    2.19    0.33
  -8  -2  -3    1.95    0.28
  -8  -2  -3    1.65    0.27
   8   2   3    2.39    0.33
  -9  -2  -3   49.75    1.57
  -9  -2  -3   48.18    1.68
  -9  -2  -3   50.21    1.67
   9   2   3   49.68    1.74
  -7   3   3    0.17    0.12
  -7   3   3   -0.04    0.06
  -7   3   3    0.06    0.08
  -6   3   3    2.72    0.32
  -6   3   3    2.44    0.24
  -6   3   3    2.92    0.33
  -5   3   3    4.95    0.41
  -5   3   3    5.34    0.30
  -5   3   3    5.56    0.35
  -5   3   3    5.55    0.41
  -4   3   3    2.86    0.28
  -4   3   3    2.33    0.19
  -4   3   3    2.54    0.26
  -4   3   3    2.16    0.19
  -3   3   3   53.56    1.27
  -3   3   3   51.90    1.45
  -3   3   3   52.32    1.28
  -3   3   3   52.74    1.41
   2  -3  -3    1.24    0.15
  -2   3   3    1.28    0.14
  -2   3   3    1.16    0.15
  -2   3   3    1.60    0.17
  -2   3   3    1.25    0.11
   1  -3  -3   81.50    1.82
  -1   3   3   82.29    1.80
  -1   3   3   80.22    1.90
  -1   3   3   82.53    1.84
   0  -3  -3    0.73    0.12
   0   3   3    0.70    0.11
   0   3   3    0.56    0.11
  -1  -3  -3   46.17    1.07
   1   3   3   45.70    1.08
   1   3   3   46.27    1.07
  -2  -3  -3    0.25    0.11
  -2  -3  -3   -0.06    0.06
   2   3   3   -0.17    0.06
   2   3   3   -0.02    0.09
  -3  -3  -3    3.96    0.22
  -3  -3  -3    3.74    0.23
   3   3   3    3.81    0.24
  -4  -3  -3    1.16    0.16
  -4  -3  -3    1.42    0.15
   4   3   3    1.90    0.19
  -5  -3  -3    0.23    0.12
  -5  -3  -3    0.06    0.08
   5   3   3    0.12    0.08
  -6  -3  -3    0.05    0.13
  -6  -3  -3    0.20    0.12
   6   3   3    0.13    0.09
  -7  -3  -3    7.36    0.47
  -7  -3  -3    7.69    0.52
   7   3   3    7.39    0.50
  -8  -3  -3    0.96    0.21
  -8  -3  -3    1.14    0.27
   8   3   3    0.57    0.22
  -9  -3  -3   40.09    1.46
  -9  -3  -3   38.26    1.45
   9   3   3   39.17    1.47
  -7   4   3   -0.04    0.08
  -7   4   3    0.07    0.11
  -6   4   3    1.44    0.28
  -6   4   3    1.13    0.23
  -5   4   3    7.57    0.41
  -5   4   3    7.66    0.52
  -5   4   3    7.48    0.50
  -4   4   3    2.62    0.28
  -4   4   3    3.47    0.32
  -4   4   3    2.84    0.21
  -4   4   3    2.75    0.22
   3  -4  -3   76.26    1.81
  -3   4   3   71.85    1.92
  -3   4   3   71.85    1.86
  -3   4   3   74.12    1.68
  -3   4   3   74.38    1.71
   2  -4  -3    0.01    0.07
  -2   4   3    0.09    0.07
  -2   4   3    0.01    0.05
  -2   4   3    0.04    0.03
  -2   4   3   -0.05    0.06
   1  -4  -3    6.22    0.31
  -1   4   3    6.21    0.32
  -1   4   3    6.40    0.29
  -1   4   3    6.02    0.34
   0  -4  -3    0.06    0.08
   0   4   3    0.07    0.07
   0   4   3    0.05    0.06
  -1  -4  -3    8.96    0.35
   1   4   3    8.71    0.36
   1   4   3    9.09    0.34
  -2  -4  -3    0.16    0.09
  -2  -4  -3    0.03    0.05
   2   4   3    0.12    0.06
   2   4   3    0.03    0.09
  -3  -4  -3  108.68    2.43
  -3  -4  -3  116.79    2.42
   3   4   3  113.17    2.36
   3   4   3  111.35    2.47
  -4  -4  -3    1.15    0.16
  -4  -4  -3    0.82    0.14
   4   4   3    1.30    0.18
  -5  -4  -3  151.59    3.31
  -5  -4  -3  150.63    3.38
   5   4   3  152.14    3.40
  -6  -4  -3   -0.14    0.12
  -6  -4  -3    0.02    0.09
   6   4   3    0.12    0.11
  -7  -4  -3    7.76    0.53
  -7  -4  -3    7.46    0.48
   7   4   3    8.01    0.52
  -8  -4  -3    1.45    0.24
  -8  -4  -3    1.72    0.27
   8   4   3    1.81    0.26
  -7   5   3    3.17    0.38
  -7   5   3    3.70    0.39
  -6   5   3    0.16    0.13
  -6   5   3    0.28    0.17
  -5   5   3   13.10    0.69
  -5   5   3   11.44    0.68
   4  -5  -3    2.38    0.26
  -4   5   3    1.67    0.19
  -4   5   3    2.28    0.29
  -4   5   3    2.34    0.28
   3  -5  -3    1.45    0.20
  -3   5   3    1.44    0.21
  -3   5   3    1.41    0.20
  -3   5   3    1.42    0.17
   2  -5  -3    1.42    0.18
  -2   5   3    1.55    0.21
  -2   5   3    1.39    0.15
  -2   5   3    1.65    0.19
   1  -5  -3   36.83    1.01
  -1   5   3   37.12    0.96
  -1   5   3   37.65    1.06
  -1   5   3   35.74    1.07
   0  -5  -3    0.06    0.08
   0   5   3    0.08    0.07
   0   5   3    0.13    0.07
  -1  -5  -3    0.89    0.13
   1   5   3    0.85    0.09
   1   5   3    0.78    0.10
   1   5   3    0.85    0.14
  -2  -5  -3    0.06    0.07
  -2  -5  -3   -0.01    0.04
   2   5   3    0.05    0.10
   2   5   3    0.11    0.05
  -3  -5  -3   17.71    0.59
  -3  -5  -3   18.39    0.59
   3   5   3   17.53    0.63
   3   5   3   17.06    0.51
  -4  -5  -3    0.80    0.13
  -4  -5  -3    1.06    0.16
   4   5   3    1.14    0.19
  -5  -5  -3    3.10    0.27
  -5  -5  -3    2.94    0.28
   5   5   3    3.18    0.28
  -6  -5  -3    0.72    0.20
  -6  -5  -3    0.75    0.17
   6   5   3    0.77    0.18
  -7  -5  -3   36.72    1.23
  -7  -5  -3   37.98    1.30
   7   5   3   37.02    1.29
  -8  -5  -3    0.58    0.16
  -8  -5  -3    0.15    0.08
   8   5   3    0.31    0.14
   6  -6  -3    1.16    0.22
  -6   6   3    0.71    0.25
  -6   6   3    0.74    0.20
   5  -6  -3   22.48    0.89
  -5   6   3   22.38    0.97
  -5   6   3   21.97    1.00
   4  -6  -3    0.00    0.09
  -4   6   3    0.07    0.10
  -4   6   3   -0.02    0.09
  -4   6   3    0.18    0.12
   3  -6  -3   16.87    0.68
  -3   6   3   17.08    0.78
  -3   6   3   16.47    0.74
  -3   6   3   16.76    0.60
   2  -6  -3    2.54    0.26
  -2   6   3    3.10    0.30
  -2   6   3    2.27    0.20
  -2   6   3    2.75    0.27
   1  -6  -3   68.84    1.70
  -1   6   3   69.35    1.80
  -1   6   3   69.54    1.62
  -1   6   3   69.17    1.78
   0  -6  -3    1.34    0.17
   0   6   3    1.22    0.13
   0   6   3    1.11    0.17
  -1  -6  -3   58.55    1.43
   1   6   3   59.29    1.36
   1   6   3   57.80    1.50
  -2  -6  -3   -0.10    0.06
   2   6   3   -0.06    0.10
   2   6   3    0.00    0.04
  -3  -6  -3    5.07    0.29
   3   6   3    4.64    0.36
   3   6   3    5.16    0.37
  -4  -6  -3    0.26    0.12
  -4  -6  -3    0.28    0.12
   4   6   3    0.26    0.15
  -5  -6  -3    6.72    0.41
  -5  -6  -3    6.62    0.38
   5   6   3    6.39    0.43
  -6  -6  -3    0.61    0.12
  -6  -6  -3    0.51    0.12
   6   6   3    0.39    0.17
  -7  -6  -3    6.16    0.42
  -7  -6  -3    6.11    0.43
   7   6   3    5.85    0.45
   5  -7  -3    2.89    0.31
  -5   7   3    2.80    0.36
  -5   7   3    2.59    0.33
   4  -7  -3    0.10    0.11
  -4   7   3    0.15    0.13
  -4   7   3    0.07    0.10
   3  -7  -3   51.91    1.47
  -3   7   3   51.37    1.60
  -3   7   3   52.44    1.36
  -3   7   3   51.55    1.61
   2  -7  -3    0.13    0.13
  -2   7   3    0.15    0.12
  -2   7   3    0.16    0.13
  -2   7   3    0.18    0.10
   1  -7  -3    1.01    0.19
  -1   7   3    1.14    0.14
  -1   7   3    1.16    0.19
   0  -7  -3    0.84    0.19
   0   7   3    0.90    0.16
   0   7   3    0.72    0.10
  -1  -7  -3   70.91    1.68
   1   7   3   66.38    1.76
  -2  -7  -3    0.19    0.12
   2   7   3    0.21    0.16
  -3  -7  -3    4.09    0.28
   3   7   3    3.93    0.36
  -4  -7  -3    0.54    0.13
   4   7   3    0.43    0.19
  -5  -7  -3    2.88    0.25
   5   7   3    2.24    0.37
   5   7   3    2.65    0.32
  -6  -7  -3    0.90    0.14
   6   7   3    1.34    0.22
  -7  -7  -3    8.90    0.53
   7   7   3   10.14    0.61
   4  -8  -3    1.28    0.21
  -4   8   3    0.85    0.22
  -4   8   3    0.84    0.20
   3  -8  -3   63.77    1.73
  -3   8   3   59.54    1.83
  -3   8   3   62.06    1.87
   2  -8  -3    0.66    0.17
  -2   8   3    0.46    0.18
   1  -8  -3    7.96    0.45
  -1   8   3    8.01    0.38
  -1   8   3    7.97    0.50
   0  -8  -3   -0.01    0.11
   0   8   3   -0.09    0.07
  -1  -8  -3    0.83    0.17
   1   8   3    0.63    0.17
  -2  -8  -3    0.11    0.08
   2   8   3    0.13    0.14
  -3  -8  -3   80.08    1.94
   3   8   3   78.89    2.11
  -4  -8  -3    0.18    0.09
   4   8   3   -0.02    0.18
  -5  -8  -3    0.75    0.13
   5   8   3    0.50    0.22
   3  -9  -3    6.05    0.43
  -3   9   3    6.14    0.50
   2  -9  -3    0.35    0.14
  -2   9   3    0.16    0.13
   1  -9  -3   27.80    0.96
  -1   9   3   26.90    1.07
   0  -9  -3    0.15    0.12
   0   9   3    0.16    0.13
  -1  -9  -3   23.16    0.81
   1   9   3   23.40    0.94
  -2  -9  -3    0.31    0.12
   2   9   3    0.17    0.14
  -3  -9  -3   15.81    0.64
   3   9   3   15.74    0.77
   4   9   3   -0.20    0.14
  -1   8  -4    0.04    0.10
  -2   8  -4    4.12    0.38
   2   7  -4   10.03    0.75
   1   7  -4   -0.11    0.14
   0   7  -4   20.62    1.01
  -1   7  -4    0.10    0.10
  -2   7  -4   15.85    0.78
  -3   7  -4    0.23    0.13
  -4   7  -4   15.88    0.73
  -5   7  -4   -0.04    0.06
   3   6  -4    1.13    0.26
   3   6  -4    1.38    0.22
   2   6  -4    7.95    0.48
   2   6  -4    8.42    0.69
   1   6  -4    0.06    0.16
   1   6  -4   -0.18    0.11
   0   6  -4   12.82    0.75
   0   6  -4   12.80    0.55
  -1   6  -4    0.08    0.08
  -1   6  -4    0.06    0.16
  -2   6  -4   43.31    1.26
  -2   6  -4   45.66    1.43
  -3   6  -4   -0.04    0.04
  -3   6  -4    0.10    0.11
  -4   6  -4   23.13    0.89
  -4   6  -4   22.72    0.88
  -5   6  -4    0.77    0.16
  -5   6  -4    0.56    0.18
  -6   6  -4   21.09    0.86
  -7   6  -4   -0.01    0.09
   4   5  -4    4.92    0.55
   4   5  -4    4.59    0.35
  -4  -5   4    3.87    0.43
   3   5  -4    0.12    0.09
   3   5  -4    0.31    0.18
  -3  -5   4    0.25    0.22
   2   5  -4   -0.07    0.18
   2   5  -4    0.24    0.13
  -2  -5   4    0.05    0.17
   1   5  -4    1.41    0.31
   1   5  -4    1.20    0.20
  -1  -5   4    1.06    0.22
   0   5  -4   63.67    1.58
   0   5  -4   64.48    1.93
   0  -5   4   64.98    1.85
  -1   5  -4    0.45    0.21
  -1   5  -4    0.43    0.11
   1  -5   4    0.62    0.15
  -2   5  -4   42.32    1.32
  -2   5  -4   40.71    1.14
  -3   5  -4    0.40    0.09
  -3   5  -4    0.16    0.13
  -4   5  -4    0.50    0.18
  -4   5  -4    0.48    0.13
  -5   5  -4    0.03    0.10
  -5   5  -4    0.05    0.06
  -6   5  -4   18.60    0.77
  -6   5  -4   19.03    0.81
  -7   5  -4    0.32    0.13
  -7   5  -4    0.14    0.07
   5   4  -4    0.06    0.16
   5   4  -4    0.44    0.12
  -5  -4   4    0.05    0.15
   4   4  -4    7.06    0.45
   4   4  -4    8.48    0.73
  -4  -4   4    7.94    0.55
  -4  -4   4    6.85    0.54
   3   4  -4    0.01    0.17
   3   4  -4   -0.01    0.05
  -3  -4   4   -0.05    0.14
  -3  -4   4   -0.05    0.13
   2   4  -4    2.69    0.39
   2   4  -4    2.78    0.24
  -2  -4   4    2.64    0.33
  -2  -4   4    3.08    0.36
   1   4  -4    0.27    0.11
   1   4  -4    0.06    0.17
  -1  -4   4    0.23    0.15
   0   4  -4   18.52    0.61
   0   4  -4   18.23    0.83
   0  -4   4   19.56    0.82
  -1   4  -4    0.50    0.09
  -1   4  -4    0.51    0.20
   1  -4   4    0.53    0.14
  -2   4  -4   79.32    1.81
  -2   4  -4   79.92    2.02
   2  -4   4   75.40    2.08
  -3   4  -4    0.32    0.08
  -3   4  -4    0.26    0.13
  -4   4  -4    1.04    0.14
  -4   4  -4    1.09    0.19
  -5   4  -4    1.33    0.21
  -5   4  -4    1.64    0.20
  -6   4  -4   15.20    0.69
  -6   4  -4   16.38    0.70
  -6   4  -4   15.49    0.72
  -7   4  -4    0.01    0.06
  -7   4  -4    0.07    0.08
  -7   4  -4   -0.04    0.09
  -8   4  -4   41.36    1.50
  -8   4  -4   40.73    1.36
  -8   4  -4   40.26    1.39
   6   3  -4   27.23    1.10
   6   3  -4   28.06    1.51
  -6  -3   4   28.71    1.16
   5   3  -4    2.93    0.31
   5   3  -4    2.16    0.38
  -5  -3   4    1.95    0.29
  -5  -3   4    2.59    0.33
   4   3  -4   73.39    2.42
   4   3  -4   72.19    1.93
  -4  -3   4   69.73    2.09
  -4  -3   4   73.54    2.02
   3   3  -4    0.94    0.34
   3   3  -4    1.37    0.20
  -3  -3   4    1.00    0.22
  -3  -3   4    1.52    0.26
   2   3  -4    7.08    0.37
   2   3  -4    6.88    0.55
  -2  -3   4    7.13    0.49
  -2  -3   4    7.05    0.45
   1   3  -4    0.31    0.08
   1   3  -4    0.12    0.15
  -1  -3   4    0.03    0.11
   0   3  -4   30.22    0.80
   0   3  -4   30.88    1.09
   0  -3   4   31.04    1.06
  -1   3  -4    0.33    0.07
  -1   3  -4    0.37    0.17
   1  -3   4    0.24    0.06
  -2   3  -4   11.50    0.41
  -2   3  -4   12.42    0.55
   2  -3   4   10.98    0.51
  -3   3  -4    0.58    0.15
  -3   3  -4    0.84    0.12
  -4   3  -4  346.16    7.04
  -4   3  -4  348.12    7.08
  -4   3  -4  346.76    7.10
  -5   3  -4   -0.02    0.09
  -5   3  -4    0.01    0.06
  -5   3  -4    0.07    0.05
  -6   3  -4   21.31    0.81
  -6   3  -4   21.94    0.81
  -6   3  -4   22.63    0.89
  -7   3  -4    1.89    0.25
  -7   3  -4    2.92    0.32
  -7   3  -4    2.61    0.28
  -8   3  -4   -0.05    0.07
  -8   3  -4    0.07    0.09
  -8   3  -4    0.06    0.12
  -9   3  -4   -0.04    0.09
  -9   3  -4    0.02    0.09
  -9   3  -4    0.07    0.07
   6   2  -4   29.44    1.17
   6   2  -4   29.44    1.52
  -6  -2   4   29.70    1.18
   5   2  -4    0.25    0.26
   5   2  -4    0.24    0.13
  -5  -2   4    0.19    0.18
  -5  -2   4    0.10    0.13
   4   2  -4    3.17    0.48
   4   2  -4    3.32    0.31
  -4  -2   4    3.32    0.34
  -4  -2   4    3.74    0.35
   3   2  -4    1.82    0.20
   3   2  -4    1.40    0.31
  -3  -2   4    1.32    0.24
  -3  -2   4    1.37    0.23
   2   2  -4   67.81    1.66
   2   2  -4   67.13    2.01
  -2  -2   4   70.57    1.50
  -2  -2   4   70.38    1.92
  -2  -2   4   68.87    1.75
   1   2  -4    2.64    0.32
   1   2  -4    3.22    0.20
  -1  -2   4    2.50    0.16
  -1  -2   4    2.95    0.25
  -1  -2   4    2.98    0.28
   0   2  -4   81.56    2.05
   0   2  -4   76.32    1.69
   0  -2   4   81.90    2.06
  -1   2  -4    0.84    0.21
  -1   2  -4    0.97    0.09
   1  -2   4    1.05    0.16
  -2   2  -4  127.33    2.86
  -2   2  -4  129.51    2.64
  -3   2  -4    0.68    0.15
  -3   2  -4    0.94    0.10
  -4   2  -4   16.35    0.60
  -4   2  -4   17.15    0.61
  -4   2  -4   16.19    0.56
  -5   2  -4    0.57    0.15
  -5   2  -4    1.10    0.14
  -5   2  -4    1.01    0.14
  -6   2  -4  228.12    4.92
  -6   2  -4  232.53    4.93
  -6   2  -4  232.01    5.04
  -7   2  -4    0.25    0.14
  -7   2  -4    0.49    0.12
  -7   2  -4    0.41    0.18
  -8   2  -4    0.59    0.13
  -8   2  -4    0.74    0.22
  -8   2  -4    0.80    0.23
  -9   2  -4    1.29    0.18
  -9   2  -4    1.17    0.21
  -9   2  -4    1.48    0.25
   9  -2   4    1.68    0.27
   7   1  -4    0.93    0.18
  -7  -1   4    0.91    0.19
  -7  -1   4    0.88    0.20
   6   1  -4    9.57    0.64
  -6  -1   4   10.40    0.62
  -6  -1   4   10.67    0.57
  -6  -1   4   10.40    0.64
   5   1  -4   -0.01    0.10
  -5  -1   4   -0.06    0.08
  -5  -1   4   -0.04    0.08
  -5  -1   4    0.15    0.17
   4   1  -4   12.05    0.81
   4   1  -4   13.16    0.65
  -4  -1   4   13.13    0.68
  -4  -1   4   12.74    0.54
  -4  -1   4   13.26    0.56
  -4  -1   4   12.90    0.63
   3   1  -4    1.56    0.29
   3   1  -4    2.40    0.24
  -3  -1   4    1.82    0.22
  -3  -1   4    2.09    0.24
  -3  -1   4    2.05    0.18
  -3  -1   4    1.77    0.12
   2   1  -4   38.44    1.30
   2   1  -4   35.59    1.02
  -2  -1   4   37.50    0.90
  -2  -1   4   38.35    1.23
  -2  -1   4   36.30    1.06
  -2  -1   4   38.43    0.97
   1   1  -4    2.75    0.18
   1   1  -4    2.06    0.27
  -1  -1   4    2.33    0.22
  -1  -1   4    1.95    0.15
  -1  -1   4    1.97    0.24
   0   1  -4   79.80    1.71
   0   1  -4   82.28    2.02
   0  -1   4   84.21    2.08
  -1   1  -4    0.72    0.19
   1  -1   4    0.83    0.16
  -2   1  -4    2.63    0.23
  -3   1  -4    0.00    0.08
  -3   1  -4    0.03    0.04
  -3   1  -4    0.03    0.04
  -4   1  -4  185.03    3.90
  -4   1  -4  180.66    3.81
  -4   1  -4  189.88    3.90
  -5   1  -4    0.95    0.12
  -5   1  -4    0.98    0.14
  -5   1  -4    0.64    0.14
  -6   1  -4   20.11    0.72
  -6   1  -4   19.88    0.73
  -6   1  -4   19.70    0.78
  -7   1  -4    2.92    0.31
  -7   1  -4    3.51    0.34
  -7   1  -4    3.15    0.28
  -8   1  -4   16.01    0.71
  -8   1  -4   14.57    0.78
  -8   1  -4   15.36    0.73
   8  -1   4   15.25    0.81
  -9   1  -4    0.19    0.17
  -9   1  -4    0.09    0.09
  -9   1  -4    0.04    0.12
   9  -1   4    0.13    0.11
   7   0  -4    0.63    0.17
  -7   0   4    0.39    0.16
  -7   0   4    0.43    0.16
  -7   0   4    0.23    0.08
   6   0  -4    0.55    0.23
  -6   0   4    0.85    0.23
  -6   0   4    0.85    0.24
  -6   0   4    0.78    0.22
   5   0  -4    0.02    0.11
  -5   0   4    0.08    0.10
  -5   0   4    0.02    0.10
  -5   0   4   -0.06    0.04
   4   0  -4    7.12    0.46
  -4   0   4    7.42    0.44
  -4   0   4    7.61    0.47
  -4   0   4    7.11    0.30
  -4   0   4    7.04    0.40
   3   0  -4    0.02    0.07
  -3   0   4    0.01    0.03
  -3   0   4    0.02    0.06
  -3   0   4    0.05    0.05
  -3   0   4    0.03    0.08
   2   0  -4   17.38    0.63
   2   0  -4   17.93    0.79
  -2   0   4   18.35    0.54
  -2   0   4   17.87    0.57
  -2   0   4   18.14    0.62
  -2   0   4   18.93    0.75
  -2   0   4   18.04    0.59
   1   0  -4    2.18    0.13
   1   0  -4    2.17    0.26
   1   0  -4    2.82    0.19
  -1   0   4    2.16    0.16
  -1   0   4    2.65    0.16
  -1   0   4    2.42    0.16
  -1   0   4    2.12    0.19
  -1   0   4    1.72    0.22
   0   0  -4  219.13    4.75
   0   0   4  236.97    4.89
  -1   0  -4    3.84    0.27
  -2   0  -4  408.79    8.65
  -3   0  -4   -0.16    0.09
  -3   0  -4   -0.27    0.04
  -3   0  -4   -0.15    0.05
   3   0   4   -0.19    0.04
  -4   0  -4    3.74    0.20
  -4   0  -4    4.48    0.27
  -4   0  -4    4.09    0.24
   4   0   4    3.60    0.23
  -5   0  -4    0.18    0.10
  -5   0  -4    0.14    0.07
  -5   0  -4    0.13    0.08
   5   0   4    0.27    0.07
  -6   0  -4  128.56    2.95
  -6   0  -4  129.25    2.88
  -6   0  -4  123.91    2.82
   6   0   4  124.08    2.98
  -7   0  -4    0.23    0.12
  -7   0  -4    0.06    0.13
  -7   0  -4    0.18    0.15
   7   0   4    0.10    0.09
  -8   0  -4    2.23    0.26
  -8   0  -4    1.85    0.30
  -8   0  -4    2.07    0.31
   8   0   4    1.96    0.28
  -9   0  -4    3.02    0.36
  -9   0  -4    3.45    0.33
  -9   0  -4    3.57    0.40
   9   0   4    3.75    0.39
   7  -1  -4    5.48    0.50
  -7   1   4    5.04    0.43
  -7   1   4    4.90    0.42
  -7   1   4    4.45    0.40
   6  -1  -4   14.40    0.82
  -6   1   4   13.68    0.72
  -6   1   4   14.53    0.71
  -6   1   4   14.65    0.72
   5  -1  -4    0.32    0.17
  -5   1   4    0.13    0.10
  -5   1   4    0.21    0.10
  -5   1   4    0.09    0.11
  -5   1   4    0.13    0.08
  -5   1   4    0.01    0.11
  -4   1   4    3.43    0.29
  -4   1   4    3.51    0.21
  -4   1   4    3.53    0.29
  -4   1   4    3.56    0.29
  -3   1   4    0.54    0.12
  -3   1   4    0.80    0.13
  -3   1   4    0.69    0.12
  -3   1   4    0.51    0.12
  -3   1   4    0.60    0.10
   2  -1  -4   12.39    0.60
  -2   1   4   12.01    0.46
  -2   1   4   12.21    0.43
  -2   1   4   12.23    0.46
  -2   1   4   12.52    0.49
  -2   1   4   13.40    0.60
   1  -1  -4    0.01    0.04
   1  -1  -4    0.06    0.10
  -1   1   4   -0.01    0.07
  -1   1   4    0.00    0.09
  -1   1   4   -0.06    0.04
  -1   1   4    0.04    0.07
   0  -1  -4    3.69    0.17
   0  -1  -4    3.37    0.23
   0   1   4    2.98    0.20
   0   1   4    3.27    0.26
  -1  -1  -4    0.57    0.11
  -1  -1  -4    0.79    0.09
  -2  -1  -4  171.10    3.49
  -2  -1  -4  173.12    3.46
  -3  -1  -4    3.51    0.20
   3   1   4    4.44    0.20
  -4  -1  -4   87.13    1.89
  -4  -1  -4   89.52    1.97
  -4  -1  -4   89.33    1.97
   4   1   4   85.25    1.97
  -5  -1  -4    0.89    0.11
  -5  -1  -4    0.76    0.12
  -5  -1  -4    0.72    0.14
   5   1   4    1.13    0.14
  -6  -1  -4   26.39    0.88
  -6  -1  -4   26.30    0.82
  -6  -1  -4   27.09    0.90
   6   1   4   24.87    0.90
  -7  -1  -4    0.00    0.14
  -7  -1  -4    0.39    0.19
  -7  -1  -4    0.11    0.09
   7   1   4    0.31    0.12
  -8  -1  -4   62.27    1.72
  -8  -1  -4   64.30    1.84
  -8  -1  -4   61.93    1.88
   8   1   4   61.36    1.88
  -9  -1  -4    0.14    0.15
  -9  -1  -4    0.14    0.10
  -9  -1  -4    0.27    0.19
   9   1   4    0.12    0.12
   7  -2  -4    0.47    0.20
  -7   2   4    0.57    0.15
  -7   2   4    0.51    0.19
  -7   2   4    0.29    0.12
  -6   2   4   14.34    0.70
  -6   2   4   14.64    0.73
  -6   2   4   14.51    0.77
  -5   2   4    2.72    0.26
  -5   2   4    2.68    0.21
  -5   2   4    3.31    0.32
  -5   2   4    2.71    0.29
  -4   2   4   80.33    2.03
  -4   2   4   77.79    1.98
  -4   2   4   77.02    2.05
  -4   2   4   78.98    1.80
  -4   2   4   78.39    1.94
  -3   2   4    1.23    0.14
  -3   2   4    1.23    0.16
  -3   2   4    1.18    0.14
  -3   2   4    1.05    0.15
   2  -2  -4    0.36    0.10
  -2   2   4    0.48    0.10
  -2   2   4    0.30    0.08
  -2   2   4    0.35    0.11
  -2   2   4    0.29    0.09
   1  -2  -4    2.05    0.19
   1  -2  -4    1.93    0.16
  -1   2   4    1.94    0.17
  -1   2   4    1.92    0.16
  -1   2   4    2.55    0.20
  -1   2   4    1.90    0.14
  -1   2   4    1.55    0.18
   0  -2  -4  108.79    2.25
   0  -2  -4  104.42    2.26
   0   2   4  111.79    2.25
   0   2   4  106.51    2.31
   0   2   4  109.02    2.47
   0   2   4  105.28    2.32
  -1  -2  -4    1.39    0.13
   1   2   4    1.42    0.15
   1   2   4    1.47    0.10
  -2  -2  -4   63.27    1.35
  -2  -2  -4   63.88    1.39
   2   2   4   62.37    1.35
  -3  -2  -4   -0.04    0.07
  -3  -2  -4   -0.03    0.06
   3   2   4   -0.05    0.05
  -4  -2  -4  158.66    3.27
  -4  -2  -4  156.79    3.26
   4   2   4  148.94    3.27
  -5  -2  -4    1.88    0.19
  -5  -2  -4    1.56    0.20
   5   2   4    2.21    0.20
  -6  -2  -4   48.03    1.28
  -6  -2  -4   48.40    1.36
  -6  -2  -4   47.03    1.34
   6   2   4   46.61    1.37
  -7  -2  -4    1.41    0.25
  -7  -2  -4    1.55    0.22
  -7  -2  -4    1.51    0.24
   7   2   4    1.99    0.25
  -8  -2  -4    3.93    0.39
  -8  -2  -4    3.67    0.37
  -8  -2  -4    3.14    0.32
   8   2   4    3.46    0.36
  -9  -2  -4    1.20    0.24
  -9  -2  -4    1.27    0.27
  -9  -2  -4    0.94    0.23
   9   2   4    1.30    0.23
  -7   3   4    0.13    0.10
  -7   3   4   -0.02    0.07
  -6   3   4   30.25    1.21
  -6   3   4   31.35    1.09
  -6   3   4   30.36    1.15
  -5   3   4    1.34    0.23
  -5   3   4    1.09    0.19
  -5   3   4    1.16    0.16
  -5   3   4    1.16    0.16
  -4   3   4    5.51    0.41
  -4   3   4    5.15    0.32
  -4   3   4    5.75    0.31
  -4   3   4    5.24    0.38
  -3   3   4    0.69    0.10
  -3   3   4    0.90    0.15
  -3   3   4    0.65    0.12
  -3   3   4    0.87    0.15
   2  -3  -4   63.98    1.54
  -2   3   4   64.23    1.50
  -2   3   4   64.10    1.58
  -2   3   4   63.68    1.44
  -2   3   4   62.09    1.63
   1  -3  -4    0.01    0.05
   1  -3  -4    0.01    0.05
  -1   3   4   -0.01    0.05
  -1   3   4   -0.03    0.04
  -1   3   4    0.08    0.08
  -1   3   4   -0.01    0.04
  -1   3   4    0.07    0.04
   0  -3  -4   90.23    1.99
   0   3   4   91.61    2.02
   0   3   4   91.33    1.98
  -1  -3  -4    0.06    0.09
   1   3   4   -0.01    0.05
   1   3   4   -0.05    0.07
  -2  -3  -4   87.73    1.91
  -2  -3  -4   88.18    1.83
   2   3   4   88.68    1.90
   2   3   4   87.64    1.95
  -3  -3  -4    1.56    0.14
  -3  -3  -4    1.57    0.15
   3   3   4    1.68    0.15
  -4  -3  -4  206.58    4.26
  -4  -3  -4  205.38    4.23
   4   3   4  203.59    4.27
  -5  -3  -4    0.03    0.09
  -5  -3  -4   -0.01    0.07
   5   3   4    0.00    0.05
  -6  -3  -4    7.10    0.43
  -6  -3  -4    6.94    0.41
   6   3   4    7.39    0.44
  -7  -3  -4    0.63    0.16
  -7  -3  -4    0.48    0.20
   7   3   4    0.59    0.17
  -8  -3  -4    0.87    0.23
  -8  -3  -4    0.97    0.27
   8   3   4    0.67    0.18
  -9  -3  -4    1.78    0.30
  -9  -3  -4    1.89    0.30
   9   3   4    2.35    0.30
  -7   4   4    0.31    0.15
  -7   4   4    0.75    0.19
  -6   4   4    1.81    0.27
  -6   4   4    1.88    0.27
  -5   4   4    0.90    0.16
  -5   4   4    1.05    0.21
  -5   4   4    1.12    0.20
   4  -4  -4   11.88    0.57
  -4   4   4   12.05    0.61
  -4   4   4   11.39    0.63
  -4   4   4   12.33    0.49
   3  -4  -4    1.55    0.19
  -3   4   4    2.01    0.24
  -3   4   4    1.24    0.19
  -3   4   4    1.51    0.17
   2  -4  -4   58.95    1.50
  -2   4   4   58.98    1.54
  -2   4   4   61.94    1.59
  -2   4   4   59.98    1.62
  -2   4   4   61.01    1.46
   1  -4  -4    3.67    0.25
  -1   4   4    4.03    0.26
  -1   4   4    4.63    0.31
  -1   4   4    3.37    0.23
   0  -4  -4  225.00    4.66
   0   4   4  230.68    4.67
   0   4   4  226.68    4.67
  -1  -4  -4    0.41    0.11
   1   4   4    0.39    0.09
   1   4   4    0.47    0.11
  -2  -4  -4   66.71    1.44
  -2  -4  -4   67.87    1.54
   2   4   4   65.64    1.55
   2   4   4   69.58    1.56
  -3  -4  -4    0.36    0.07
  -3  -4  -4    0.30    0.10
   3   4   4    0.45    0.09
   3   4   4    0.46    0.11
  -4  -4  -4   21.45    0.69
  -4  -4  -4   22.80    0.69
   4   4   4   21.00    0.70
  -5  -4  -4    0.63    0.15
  -5  -4  -4    0.73    0.15
   5   4   4    0.95    0.16
  -6  -4  -4    6.82    0.40
  -6  -4  -4    6.72    0.44
   6   4   4    6.44    0.42
  -7  -4  -4    0.02    0.14
  -7  -4  -4    0.07    0.08
   7   4   4    0.02    0.09
  -8  -4  -4    8.18    0.54
  -8  -4  -4    8.65    0.58
   8   4   4    7.83    0.54
  -9  -4  -4    0.09    0.12
  -9  -4  -4    0.33    0.14
   9   4   4    0.12    0.08
   6  -5  -4   17.68    0.81
  -6   5   4   18.02    0.89
  -6   5   4   17.75    0.92
   5  -5  -4    0.35    0.16
  -5   5   4    0.54    0.21
  -5   5   4    0.28    0.14
  -5   5   4    0.17    0.13
   4  -5  -4    2.39    0.27
  -4   5   4    2.32    0.28
  -4   5   4    2.65    0.24
  -4   5   4    2.79    0.30
   3  -5  -4    2.00    0.24
  -3   5   4    1.64    0.22
  -3   5   4    1.67    0.19
  -3   5   4    1.90    0.25
   2  -5  -4   74.61    1.82
  -2   5   4   73.07    1.89
  -2   5   4   72.82    1.93
  -2   5   4   75.04    1.75
   1  -5  -4   -0.01    0.07
  -1   5   4    0.02    0.07
  -1   5   4    0.08    0.07
  -1   5   4   -0.01    0.06
   0  -5  -4   18.89    0.63
   0   5   4   18.72    0.61
   0   5   4   19.08    0.65
  -1  -5  -4    2.58    0.22
   1   5   4    4.11    0.26
   1   5   4    3.46    0.23
  -2  -5  -4   74.66    1.72
   2   5   4   75.33    1.70
   2   5   4   73.09    1.76
  -3  -5  -4    0.13    0.08
  -3  -5  -4    0.09    0.08
   3   5   4    0.23    0.08
   3   5   4    0.18    0.11
  -4  -5  -4    1.76    0.19
  -4  -5  -4    1.51    0.17
   4   5   4    1.62    0.20
  -5  -5  -4    0.22    0.13
  -5  -5  -4    0.32    0.13
   5   5   4    0.15    0.10
  -6  -5  -4    0.32    0.17
  -6  -5  -4    0.40    0.15
   6   5   4    0.30    0.15
  -7  -5  -4    0.91    0.21
  -7  -5  -4    0.43    0.17
   7   5   4    0.87    0.20
  -8  -5  -4    0.26    0.11
  -8  -5  -4    0.27    0.14
   8   5   4    0.61    0.16
   6  -6  -4    0.59    0.18
  -6   6   4    0.80    0.20
  -6   6   4    0.58    0.20
   5  -6  -4    0.89    0.20
  -5   6   4    0.48    0.19
  -5   6   4    0.93    0.21
   4  -6  -4   11.48    0.59
  -4   6   4   11.70    0.51
  -4   6   4   11.69    0.65
  -4   6   4   11.56    0.68
   3  -6  -4    0.33    0.14
  -3   6   4    0.28    0.15
  -3   6   4    0.18    0.11
  -3   6   4    0.30    0.14
   2  -6  -4   61.47    1.59
  -2   6   4   57.91    1.69
  -2   6   4   60.01    1.50
  -2   6   4   60.35    1.66
   1  -6  -4    0.09    0.13
  -1   6   4    0.09    0.08
  -1   6   4    0.14    0.10
  -1   6   4    0.09    0.11
   0  -6  -4   49.99    1.31
   0   6   4   49.18    1.25
   0   6   4   49.63    1.35
  -1  -6  -4    0.25    0.12
   1   6   4    0.30    0.10
   1   6   4    0.38    0.13
  -2  -6  -4   20.11    0.67
   2   6   4   20.16    0.71
   2   6   4   20.34    0.62
  -3  -6  -4    1.06    0.17
   3   6   4    1.31    0.23
  -4  -6  -4    0.60    0.16
   4   6   4    0.51    0.18
  -5  -6  -4   -0.07    0.08
   5   6   4    0.07    0.12
  -6  -6  -4    1.73    0.22
  -6  -6  -4    2.07    0.25
   6   6   4    2.06    0.26
  -7  -6  -4    0.35    0.14
  -7  -6  -4    0.17    0.12
   7   6   4    0.59    0.14
  -8  -6  -4    3.10    0.31
  -8  -6  -4    3.13    0.31
   8   6   4    3.68    0.34
   5  -7  -4    0.30    0.16
  -5   7   4    0.01    0.09
   4  -7  -4    2.10    0.26
  -4   7   4    1.75    0.28
  -4   7   4    1.89    0.22
  -4   7   4    2.15    0.28
   3  -7  -4    0.41    0.16
  -3   7   4    0.37    0.17
  -3   7   4    0.29    0.18
  -3   7   4    0.23    0.12
   2  -7  -4    3.32    0.31
  -2   7   4    2.80    0.24
  -2   7   4    3.00    0.30
  -2   7   4    2.87    0.32
   1  -7  -4    0.77    0.20
  -1   7   4    0.51    0.18
  -1   7   4    0.64    0.13
   0  -7  -4   35.86    1.07
   0   7   4   34.64    1.11
   0   7   4   36.13    0.99
  -1  -7  -4   -0.11    0.10
   1   7   4    0.01    0.08
   1   7   4    0.09    0.07
  -2  -7  -4   10.74    0.48
   2   7   4   11.09    0.54
  -3  -7  -4    0.03    0.10
   3   7   4   -0.01    0.15
  -4  -7  -4   31.60    0.96
   4   7   4   30.52    1.06
  -5  -7  -4    0.46    0.15
   5   7   4    0.39    0.20
  -6  -7  -4    6.15    0.40
   6   7   4    6.48    0.45
  -7  -7  -4    0.27    0.10
   4  -8  -4   -0.07    0.11
  -4   8   4    0.08    0.10
  -4   8   4    0.19    0.16
   3  -8  -4    1.30    0.22
  -3   8   4    1.25    0.22
  -3   8   4    0.79    0.14
  -3   8   4    1.09    0.24
   2  -8  -4   28.63    1.00
  -2   8   4   27.38    1.07
  -2   8   4   27.50    0.88
   1  -8  -4    0.25    0.14
  -1   8   4    0.13    0.09
  -1   8   4    0.14    0.13
   0  -8  -4   11.03    0.54
   0   8   4   10.21    0.56
   0   8   4   10.72    0.44
  -1  -8  -4    0.44    0.17
   1   8   4    0.45    0.16
  -2  -8  -4   24.51    0.83
   2   8   4   24.92    0.92
  -3  -8  -4    0.54    0.14
   3   8   4    0.29    0.19
  -4  -8  -4    1.00    0.16
   4   8   4    1.02    0.27
  -5  -8  -4    0.03    0.06
   5   8   4   -0.14    0.15
  -6  -8  -4    5.33    0.38
   6   8   4    5.66    0.47
   3  -9  -4    0.38    0.16
  -3   9   4    0.29    0.14
   2  -9  -4    2.21    0.27
  -2   9   4    2.25    0.30
   1  -9  -4    0.59    0.21
  -1   9   4    0.73    0.19
  -1   9   4    0.61    0.11
   0  -9  -4  105.52    2.54
   0   9   4  105.57    2.71
  -1  -9  -4    0.19    0.14
   1   9   4    0.19    0.11
  -2  -9  -4    0.26    0.11
   2   9   4    0.00    0.10
  -3  -9  -4    0.43    0.10
   3   9   4    0.09    0.16
  -4  -9  -4    1.24    0.16
   4   9   4    1.09    0.31
   0   7  -5   -0.06    0.08
  -1   7  -5    2.28    0.31
  -2   7  -5    0.05    0.09
  -3   7  -5   39.69    1.37
  -4   7  -5    0.04    0.06
   2   6  -5    0.32    0.17
   0   6  -5    0.11    0.18
   0  -6   5    0.09    0.16
  -1   6  -5   15.33    0.82
   1  -6   5   15.90    0.78
  -2   6  -5   -0.02    0.09
   2  -6   5   -0.02    0.09
  -3   6  -5    0.06    0.10
  -4   6  -5    0.65    0.20
  -5   6  -5   13.05    0.66
  -6   6  -5    0.08    0.07
   4   5  -5    0.38    0.22
  -4  -5   5    0.32    0.21
   3   5  -5    0.37    0.21
  -3  -5   5    0.06    0.20
   2   5  -5   -0.04    0.13
  -2  -5   5    0.22    0.19
   1   5  -5    5.57    0.53
  -1  -5   5    5.75    0.50
   0   5  -5    0.14    0.18
   0  -5   5   -0.04    0.13
  -1   5  -5   11.18    0.68
   1  -5   5   11.10    0.63
  -2   5  -5   -0.06    0.11
   2  -5   5   -0.08    0.06
  -3   5  -5   79.38    2.12
  -4   5  -5    0.12    0.13
  -5   5  -5    6.25    0.43
  -6   5  -5    0.43    0.16
  -7   5  -5    5.41    0.42
   4   4  -5    0.04    0.16
  -4  -4   5    0.10    0.15
  -4  -4   5   -0.16    0.16
   3   4  -5    6.21    0.61
  -3  -4   5    5.07    0.48
  -3  -4   5    5.12    0.46
   2   4  -5   -0.27    0.13
  -2  -4   5   -0.02    0.14
   1   4  -5    0.15    0.19
  -1  -4   5    0.19    0.16
   0   4  -5   -0.04    0.14
   0  -4   5   -0.06    0.12
  -1   4  -5    0.01    0.15
   1  -4   5    0.07    0.11
  -2   4  -5    0.01    0.12
   2  -4   5    0.01    0.06
  -3   4  -5   32.76    1.11
   3  -4   5   35.38    1.38
  -4   4  -5    0.88    0.19
  -5   4  -5  129.56    3.04
  -6   4  -5    0.72    0.19
  -7   4  -5    4.54    0.38
  -8   4  -5    0.03    0.07
  -8   4  -5   -0.07    0.09
   5   3  -5    0.41    0.20
   5   3  -5    0.43    0.10
  -5  -3   5    0.15    0.14
  -5  -3   5    0.26    0.17
   4   3  -5    1.33    0.36
   4   3  -5    2.03    0.22
  -4  -3   5    1.83    0.29
   3   3  -5   36.36    1.13
   3   3  -5   37.09    1.53
  -3  -3   5   38.40    1.26
  -3  -3   5   34.25    1.35
   2   3  -5    0.20    0.22
   2   3  -5    0.31    0.13
  -2  -3   5    0.31    0.19
  -2  -3   5    0.14    0.15
   1   3  -5   29.10    1.17
  -1  -3   5   29.82    1.14
   0   3  -5    0.01    0.12
   0  -3   5    0.12    0.09
  -1   3  -5   32.34    1.13
   1  -3   5   32.46    1.14
  -2   3  -5    0.26    0.14
   2  -3   5    0.41    0.09
  -3   3  -5    8.99    0.49
  -4   3  -5    0.77    0.17
  -5   3  -5    3.31    0.30
  -6   3  -5    2.02    0.23
  -6   3  -5    1.25    0.22
  -7   3  -5   26.05    1.04
  -7   3  -5   27.07    0.98
  -8   3  -5   -0.04    0.08
  -8   3  -5    0.02    0.10
   6   2  -5    0.89    0.13
   6   2  -5    0.79    0.21
  -6  -2   5    0.54    0.18
  -6  -2   5    0.40    0.18
   5   2  -5    0.22    0.08
   5   2  -5    0.14    0.21
  -5  -2   5    0.11    0.12
  -5  -2   5    0.37    0.23
   4   2  -5   -0.02    0.17
   4   2  -5    0.14    0.09
  -4  -2   5   -0.04    0.11
  -4  -2   5   -0.18    0.13
   3   2  -5   26.47    1.23
   3   2  -5   26.49    0.90
  -3  -2   5   26.84    0.97
  -3  -2   5   26.31    1.11
   2   2  -5    2.09    0.19
   2   2  -5    1.72    0.32
  -2  -2   5    1.66    0.24
  -2  -2   5    1.68    0.25
   1   2  -5   98.79    2.57
   1   2  -5   92.13    2.13
  -1  -2   5   99.06    2.56
  -1  -2   5  101.81    2.12
   0   2  -5    4.67    0.27
   0   2  -5    4.41    0.39
   0  -2   5    4.48    0.38
  -1   2  -5  386.62    8.01
   1  -2   5  388.22    8.09
  -2   2  -5    1.28    0.20
   2  -2   5    1.43    0.19
  -3   2  -5    2.96    0.26
  -4   2  -5    0.60    0.08
  -4   2  -5    0.40    0.08
  -4   2  -5    0.40    0.13
  -5   2  -5   12.04    0.54
  -5   2  -5   10.96    0.46
  -5   2  -5   12.15    0.53
  -6   2  -5    4.17    0.33
  -6   2  -5    3.14    0.26
  -6   2  -5    2.79    0.29
  -7   2  -5   18.32    0.82
  -7   2  -5   17.70    0.72
  -7   2  -5   18.41    0.76
  -8   2  -5    0.42    0.16
  -8   2  -5    0.17    0.10
  -8   2  -5    0.27    0.13
  -9   2  -5   24.86    0.99
  -9   2  -5   25.95    1.05
  -9   2  -5   25.41    1.14
   9  -2   5   25.37    1.14
   6   1  -5    1.19    0.22
   6   1  -5    1.86    0.24
  -6  -1   5    0.90    0.18
  -6  -1   5    1.15    0.21
  -6  -1   5    1.26    0.23
   5   1  -5    8.72    0.55
   5   1  -5    8.96    0.76
  -5  -1   5    8.15    0.58
  -5  -1   5    8.64    0.55
  -5  -1   5    8.40    0.48
   4   1  -5    0.57    0.29
   4   1  -5    0.50    0.17
  -4  -1   5    0.28    0.17
  -4  -1   5    0.33    0.12
  -4  -1   5    0.25    0.13
   3   1  -5    9.64    0.69
   3   1  -5   10.26    0.51
  -3  -1   5   10.19    0.54
  -3  -1   5   10.83    0.64
  -3  -1   5   10.79    0.46
   2   1  -5    0.70    0.10
   2   1  -5    0.44    0.21
  -2  -1   5    0.56    0.09
  -2  -1   5    0.41    0.15
  -2  -1   5    0.46    0.13
   1   1  -5   58.45    1.38
   1   1  -5   58.43    1.71
  -1  -1   5   60.69    1.75
  -1  -1   5   59.32    1.37
   0   1  -5    0.38    0.18
   0   1  -5    0.38    0.05
   0  -1   5    0.28    0.14
  -1   1  -5    4.19    0.33
   1  -1   5    4.07    0.34
  -2   1  -5    2.02    0.22
   2  -1   5    2.52    0.25
  -3   1  -5  192.59    4.08
  -4   1  -5    0.05    0.04
  -4   1  -5    0.09    0.09
  -5   1  -5    7.84    0.35
  -5   1  -5    8.27    0.42
  -5   1  -5    8.36    0.42
  -6   1  -5    1.40    0.16
  -6   1  -5    1.26    0.20
  -6   1  -5    1.72    0.21
  -7   1  -5  155.91    3.51
  -7   1  -5  155.04    3.60
  -7   1  -5  151.54    3.42
   7  -1   5  149.66    3.61
  -8   1  -5    2.88    0.33
  -8   1  -5    2.16    0.30
  -8   1  -5    2.86    0.27
   8  -1   5    2.94    0.30
  -9   1  -5    3.77    0.34
  -9   1  -5    3.85    0.42
  -9   1  -5    3.75    0.37
   9  -1   5    3.93    0.38
   6   0  -5    2.41    0.30
  -6   0   5    1.99    0.23
  -6   0   5    2.47    0.30
   5   0  -5   42.38    1.45
   5   0  -5   42.12    1.72
  -5   0   5   42.28    1.37
  -5   0   5   41.03    1.44
  -5   0   5   42.93    1.29
   4   0  -5   -0.06    0.09
   4   0  -5   -0.02    0.15
  -4   0   5    0.11    0.05
  -4   0   5    0.05    0.12
  -4   0   5    0.00    0.06
  -4   0   5   -0.03    0.06
   3   0  -5   14.14    0.63
   3   0  -5   14.90    0.81
  -3   0   5   14.41    0.49
  -3   0   5   14.24    0.57
  -3   0   5   14.31    0.61
  -3   0   5   14.42    0.55
  -3   0   5   15.54    0.75
   2   0  -5    0.29    0.08
   2   0  -5    0.27    0.17
  -2   0   5    0.18    0.08
  -2   0   5    0.18    0.11
  -2   0   5    0.18    0.06
  -2   0   5    0.24    0.06
  -2   0   5    0.19    0.07
   1   0  -5   16.96    0.72
   1   0  -5   16.60    0.54
  -1   0   5   16.53    0.51
  -1   0   5   18.18    0.78
  -1   0   5   16.28    0.58
  -1   0   5   17.48    0.50
  -1   0   5   16.60    0.53
   0   0  -5    0.33    0.17
   0   0   5    0.33    0.11
   0   0   5    0.32    0.12
  -1   0  -5    0.15    0.14
   1   0   5    0.29    0.11
  -2   0  -5    0.00    0.03
  -2   0  -5    0.04    0.09
   2   0   5    0.02    0.05
  -3   0  -5   39.59    1.04
  -3   0  -5   40.18    0.97
  -4   0  -5    0.08    0.08
  -4   0  -5    0.15    0.06
  -4   0  -5    0.19    0.04
   4   0   5    0.18    0.04
  -5   0  -5   34.28    0.97
  -5   0  -5   32.46    0.87
  -5   0  -5   33.22    0.97
   5   0   5   31.40    0.95
  -6   0  -5    2.52    0.26
  -6   0  -5    3.62    0.29
  -6   0  -5    3.22    0.24
   6   0   5    4.34    0.31
  -7   0  -5    9.44    0.47
  -7   0  -5   10.18    0.54
  -7   0  -5   10.29    0.58
   7   0   5    9.47    0.53
  -8   0  -5    0.22    0.19
  -8   0  -5    0.25    0.18
  -8   0  -5    0.14    0.12
   8   0   5    0.35    0.13
  -9   0  -5   35.88    1.22
  -9   0  -5   36.95    1.40
  -9   0  -5   37.51    1.34
   9   0   5   36.03    1.37
   6  -1  -5    2.22    0.31
  -6   1   5    2.18    0.28
  -6   1   5    2.50    0.29
  -6   1   5    2.30    0.25
   5  -1  -5    5.36    0.46
  -5   1   5    5.54    0.41
  -5   1   5    5.89    0.31
  -5   1   5    5.62    0.40
  -5   1   5    6.25    0.44
   4  -1  -5    5.53    0.42
  -4   1   5    4.64    0.32
  -4   1   5    4.25    0.34
  -4   1   5    4.69    0.34
  -4   1   5    4.33    0.25
  -4   1   5    3.53    0.33
   3  -1  -5  124.83    3.20
  -3   1   5  129.34    2.85
  -3   1   5  129.39    3.12
  -3   1   5  129.07    2.75
  -3   1   5  127.95    2.88
  -3   1   5  122.78    2.93
   2  -1  -5    2.17    0.27
   2  -1  -5    2.25    0.16
  -2   1   5    2.60    0.19
  -2   1   5    2.38    0.21
  -2   1   5    1.61    0.22
  -2   1   5    2.18    0.19
   1  -1  -5   28.53    0.94
  -1   1   5   31.52    1.06
  -1   1   5   27.79    0.79
  -1   1   5   28.43    0.75
  -1   1   5   27.60    0.79
   0  -1  -5    0.05    0.04
   0  -1  -5    0.02    0.09
   0   1   5    0.10    0.08
   0   1   5    0.10    0.08
   0   1   5   -0.01    0.03
  -1  -1  -5    0.27    0.09
  -1  -1  -5    0.39    0.13
   1   1   5    0.38    0.12
  -2  -1  -5    0.33    0.11
  -2  -1  -5    0.42    0.09
   2   1   5    0.48    0.11
  -3  -1  -5    9.68    0.38
  -3  -1  -5    9.27    0.34
  -4  -1  -5    0.49    0.12
  -4  -1  -5    0.61    0.10
   4   1   5    0.76    0.09
  -5  -1  -5   33.67    0.88
  -5  -1  -5   34.58    0.97
  -5  -1  -5   33.62    0.98
   5   1   5   33.31    0.96
  -6  -1  -5    0.33    0.09
  -6  -1  -5    0.28    0.12
  -6  -1  -5    0.21    0.14
   6   1   5    0.44    0.10
  -7  -1  -5    2.06    0.26
  -7  -1  -5    2.15    0.22
  -7  -1  -5    2.08    0.27
   7   1   5    2.07    0.24
  -8  -1  -5    6.42    0.50
  -8  -1  -5    6.12    0.48
  -8  -1  -5    6.24    0.40
   8   1   5    7.50    0.50
  -9  -1  -5    3.96    0.43
  -9  -1  -5    3.97    0.34
  -9  -1  -5    4.60    0.42
   9   1   5    4.26    0.40
   6  -2  -5    0.14    0.11
  -6   2   5    0.03    0.08
  -6   2   5    0.06    0.08
  -6   2   5    0.05    0.07
  -6   2   5    0.40    0.10
  -5   2   5    6.24    0.43
  -5   2   5    5.83    0.39
  -5   2   5    6.18    0.33
  -5   2   5    6.20    0.45
  -4   2   5    2.17    0.28
  -4   2   5    2.89    0.22
  -4   2   5    3.21    0.27
  -4   2   5    3.15    0.27
  -4   2   5    4.01    0.33
   3  -2  -5    8.13    0.40
  -3   2   5    8.24    0.42
  -3   2   5    8.25    0.38
  -3   2   5    8.27    0.46
  -3   2   5    8.42    0.41
   2  -2  -5    7.64    0.35
   2  -2  -5    7.63    0.45
  -2   2   5    7.53    0.36
  -2   2   5    7.56    0.34
  -2   2   5    8.98    0.43
  -2   2   5    8.05    0.38
  -2   2   5    7.00    0.45
   1  -2  -5  376.19    7.76
   1  -2  -5  379.58    7.63
  -1   2   5  375.77    7.64
  -1   2   5  390.48    7.69
  -1   2   5  376.43    7.73
  -1   2   5  374.53    7.69
  -1   2   5  412.35    8.01
   0  -2  -5    3.94    0.21
   0  -2  -5    3.70    0.24
   0   2   5    4.10    0.20
   0   2   5    3.87    0.25
   0   2   5    3.17    0.30
  -1  -2  -5    4.98    0.24
  -1  -2  -5    4.95    0.22
   1   2   5    5.05    0.28
   1   2   5    4.86    0.20
  -2  -2  -5    0.51    0.11
  -2  -2  -5    0.30    0.08
   2   2   5    0.57    0.09
  -3  -2  -5    6.20    0.27
  -3  -2  -5    5.92    0.26
   3   2   5    5.63    0.23
  -4  -2  -5    0.09    0.08
  -4  -2  -5    0.00    0.07
   4   2   5    0.05    0.04
  -5  -2  -5    0.23    0.11
  -5  -2  -5    0.18    0.11
   5   2   5    0.11    0.06
  -6  -2  -5    0.03    0.10
  -6  -2  -5    0.05    0.11
   6   2   5    0.00    0.05
  -7  -2  -5   33.28    1.10
  -7  -2  -5   32.12    1.09
   7   2   5   31.55    1.09
  -8  -2  -5    0.32    0.16
  -8  -2  -5    0.35    0.18
   8   2   5    0.56    0.14
  -9  -2  -5    5.50    0.45
  -9  -2  -5    5.78    0.51
   9   2   5    5.08    0.44
  -6   3   5    0.02    0.08
  -6   3   5    0.04    0.07
  -6   3   5    0.10    0.10
  -5   3   5   29.92    0.90
  -5   3   5   29.79    1.15
  -5   3   5   30.45    1.10
   4  -3  -5    0.01    0.08
  -4   3   5    0.10    0.09
  -4   3   5    0.19    0.08
  -4   3   5    0.14    0.10
  -4   3   5    0.17    0.08
   3  -3  -5   15.79    0.61
  -3   3   5   16.18    0.57
  -3   3   5   16.28    0.66
  -3   3   5   15.88    0.70
  -3   3   5   16.08    0.58
   2  -3  -5    0.20    0.09
  -2   3   5    0.25    0.10
  -2   3   5    0.34    0.12
  -2   3   5    0.19    0.07
  -2   3   5    0.27    0.10
  -2   3   5    0.09    0.08
   1  -3  -5    5.91    0.30
   1  -3  -5    5.59    0.28
  -1   3   5    6.16    0.30
  -1   3   5    5.84    0.23
  -1   3   5    5.91    0.40
  -1   3   5    5.49    0.33
  -1   3   5    5.64    0.31
   0  -3  -5    2.00    0.13
   0  -3  -5    2.75    0.19
   0   3   5    2.99    0.22
   0   3   5    2.84    0.18
  -1  -3  -5  179.94    3.85
  -1  -3  -5  193.07    3.70
   1   3   5  187.85    3.81
   1   3   5  190.53    3.93
  -2  -3  -5    0.04    0.08
  -2  -3  -5    0.02    0.03
   2   3   5    0.07    0.07
   2   3   5    0.05    0.09
  -3  -3  -5   19.87    0.59
  -3  -3  -5   18.80    0.54
   3   3   5   18.96    0.55
  -4  -3  -5    2.39    0.19
  -4  -3  -5    2.82    0.21
   4   3   5    3.16    0.20
  -5  -3  -5    6.74    0.36
  -5  -3  -5    6.12    0.34
   5   3   5    6.12    0.34
  -6  -3  -5    0.36    0.15
  -6  -3  -5    0.12    0.12
   6   3   5    0.28    0.11
  -7  -3  -5    3.60    0.33
  -7  -3  -5    3.74    0.33
   7   3   5    3.81    0.32
  -8  -3  -5    1.66    0.27
  -8  -3  -5    2.09    0.25
   8   3   5    2.24    0.27
  -9  -3  -5   50.70    1.64
  -9  -3  -5   47.28    1.63
   9   3   5   48.71    1.62
  -6   4   5    1.42    0.18
  -6   4   5    1.71    0.26
  -6   4   5    1.46    0.24
   5  -4  -5   36.83    1.21
  -5   4   5   37.29    1.36
  -5   4   5   38.94    1.10
  -5   4   5   37.09    1.29
   4  -4  -5    0.13    0.14
  -4   4   5    0.26    0.13
  -4   4   5    0.26    0.12
  -4   4   5    0.22    0.11
   3  -4  -5  111.87    2.59
  -3   4   5  111.00    2.66
  -3   4   5  112.82    2.51
  -3   4   5  109.74    2.74
   2  -4  -5    0.19    0.09
  -2   4   5    0.23    0.10
  -2   4   5    0.14    0.07
  -2   4   5    0.13    0.10
   1  -4  -5    5.75    0.32
  -1   4   5    6.61    0.34
  -1   4   5    6.11    0.34
  -1   4   5    6.12    0.37
   0  -4  -5    0.45    0.11
   0   4   5    0.33    0.11
   0   4   5    0.41    0.08
  -1  -4  -5  118.38    2.57
   1   4   5  117.56    2.54
   1   4   5  120.01    2.61
  -2  -4  -5    3.82    0.25
   2   4   5    3.44    0.24
   2   4   5    4.20    0.24
  -3  -4  -5   19.40    0.61
  -3  -4  -5   18.45    0.54
   3   4   5   18.49    0.59
   3   4   5   19.29    0.63
  -4  -4  -5    0.08    0.09
  -4  -4  -5    0.19    0.07
   4   4   5    0.12    0.07
  -5  -4  -5    3.57    0.26
  -5  -4  -5    3.63    0.27
   5   4   5    3.56    0.27
  -6  -4  -5    2.02    0.23
  -6  -4  -5    1.76    0.22
   6   4   5    2.04    0.23
  -7  -4  -5    0.52    0.16
  -7  -4  -5    0.53    0.21
   7   4   5    0.41    0.15
  -8  -4  -5    0.40    0.15
  -8  -4  -5    0.34    0.12
   8   4   5    0.58    0.14
  -9  -4  -5    8.97    0.61
  -9  -4  -5    8.87    0.58
   9   4   5    9.38    0.59
   6  -5  -5    1.31    0.22
  -6   5   5    1.60    0.24
  -6   5   5    1.55    0.27
   5  -5  -5   24.42    0.94
  -5   5   5   24.70    0.82
  -5   5   5   24.47    1.02
  -5   5   5   21.73    1.01
   4  -5  -5    4.08    0.35
  -4   5   5    4.24    0.39
  -4   5   5    3.40    0.33
  -4   5   5    3.26    0.26
   3  -5  -5  154.96    3.45
  -3   5   5  154.00    3.35
  -3   5   5  151.62    3.53
  -3   5   5  151.37    3.62
   2  -5  -5    2.89    0.28
  -2   5   5    2.54    0.25
  -2   5   5    2.81    0.29
  -2   5   5    2.16    0.22
   1  -5  -5    1.70    0.20
  -1   5   5    1.74    0.19
  -1   5   5    1.94    0.23
  -1   5   5    1.68    0.19
   0  -5  -5    0.13    0.11
   0   5   5    0.13    0.09
   0   5   5    0.31    0.11
  -1  -5  -5   60.66    1.47
   1   5   5   60.30    1.48
   1   5   5   57.30    1.45
  -2  -5  -5    0.90    0.16
   2   5   5    0.89    0.14
   2   5   5    0.98    0.14
  -3  -5  -5  194.01    4.02
   3   5   5  184.78    4.03
   3   5   5  195.48    4.02
  -4  -5  -5    6.27    0.36
   4   5   5    5.95    0.32
   4   5   5    7.60    0.39
  -5  -5  -5   97.47    2.30
  -5  -5  -5   98.23    2.28
   5   5   5   98.28    2.32
  -6  -5  -5    0.20    0.15
  -6  -5  -5    0.32    0.12
   6   5   5    0.29    0.12
  -7  -5  -5    0.89    0.19
  -7  -5  -5    0.68    0.14
   7   5   5    0.82    0.19
  -8  -5  -5    0.06    0.09
   8   5   5    0.16    0.10
   5  -6  -5   20.18    0.87
  -5   6   5   19.60    0.97
  -5   6   5   20.95    0.96
  -5   6   5   20.32    0.76
   4  -6  -5    0.02    0.12
  -4   6   5    0.04    0.09
  -4   6   5    0.06    0.08
  -4   6   5    0.10    0.10
   3  -6  -5    5.91    0.42
  -3   6   5    5.69    0.45
  -3   6   5    5.80    0.42
  -3   6   5    5.78    0.35
   2  -6  -5    0.63    0.19
  -2   6   5    0.56    0.19
  -2   6   5    0.81    0.19
  -2   6   5    0.41    0.14
   1  -6  -5    8.66    0.46
  -1   6   5    8.46    0.42
  -1   6   5    8.51    0.47
   0  -6  -5   -0.01    0.11
   0   6   5    0.08    0.10
   0   6   5   -0.06    0.06
  -1  -6  -5    3.10    0.27
   1   6   5    2.70    0.24
   1   6   5    3.02    0.24
  -2  -6  -5    0.88    0.18
   2   6   5    0.96    0.17
   2   6   5    0.80    0.14
  -3  -6  -5  110.09    2.49
   3   6   5  108.98    2.55
   3   6   5  112.02    2.46
  -4  -6  -5    0.31    0.14
   4   6   5    0.35    0.15
  -5  -6  -5    2.74    0.27
   5   6   5    2.62    0.28
  -6  -6  -5    2.95    0.29
   6   6   5    3.58    0.33
  -7  -6  -5   45.55    1.41
   7   6   5   45.72    1.42
  -8  -6  -5    0.57    0.18
   8   6   5    1.09    0.18
  -5   7   5    2.95    0.37
   4  -7  -5    0.00    0.12
  -4   7   5   -0.06    0.05
  -4   7   5    0.12    0.10
  -4   7   5   -0.01    0.11
   3  -7  -5   20.89    0.84
  -3   7   5   21.11    0.91
  -3   7   5   21.73    0.77
  -3   7   5   20.36    0.93
   2  -7  -5   -0.04    0.11
  -2   7   5    0.04    0.10
  -2   7   5    0.01    0.11
  -2   7   5    0.08    0.08
   1  -7  -5   52.26    1.46
  -1   7   5   51.06    1.51
  -1   7   5   52.34    1.38
   0  -7  -5    0.70    0.21
   0   7   5    0.72    0.17
   0   7   5    0.99    0.14
  -1  -7  -5    4.78    0.34
   1   7   5    4.95    0.35
   1   7   5    4.88    0.30
  -2  -7  -5    0.02    0.12
   2   7   5    0.10    0.06
   2   7   5    0.13    0.12
  -3  -7  -5    1.06    0.19
   3   7   5    1.08    0.23
  -4  -7  -5    1.52    0.22
   4   7   5    1.55    0.27
  -5  -7  -5   11.97    0.55
   5   7   5   11.70    0.61
  -6  -7  -5    0.19    0.12
   6   7   5    0.08    0.10
  -7  -7  -5    2.68    0.27
   7   7   5    2.94    0.32
  -4   8   5    0.07    0.13
  -4   8   5    0.02    0.06
  -4   8   5    0.23    0.12
   3  -8  -5    2.48    0.30
  -3   8   5    2.35    0.23
  -3   8   5    2.46    0.33
  -3   8   5    2.65    0.33
   2  -8  -5    0.02    0.12
  -2   8   5    0.05    0.09
  -2   8   5    0.09    0.06
   1  -8  -5   45.50    1.37
  -1   8   5   45.87    1.26
  -1   8   5   45.80    1.46
   0  -8  -5    0.00    0.14
   0   8   5    0.40    0.09
   0   8   5    0.23    0.14
  -1  -8  -5   28.29    0.95
   1   8   5   28.19    1.00
   1   8   5   28.84    0.87
  -2  -8  -5    0.62    0.18
   2   8   5    0.86    0.19
  -3  -8  -5   17.06    0.68
   3   8   5   17.99    0.76
  -4  -8  -5    0.22    0.12
   4   8   5   -0.02    0.16
  -5  -8  -5    4.47    0.33
   5   8   5    4.76    0.42
  -6  -8  -5    1.73    0.21
   6   8   5    1.67    0.29
   2  -9  -5    0.11    0.14
  -2   9   5    0.25    0.11
  -2   9   5    0.34    0.14
   1  -9  -5    7.81    0.49
  -1   9   5    7.84    0.55
  -1   9   5    7.10    0.39
   0  -9  -5    0.04    0.15
   0   9   5    0.07    0.11
  -1  -9  -5    1.64    0.25
   1   9   5    1.34    0.22
  -2  -9  -5    0.52    0.18
   2   9   5    0.26    0.14
  -3  -9  -5   19.26    0.76
   3   9   5   20.41    0.87
  -4  -9  -5    0.14    0.09
   4   9   5   -0.04    0.15
   1   6  -6    0.16    0.16
  -1  -6   6    0.18    0.20
   0   6  -6    7.02    0.59
   0  -6   6    6.38    0.55
  -1   6  -6   -0.02    0.10
   1  -6   6    0.12    0.16
  -2   6  -6    0.04    0.13
   2  -6   6    0.07    0.11
  -3   6  -6    0.36    0.18
  -4   6  -6  102.04    2.67
  -5   6  -6    0.64    0.14
  -2  -5   6   24.68    1.18
   1   5  -6    1.78    0.35
  -1  -5   6    2.12    0.34
   0   5  -6   19.48    0.99
   0  -5   6   19.76    0.97
  -1   5  -6    0.88    0.24
   1  -5   6    0.99    0.22
  -2   5  -6    8.32    0.57
   2  -5   6    8.40    0.56
  -3   5  -6    0.45    0.19
  -4   5  -6   20.16    0.86
  -5   5  -6    0.18    0.15
  -6   5  -6   25.59    1.00
  -7   5  -6   -0.06    0.08
   3   4  -6    0.40    0.25
  -3  -4   6    0.20    0.19
   2   4  -6    7.91    0.66
  -2  -4   6    7.14    0.60
   1   4  -6    1.14    0.32
  -1  -4   6    1.22    0.29
   0   4  -6   74.12    2.23
   0  -4   6   76.68    2.26
  -1   4  -6    2.16    0.33
   1  -4   6    2.25    0.31
  -2   4  -6   34.47    1.22
   2  -4   6   33.85    1.23
  -3   4  -6    0.96    0.22
   3  -4   6    1.35    0.20
  -4   4  -6   57.17    1.65
  -5   4  -6    1.71    0.25
  -6   4  -6   12.26    0.63
  -7   4  -6    0.14    0.12
  -8   4  -6    1.31    0.22
   4   3  -6    8.33    0.75
  -4  -3   6    7.69    0.63
  -4  -3   6    8.54    0.59
   3   3  -6   -0.01    0.18
  -3  -3   6    0.03    0.15
  -3  -3   6    0.05    0.18
   2   3  -6   19.99    1.05
  -2  -3   6   19.37    0.99
   1   3  -6    0.25    0.22
  -1  -3   6    0.40    0.22
   0   3  -6    7.57    0.57
   0  -3   6    8.31    0.59
  -1   3  -6   -0.06    0.14
   1  -3   6    0.03    0.10
  -2   3  -6   15.22    0.71
   2  -3   6   14.04    0.72
  -3   3  -6    0.07    0.14
   3  -3   6    0.07    0.06
  -4   3  -6    0.07    0.12
  -5   3  -6    0.66    0.18
  -6   3  -6   95.58    2.39
  -7   3  -6    1.40    0.22
  -8   3  -6   23.05    0.92
  -8   3  -6   17.05    1.05
   5   2  -6    3.03    0.45
  -5  -2   6    1.78    0.27
  -5  -2   6    2.44    0.31
   4   2  -6   13.55    0.93
  -4  -2   6   13.57    0.73
  -4  -2   6   13.67    0.83
   3   2  -6    2.59    0.41
  -3  -2   6    2.74    0.37
  -3  -2   6    3.38    0.38
   2   2  -6    0.48    0.26
  -2  -2   6    0.68    0.27
   1   2  -6    0.30    0.21
  -1  -2   6    0.15    0.09
  -1  -2   6    0.23    0.16
   0   2  -6    3.65    0.39
   0  -2   6    4.61    0.42
  -1   2  -6    0.58    0.22
   1  -2   6    0.43    0.18
  -2   2  -6    0.69    0.19
   2  -2   6    0.27    0.15
  -3   2  -6    0.04    0.11
   3  -2   6    0.02    0.06
  -4   2  -6    5.62    0.38
  -5   2  -6    1.16    0.21
  -6   2  -6   46.54    1.39
  -6   2  -6   48.43    1.40
  -7   2  -6    0.14    0.13
  -7   2  -6    0.15    0.10
  -8   2  -6    0.38    0.18
  -8   2  -6    0.38    0.16
  -9   2  -6   -0.01    0.08
  -9   2  -6   -0.06    0.08
   5   1  -6    1.11    0.25
  -5  -1   6    1.01    0.20
  -5  -1   6    0.64    0.23
   4   1  -6    7.65    0.66
  -4  -1   6    7.36    0.58
  -4  -1   6    7.64    0.52
   3   1  -6    0.09    0.21
  -3  -1   6   -0.02    0.13
  -3  -1   6    0.10    0.13
   2   1  -6    1.97    0.34
  -2  -1   6    2.02    0.27
  -2  -1   6    2.20    0.30
  -2  -1   6    2.25    0.18
   1   1  -6    0.51    0.23
  -1  -1   6    0.61    0.21
  -1  -1   6    0.61    0.10
   0   1  -6   25.42    0.97
   0  -1   6   24.95    1.04
  -1   1  -6    0.46    0.19
   1  -1   6    0.40    0.16
  -2   1  -6   61.67    1.64
   2  -1   6   62.94    1.80
  -3   1  -6    0.32    0.14
   3  -1   6    0.36    0.08
  -4   1  -6    0.22    0.04
  -4   1  -6    0.28    0.13
  -5   1  -6    0.13    0.06
  -5   1  -6    0.07    0.11
  -6   1  -6   21.61    0.81
  -7   1  -6    2.91    0.29
  -7   1  -6    2.20    0.27
  -8   1  -6    0.57    0.21
  -8   1  -6    0.29    0.14
  -9   1  -6   -0.09    0.07
  -9   1  -6   -0.06    0.08
   5   0  -6    0.14    0.10
   5   0  -6    0.02    0.06
  -5   0   6    0.05    0.10
  -5   0   6    0.00    0.11
  -5   0   6    0.12    0.13
   4   0  -6   15.27    0.91
   4   0  -6   14.86    0.91
  -4   0   6   15.42    0.63
  -4   0   6   15.49    0.82
  -4   0   6   15.06    0.71
   3   0  -6    1.52    0.31
  -3   0   6    1.55    0.15
  -3   0   6    1.28    0.22
  -3   0   6    1.32    0.21
  -3   0   6    1.60    0.17
   2   0  -6    8.15    0.56
  -2   0   6    7.26    0.35
  -2   0   6    7.95    0.56
  -2   0   6    7.53    0.42
  -2   0   6    7.37    0.33
   1   0  -6    1.48    0.24
  -1   0   6    1.84    0.17
  -1   0   6    2.02    0.13
  -1   0   6    1.78    0.25
   0   0  -6  186.44    4.18
   0   0   6  194.78    4.39
   0   0   6  186.68    3.96
  -1   0  -6    3.50    0.30
   1   0   6    3.71    0.34
  -2   0  -6   76.45    1.85
   2   0   6   75.82    2.06
  -3   0  -6    0.19    0.10
   3   0   6    0.14    0.07
  -4   0  -6    3.84    0.27
  -4   0  -6    3.77    0.23
  -5   0  -6    0.13    0.11
  -5   0  -6    0.32    0.08
   5   0   6    0.42    0.07
  -6   0  -6    0.86    0.18
  -6   0  -6    1.16    0.18
   6   0   6    1.17    0.14
  -7   0  -6    0.32    0.16
  -7   0  -6    0.13    0.14
   7   0   6    0.10    0.05
  -8   0  -6    1.91    0.30
  -8   0  -6    2.15    0.30
   8   0   6    2.27    0.26
  -9   0  -6    0.98    0.21
  -9   0  -6    1.00    0.24
   9   0   6    1.76    0.23
   6  -1  -6    6.96    0.52
   6  -1  -6    7.23    0.65
  -6   1   6    7.47    0.50
  -6   1   6    7.99    0.52
   5  -1  -6    0.39    0.20
   5  -1  -6    0.58    0.12
  -5   1   6    0.61    0.13
  -5   1   6    0.26    0.12
  -5   1   6    0.61    0.16
   4  -1  -6    1.84    0.23
   4  -1  -6    1.95    0.32
  -4   1   6    2.25    0.19
  -4   1   6    2.24    0.24
  -4   1   6    2.36    0.24
  -4   1   6    2.54    0.31
   3  -1  -6    1.80    0.21
   3  -1  -6    1.30    0.24
   3  -1  -6    1.41    0.13
  -3   1   6    1.35    0.20
  -3   1   6    1.35    0.16
  -3   1   6    1.12    0.22
  -3   1   6    1.26    0.15
   2  -1  -6    2.74    0.31
   2  -1  -6    2.60    0.23
  -2   1   6    2.34    0.27
  -2   1   6    2.68    0.21
  -2   1   6    2.96    0.20
  -2   1   6    2.76    0.31
  -2   1   6    2.83    0.24
   1  -1  -6    0.58    0.15
   1  -1  -6    0.27    0.05
  -1   1   6    0.30    0.06
  -1   1   6    0.44    0.06
  -1   1   6    0.19    0.11
  -1   1   6    0.34    0.12
   0  -1  -6   78.13    1.92
   0   1   6   76.13    1.80
   0   1   6   78.44    2.14
  -1  -1  -6   -0.04    0.07
   1   1   6    0.07    0.08
  -2  -1  -6   45.63    1.17
   2   1   6   45.29    1.40
  -3  -1  -6    2.38    0.16
  -3  -1  -6    1.76    0.18
   3   1   6    1.88    0.22
  -4  -1  -6  123.89    2.62
  -4  -1  -6  117.88    2.57
   4   1   6  114.29    2.46
  -5  -1  -6    0.33    0.12
  -5  -1  -6    0.18    0.10
   5   1   6    0.28    0.05
  -6  -1  -6   22.10    0.79
  -6  -1  -6   20.82    0.76
  -6  -1  -6   22.37    0.78
   6   1   6   20.37    0.73
  -7  -1  -6    2.03    0.25
  -7  -1  -6    1.40    0.24
  -7  -1  -6    1.58    0.18
   7   1   6    2.21    0.23
  -8  -1  -6   25.29    0.88
  -8  -1  -6   27.52    1.01
  -8  -1  -6   25.76    1.03
   8   1   6   24.94    0.99
  -9  -1  -6    0.24    0.19
  -9  -1  -6    0.25    0.16
  -9  -1  -6    0.48    0.16
   9   1   6    0.70    0.15
   6  -2  -6    8.17    0.59
  -6   2   6    9.06    0.58
  -6   2   6    8.44    0.54
   5  -2  -6    1.92    0.24
  -5   2   6    1.52    0.17
  -5   2   6    1.85    0.24
  -5   2   6    1.58    0.22
  -5   2   6    1.71    0.22
   4  -2  -6   81.08    2.92
   4  -2  -6   75.59    1.91
  -4   2   6   75.10    2.07
  -4   2   6   76.27    1.95
  -4   2   6   77.35    1.83
  -4   2   6   74.14    1.96
   3  -2  -6    5.48    0.32
   3  -2  -6    4.84    0.42
  -3   2   6    5.52    0.33
  -3   2   6    5.08    0.42
  -3   2   6    6.61    0.40
  -3   2   6    5.39    0.33
  -3   2   6    6.25    0.36
   2  -2  -6    4.81    0.38
   2  -2  -6    4.01    0.26
  -2   2   6    4.59    0.28
  -2   2   6    4.85    0.40
  -2   2   6    4.42    0.29
  -2   2   6    4.50    0.31
  -2   2   6    4.86    0.28
   1  -2  -6    6.06    0.29
   1  -2  -6    5.52    0.35
  -1   2   6    6.62    0.30
  -1   2   6    6.80    0.35
  -1   2   6    5.49    0.44
  -1   2   6    6.21    0.34
   0  -2  -6  147.73    3.17
   0  -2  -6  142.86    3.06
   0   2   6  155.33    3.52
   0   2   6  143.59    3.16
   0   2   6  143.86    3.02
  -1  -2  -6    7.97    0.31
  -1  -2  -6    5.93    0.30
   1   2   6    7.95    0.38
   1   2   6    6.83    0.46
  -2  -2  -6  119.61    2.51
  -2  -2  -6  118.19    2.51
  -3  -2  -6    0.84    0.11
  -3  -2  -6    1.33    0.14
   3   2   6    1.37    0.10
  -4  -2  -6    2.09    0.18
  -4  -2  -6    2.56    0.19
   4   2   6    2.28    0.14
  -5  -2  -6    0.08    0.09
  -5  -2  -6   -0.02    0.08
   5   2   6    0.09    0.04
  -6  -2  -6   24.24    0.84
  -6  -2  -6   26.06    0.86
   6   2   6   23.74    0.80
  -7  -2  -6    0.21    0.14
  -7  -2  -6    0.32    0.15
   7   2   6    0.33    0.08
  -8  -2  -6    1.91    0.27
  -8  -2  -6    2.62    0.30
   8   2   6    2.04    0.22
  -9  -2  -6    0.94    0.24
  -9  -2  -6    1.01    0.19
   9   2   6    1.29    0.17
   6  -3  -6    0.14    0.07
  -6   3   6    0.06    0.08
  -6   3   6    0.05    0.09
  -6   3   6    0.26    0.13
   5  -3  -6    0.13    0.10
  -5   3   6    0.03    0.06
  -5   3   6    0.22    0.11
  -5   3   6    0.19    0.10
   4  -3  -6   36.06    1.13
  -4   3   6   36.83    1.27
  -4   3   6   36.76    1.06
  -4   3   6   37.20    1.20
   3  -3  -6    0.34    0.13
  -3   3   6    0.51    0.13
  -3   3   6    0.22    0.08
  -3   3   6    0.54    0.14
   2  -3  -6   66.90    1.65
  -2   3   6   68.17    1.95
  -2   3   6   66.36    1.68
  -2   3   6   66.78    1.66
  -2   3   6   67.44    1.77
   1  -3  -6    3.68    0.25
  -1   3   6    4.82    0.31
  -1   3   6    3.94    0.27
  -1   3   6    4.35    0.26
  -1   3   6    3.17    0.31
   0  -3  -6    0.90    0.12
   0   3   6    1.01    0.18
   0   3   6    0.95    0.11
   0   3   6    0.97    0.15
  -1  -3  -6    3.75    0.23
   1   3   6    3.52    0.19
   1   3   6    3.55    0.26
  -2  -3  -6  342.05    6.80
  -2  -3  -6  335.74    6.69
   2   3   6  342.50    6.91
   2   3   6  339.83    6.72
  -3  -3  -6    7.72    0.35
   3   3   6    8.64    0.32
  -4  -3  -6  196.83    4.07
  -4  -3  -6  199.72    4.11
   4   3   6  195.13    4.04
  -5  -3  -6    0.96    0.14
  -5  -3  -6    1.17    0.17
   5   3   6    1.33    0.14
  -6  -3  -6   50.03    1.38
  -6  -3  -6   49.37    1.38
   6   3   6   49.14    1.34
  -7  -3  -6    0.98    0.21
  -7  -3  -6    0.71    0.15
   7   3   6    0.83    0.15
  -8  -3  -6    1.35    0.24
  -8  -3  -6    2.04    0.25
   8   3   6    1.68    0.23
  -9  -3  -6    1.52    0.26
  -9  -3  -6    1.23    0.20
   9   3   6    1.43    0.21
   5  -4  -6    5.11    0.39
  -5   4   6    4.90    0.44
  -5   4   6    4.76    0.39
  -5   4   6    4.36    0.30
   4  -4  -6    7.17    0.45
  -4   4   6    7.80    0.42
  -4   4   6    7.23    0.47
  -4   4   6    7.52    0.51
   3  -4  -6    1.74    0.22
  -3   4   6    1.59    0.20
  -3   4   6    1.93    0.24
  -3   4   6    1.10    0.19
  -3   4   6    1.66    0.20
   2  -4  -6    8.49    0.44
  -2   4   6    9.54    0.57
  -2   4   6    9.08    0.51
  -2   4   6    8.66    0.45
  -2   4   6    8.95    0.44
   1  -4  -6    0.04    0.07
  -1   4   6    0.04    0.08
  -1   4   6   -0.04    0.05
  -1   4   6    0.03    0.09
  -1   4   6    0.02    0.04
   0  -4  -6   57.09    1.42
   0   4   6   55.55    1.39
   0   4   6   57.49    1.46
  -1  -4  -6    0.08    0.09
   1   4   6    0.12    0.06
   1   4   6    0.18    0.11
  -2  -4  -6   13.62    0.50
   2   4   6   13.47    0.46
   2   4   6   13.06    0.53
  -3  -4  -6    0.02    0.08
   3   4   6    0.02    0.08
   3   4   6   -0.02    0.07
  -4  -4  -6   26.31    0.78
  -4  -4  -6   28.79    0.84
   4   4   6   28.18    0.80
  -5  -4  -6    0.26    0.10
  -5  -4  -6    0.30    0.14
   5   4   6    0.39    0.10
  -6  -4  -6   42.18    1.23
  -6  -4  -6   42.47    1.24
   6   4   6   41.16    1.20
  -7  -4  -6    0.01    0.12
  -7  -4  -6    0.04    0.09
   7   4   6   -0.03    0.06
  -8  -4  -6   34.59    1.21
  -8  -4  -6   32.34    1.19
   8   4   6   34.26    1.18
  -9  -4  -6    0.50    0.12
  -9  -4  -6    0.94    0.17
   9   4   6    0.70    0.14
   5  -5  -6    6.39    0.45
  -5   5   6    6.28    0.49
  -5   5   6    6.59    0.39
  -5   5   6    7.43    0.55
   4  -5  -6    5.82    0.42
  -4   5   6    6.20    0.37
  -4   5   6    5.46    0.47
  -4   5   6    5.58    0.43
   3  -5  -6   11.69    0.58
  -3   5   6   11.14    0.59
  -3   5   6   10.56    0.51
  -3   5   6   13.04    0.67
   2  -5  -6  214.29    4.60
  -2   5   6  219.66    4.56
  -2   5   6  213.56    4.65
  -2   5   6  207.96    4.74
   1  -5  -6   13.65    0.59
  -1   5   6   16.67    0.70
  -1   5   6   13.78    0.59
  -1   5   6   12.74    0.56
   0  -5  -6   65.88    1.63
   0   5   6   63.52    1.62
   0   5   6   65.47    1.64
  -1  -5  -6    0.89    0.18
   1   5   6    0.76    0.16
   1   5   6    0.96    0.12
   2   5   6    0.85    0.15
   2   5   6    0.12    0.07
  -3  -5  -6    0.66    0.16
   3   5   6    0.54    0.12
   3   5   6    0.92    0.16
  -4  -5  -6    9.60    0.45
   4   5   6    9.48    0.44
   4   5   6    9.88    0.45
  -5  -5  -6    0.06    0.12
   5   5   6    0.12    0.09
   5   5   6    0.02    0.09
  -6  -5  -6    4.34    0.33
   6   5   6    4.60    0.33
  -7  -5  -6    0.67    0.16
  -7  -5  -6    0.54    0.18
   7   5   6    0.67    0.16
  -8  -5  -6    3.47    0.36
  -8  -5  -6    3.41    0.32
   8   5   6    3.91    0.34
   5  -6  -6    1.44    0.23
  -5   6   6    0.99    0.15
  -5   6   6    0.87    0.20
  -5   6   6    0.79    0.17
   4  -6  -6    0.87    0.25
  -4   6   6    0.45    0.15
  -4   6   6    0.31    0.16
  -4   6   6    0.43    0.16
   3  -6  -6   -0.03    0.12
  -3   6   6    0.02    0.10
  -3   6   6   -0.11    0.11
  -3   6   6    0.07    0.10
   2  -6  -6   41.27    1.25
  -2   6   6   41.46    1.19
  -2   6   6   39.99    1.34
  -2   6   6   41.51    1.30
   1  -6  -6    1.90    0.26
  -1   6   6    1.32    0.19
  -1   6   6    1.22    0.19
   0  -6  -6  153.59    3.46
   0   6   6  159.30    3.46
   0   6   6  157.74    3.50
  -1  -6  -6    5.80    0.38
   1   6   6    6.22    0.36
   1   6   6    5.56    0.35
  -2  -6  -6   65.69    1.66
   2   6   6   66.75    1.67
   2   6   6   66.22    1.66
  -3  -6  -6    0.27    0.15
   3   6   6    0.42    0.15
   3   6   6    0.19    0.10
  -4  -6  -6  110.78    2.53
   4   6   6  108.93    2.48
   4   6   6  107.35    2.54
  -5  -6  -6    0.40    0.15
   5   6   6    0.37    0.18
  -6  -6  -6    0.37    0.18
   6   6   6    0.63    0.17
  -7  -6  -6    0.12    0.11
   7   6   6    0.14    0.09
  -8  -6  -6    1.53    0.27
   8   6   6    1.87    0.22
   4  -7  -6    2.41    0.30
  -4   7   6    2.40    0.24
  -4   7   6    2.19    0.32
  -4   7   6    2.64    0.34
   3  -7  -6    0.15    0.14
  -3   7   6    0.20    0.15
  -3   7   6    0.23    0.11
  -3   7   6    0.26    0.12
   2  -7  -6    5.81    0.43
  -2   7   6    5.80    0.36
  -2   7   6    5.01    0.44
  -2   7   6    5.41    0.42
   1  -7  -6    0.74    0.23
  -1   7   6    0.35    0.15
  -1   7   6    0.39    0.15
   0  -7  -6   33.38    1.07
   0   7   6   34.03    1.03
   0   7   6   34.34    1.12
  -1  -7  -6   -0.01    0.12
   1   7   6   -0.03    0.07
   1   7   6   -0.06    0.06
  -2  -7  -6   16.16    0.66
   2   7   6   15.96    0.66
   2   7   6   16.62    0.63
  -3  -7  -6    0.03    0.11
   3   7   6    0.15    0.12
   3   7   6    0.11    0.11
  -4  -7  -6    1.22    0.21
   4   7   6    1.01    0.24
  -5  -7  -6    0.84    0.19
   5   7   6    0.61    0.21
  -6  -7  -6   20.91    0.83
   6   7   6   21.98    0.88
  -7  -7  -6    0.60    0.16
   7   7   6    0.82    0.17
   3  -8  -6    1.41    0.23
  -3   8   6    1.47    0.23
  -3   8   6    1.16    0.25
  -3   8   6    1.33    0.16
   2  -8  -6    0.16    0.16
  -2   8   6   -0.03    0.07
  -2   8   6    0.13    0.10
   1  -8  -6    0.08    0.13
  -1   8   6    0.10    0.10
  -1   8   6    0.00    0.07
   0  -8  -6    2.12    0.30
   0   8   6    2.28    0.27
   0   8   6    1.97    0.20
  -1  -8  -6    0.49    0.19
   1   8   6    0.27    0.10
   1   8   6    0.27    0.13
  -2  -8  -6    4.30    0.36
   2   8   6    4.27    0.35
  -3  -8  -6    0.32    0.17
   3   8   6    0.44    0.18
  -4  -8  -6    4.05    0.34
   4   8   6    3.84    0.37
   5   8   6    0.31    0.20
  -6  -8  -6    0.29    0.11
   6   8   6    0.07    0.16
   1  -9  -6   -0.08    0.15
  -1   9   6    0.10    0.08
  -1   9   6    0.01    0.04
   0  -9  -6   18.36    0.79
   0   9   6   17.71    0.68
   0   9   6   18.04    0.84
  -1  -9  -6    0.75    0.20
   1   9   6    0.91    0.19
  -2  -9  -6    3.32    0.32
   2   9   6    3.63    0.34
  -3  -9  -6    0.24    0.13
   3   9   6    0.24    0.15
  -4  -9  -6    0.21    0.11
   4   9   6    0.21    0.16
  -1   6  -7    0.06    0.15
   1  -6   7    0.34    0.17
  -2   6  -7   -0.06    0.08
   2  -6   7   -0.21    0.09
  -3   6  -7    2.55    0.31
  -4   6  -7    0.27    0.15
   1   5  -7   -0.18    0.10
  -1  -5   7   -0.11    0.11
   0   5  -7    0.77    0.28
   0  -5   7    0.24    0.18
  -1   5  -7    7.37    0.59
   1  -5   7    6.92    0.58
  -2   5  -7    0.32    0.19
   2  -5   7    0.33    0.18
  -3   5  -7    5.67    0.48
  -4   5  -7    0.12    0.12
  -5   5  -7    5.59    0.44
  -6   5  -7    0.23    0.14
   2   4  -7    0.66    0.27
  -2  -4   7    0.33    0.20
   1   4  -7    2.13    0.37
  -1  -4   7    1.77    0.33
   0   4  -7    0.21    0.20
   0  -4   7    0.27    0.21
  -1   4  -7    0.51    0.25
   1  -4   7    0.66    0.26
  -2   4  -7    0.19    0.16
   2  -4   7    0.02    0.12
  -3   4  -7    4.39    0.41
   3  -4   7    4.18    0.38
  -4   4  -7    0.35    0.17
  -5   4  -7    0.64    0.21
  -6   4  -7    0.20    0.12
  -7   4  -7    1.04    0.20
   3   3  -7    6.90    0.65
  -3  -3   7    5.24    0.56
   2   3  -7    0.71    0.27
  -2  -3   7    0.64    0.28
   1   3  -7    0.34    0.25
  -1  -3   7    0.43    0.24
   0   3  -7    0.05    0.16
   0  -3   7    0.24    0.21
  -1   3  -7    8.78    0.62
   1  -3   7    9.27    0.64
  -2   3  -7    0.31    0.18
   2  -3   7    0.10    0.09
  -3   3  -7    5.69    0.45
   3  -3   7    5.15    0.44
  -4   3  -7    0.13    0.13
  -5   3  -7   18.02    0.78
  -6   3  -7    1.15    0.22
  -7   3  -7    7.02    0.49
  -8   3  -7    0.18    0.11
   4   2  -7    1.79    0.35
  -4  -2   7    1.68    0.30
  -4  -2   7    2.16    0.31
   3   2  -7   50.05    1.89
  -3  -2   7   50.39    1.57
  -3  -2   7   49.76    1.82
   2   2  -7    3.51    0.44
  -2  -2   7    2.94    0.39
   1   2  -7    3.93    0.46
  -1  -2   7    3.64    0.42
   0   2  -7    0.47    0.24
   0  -2   7    0.38    0.21
  -1   2  -7    2.54    0.35
   1  -2   7    2.39    0.35
  -2   2  -7    0.17    0.15
   2  -2   7    0.06    0.12
  -3   2  -7   32.35    1.10
   3  -2   7   31.12    1.19
  -4   2  -7    1.75    0.26
  -5   2  -7   10.05    0.54
  -6   2  -7    0.45    0.19
  -7   2  -7    0.84    0.21
  -8   2  -7    0.24    0.16
  -8   2  -7    0.37    0.16
   4   1  -7    0.19    0.16
  -4  -1   7   -0.07    0.08
  -4  -1   7    0.00    0.12
   3   1  -7    3.48    0.43
  -3  -1   7    3.23    0.35
  -3  -1   7    2.61    0.35
   2   1  -7    1.22    0.32
  -2  -1   7    1.04    0.24
   1   1  -7  158.99    3.84
  -1  -1   7  155.34    3.94
  -1  -1   7  157.26    3.38
   0   1  -7    7.55    0.55
   0  -1   7    6.43    0.36
   0  -1   7    8.11    0.60
  -1   1  -7  100.73    2.55
   1  -1   7  100.84    2.74
  -2   1  -7    2.51    0.29
   2  -1   7    2.89    0.32
  -3   1  -7   39.99    1.21
   3  -1   7   39.68    1.37
  -4   1  -7    0.07    0.13
   4  -1   7    0.15    0.09
  -5   1  -7   18.66    0.74
  -6   1  -7    6.33    0.39
  -6   1  -7    4.63    0.39
  -7   1  -7   58.80    1.65
  -7   1  -7   57.95    1.69
  -8   1  -7    1.91    0.24
  -8   1  -7    1.93    0.26
  -9   1  -7    8.73    0.60
  -9   1  -7    9.64    0.59
   5   0  -7    8.83    0.71
  -5   0   7    8.98    0.66
  -5   0   7    9.10    0.57
   4   0  -7    0.24    0.16
  -4   0   7    0.22    0.14
  -4   0   7    0.36    0.17
   3   0  -7    6.18    0.56
  -3   0   7    6.26    0.44
  -3   0   7    6.57    0.55
   2   0  -7    0.20    0.17
  -2   0   7    0.31    0.16
  -2   0   7    0.37    0.09
  -2   0   7    0.32    0.17
   1   0  -7    1.07    0.24
  -1   0   7    0.62    0.23
  -1   0   7    0.46    0.12
   0   0  -7   -0.16    0.09
   0   0   7    0.05    0.11
   0   0   7   -0.07    0.06
  -1   0  -7    4.59    0.37
   1   0   7    4.21    0.40
  -2   0  -7    1.56    0.22
   2   0   7    1.91    0.28
  -3   0  -7   79.05    1.95
   3   0   7   81.47    2.23
  -4   0  -7    2.95    0.27
   4   0   7    3.30    0.32
  -5   0  -7  110.83    2.56
  -5   0  -7  106.15    2.50
   5   0   7  113.77    2.79
  -6   0  -7    0.36    0.17
  -6   0  -7    0.71    0.14
  -7   0  -7   34.70    1.13
  -7   0  -7   33.44    1.15
  -8   0  -7    1.97    0.28
  -8   0  -7    2.40    0.30
  -9   0  -7    0.83    0.19
  -9   0  -7    1.07    0.20
  -5   1   7   46.11    1.49
   4  -1  -7    0.97    0.21
  -4   1   7    0.67    0.17
  -4   1   7    0.56    0.22
   3  -1  -7    6.65    0.54
  -3   1   7    6.73    0.54
  -3   1   7    6.73    0.42
  -3   1   7    6.66    0.36
   2  -1  -7    0.13    0.13
  -2   1   7    0.06    0.08
  -2   1   7    0.02    0.10
  -2   1   7    0.09    0.05
  -2   1   7   -0.08    0.08
   1  -1  -7   18.02    0.79
  -1   1   7   17.51    0.62
  -1   1   7   19.20    0.92
  -1   1   7   18.18    0.65
   0  -1  -7    0.09    0.11
   0   1   7    0.08    0.12
   0   1   7    0.02    0.08
  -1  -1  -7   28.04    0.90
   1   1   7   27.79    1.11
   1   1   7   26.60    0.86
  -2  -1  -7    0.34    0.06
  -2  -1  -7    0.22    0.10
   2   1   7    0.22    0.14
  -3  -1  -7    7.09    0.30
  -3  -1  -7    7.05    0.36
   3   1   7    7.25    0.49
  -4  -1  -7    0.66    0.10
  -4  -1  -7    0.37    0.13
   4   1   7    0.51    0.17
  -5  -1  -7    4.96    0.32
  -5  -1  -7    4.99    0.31
   5   1   7    5.51    0.40
  -6  -1  -7    4.83    0.34
  -6  -1  -7    3.52    0.32
  -7  -1  -7    5.03    0.39
  -7  -1  -7    5.12    0.38
  -8  -1  -7    1.79    0.26
  -8  -1  -7    1.36    0.25
  -9  -1  -7   13.43    0.77
  -9  -1  -7   14.33    0.75
  -5   2   7    2.77    0.26
  -5   2   7    2.52    0.32
  -4   2   7    0.09    0.10
  -4   2   7    0.26    0.09
  -4   2   7    0.40    0.10
  -4   2   7    0.17    0.08
   3  -2  -7   20.61    0.72
  -3   2   7   20.55    0.82
  -3   2   7   20.61    0.75
  -3   2   7   21.83    1.02
  -3   2   7   20.78    0.78
  -3   2   7   20.49    0.72
   2  -2  -7    0.24    0.09
  -2   2   7    0.25    0.15
  -2   2   7    0.33    0.12
  -2   2   7    0.32    0.14
  -2   2   7    0.19    0.11
   1  -2  -7    1.45    0.15
   1  -2  -7    1.25    0.20
  -1   2   7    1.39    0.19
  -1   2   7    1.15    0.22
   0  -2  -7    0.06    0.05
   0  -2  -7    0.03    0.06
   0   2   7    0.01    0.08
   0   2   7   -0.05    0.06
  -1  -2  -7   76.42    1.73
  -1  -2  -7   76.82    1.81
   1   2   7   79.04    2.19
   1   2   7   76.52    1.86
  -2  -2  -7    0.33    0.08
  -2  -2  -7    0.33    0.09
   2   2   7    0.16    0.12
  -3  -2  -7    2.80    0.20
  -3  -2  -7    2.59    0.18
   3   2   7    2.60    0.29
  -4  -2  -7    0.06    0.07
  -4  -2  -7   -0.03    0.05
  -5  -2  -7    8.46    0.41
  -5  -2  -7    8.63    0.42
  -6  -2  -7    0.13    0.11
  -6  -2  -7    0.22    0.13
  -7  -2  -7    3.90    0.35
  -7  -2  -7    4.01    0.33
  -8  -2  -7    3.43    0.33
  -8  -2  -7    3.67    0.36
  -9  -2  -7    0.70    0.19
  -9  -2  -7    0.71    0.15
   5  -3  -7    8.42    0.48
  -5   3   7    8.84    0.44
  -5   3   7    8.52    0.52
  -5   3   7    7.75    0.53
   4  -3  -7    0.64    0.13
  -4   3   7    0.74    0.14
  -4   3   7    0.83    0.17
  -4   3   7    0.63    0.14
   3  -3  -7    0.54    0.17
  -3   3   7    0.64    0.18
  -3   3   7    0.87    0.25
  -3   3   7    0.47    0.11
  -3   3   7    0.35    0.14
   2  -3  -7    0.52    0.14
  -2   3   7    0.59    0.13
  -2   3   7    0.44    0.10
  -2   3   7    0.61    0.16
  -2   3   7    0.80    0.16
   1  -3  -7    4.60    0.28
  -1   3   7    4.30    0.31
  -1   3   7    4.41    0.27
  -1   3   7    4.63    0.32
  -1   3   7    4.23    0.40
   0  -3  -7    0.81    0.14
   0   3   7    0.63    0.08
   0   3   7    0.42    0.17
   0   3   7    0.51    0.13
  -1  -3  -7   23.03    0.69
   1   3   7   22.97    0.78
   1   3   7   22.76    0.95
  -2  -3  -7   -0.05    0.06
   2   3   7    0.13    0.11
  -3  -3  -7    2.30    0.19
  -3  -3  -7    2.11    0.16
  -4  -3  -7   -0.01    0.06
  -4  -3  -7    0.15    0.10
  -5  -3  -7    0.31    0.10
  -5  -3  -7    0.24    0.12
   5   3   7    0.49    0.08
  -6  -3  -7    1.28    0.21
  -6  -3  -7    0.71    0.15
   6   3   7    1.18    0.14
  -7  -3  -7    9.91    0.55
  -7  -3  -7   10.74    0.55
   7   3   7   10.28    0.50
  -8  -3  -7    0.23    0.11
  -8  -3  -7    0.29    0.17
   8   3   7    0.63    0.12
  -9  -3  -7    2.63    0.28
  -9  -3  -7    2.45    0.31
   9   3   7    2.84    0.28
   5  -4  -7    7.57    0.48
  -5   4   7    8.24    0.43
  -5   4   7    7.39    0.54
  -5   4   7    7.75    0.52
   4  -4  -7    2.55    0.27
  -4   4   7    2.91    0.29
  -4   4   7    2.62    0.25
  -4   4   7    3.07    0.31
   3  -4  -7   27.02    0.93
  -3   4   7   26.54    0.89
  -3   4   7   27.32    0.97
  -3   4   7   27.13    1.04
   2  -4  -7    0.54    0.16
  -2   4   7    0.47    0.16
  -2   4   7    0.26    0.12
  -2   4   7    0.50    0.10
  -2   4   7    0.24    0.13
   1  -4  -7   -0.05    0.10
  -1   4   7    0.20    0.12
  -1   4   7   -0.06    0.04
  -1   4   7    0.03    0.07
  -1   4   7    0.02    0.09
   0  -4  -7    0.66    0.15
   0   4   7    0.65    0.16
   0   4   7    0.71    0.10
   0   4   7    0.54    0.18
  -1  -4  -7   65.83    1.59
   1   4   7   65.33    1.66
   1   4   7   64.48    1.53
  -2  -4  -7    2.45    0.22
   2   4   7    2.29    0.23
   2   4   7    2.38    0.16
  -3  -4  -7    2.54    0.23
   3   4   7    2.38    0.24
   3   4   7    2.41    0.17
  -4  -4  -7    0.11    0.12
   4   4   7    0.13    0.10
  -5  -4  -7   34.37    1.02
   5   4   7   34.15    0.96
  -6  -4  -7    0.08    0.09
  -6  -4  -7    0.22    0.14
   6   4   7    0.20    0.08
  -7  -4  -7    0.57    0.19
  -7  -4  -7    0.62    0.18
   7   4   7    0.72    0.12
  -8  -4  -7    2.32    0.30
  -8  -4  -7    2.19    0.26
   8   4   7    2.96    0.27
  -9  -4  -7    1.68    0.22
  -9  -4  -7    1.28    0.23
   9   4   7    1.50    0.20
   4  -5  -7    6.35    0.45
  -4   5   7    7.45    0.53
  -4   5   7    6.50    0.46
  -4   5   7    6.58    0.39
   3  -5  -7  110.70    2.69
  -3   5   7  110.80    2.87
  -3   5   7  112.36    2.63
  -3   5   7  113.79    2.78
   2  -5  -7   12.14    0.57
  -2   5   7   12.06    0.58
  -2   5   7    9.53    0.63
  -2   5   7   10.68    0.53
  -2   5   7   13.18    0.66
   1  -5  -7   14.46    0.62
  -1   5   7   15.18    0.77
  -1   5   7   14.62    0.60
  -1   5   7   13.10    0.60
   0  -5  -7    2.02    0.25
   0   5   7    1.92    0.19
   0   5   7    1.58    0.22
  -1  -5  -7   36.79    1.05
   1   5   7   35.75    1.09
   1   5   7   34.94    1.01
  -2  -5  -7    0.40    0.16
   2   5   7    0.47    0.15
   2   5   7    0.42    0.09
  -3  -5  -7  103.58    2.36
   3   5   7  101.87    2.30
   3   5   7  102.91    2.42
  -4  -5  -7    2.71    0.27
   4   5   7    2.49    0.25
   4   5   7    2.88    0.26
  -5  -5  -7   19.37    0.73
   5   5   7   20.63    0.76
   5   5   7   20.35    0.72
  -6  -5  -7    0.36    0.18
   6   5   7    0.25    0.10
  -7  -5  -7   53.19    1.56
   7   5   7   52.48    1.48
  -8  -5  -7    0.14    0.15
   4  -6  -7    0.86    0.23
  -4   6   7    1.09    0.23
  -4   6   7    0.88    0.15
  -4   6   7    0.94    0.20
   3  -6  -7   -0.04    0.12
  -3   6   7    0.11    0.08
  -3   6   7    0.13    0.10
  -3   6   7   -0.10    0.06
   2  -6  -7    2.18    0.29
  -2   6   7    2.31    0.24
  -2   6   7    1.85    0.22
  -2   6   7    2.37    0.30
   1  -6  -7   47.18    1.38
  -1   6   7   47.34    1.41
  -1   6   7   48.99    1.61
  -1   6   7   48.38    1.37
   0  -6  -7    7.64    0.46
   0   6   7    7.65    0.43
   0   6   7    7.11    0.42
  -1  -6  -7  122.65    2.81
   1   6   7  124.12    2.85
   1   6   7  121.53    2.81
  -2  -6  -7    6.98    0.44
   2   6   7    7.71    0.43
   2   6   7    8.37    0.41
  -3  -6  -7  211.90    4.55
   3   6   7  215.04    4.53
   3   6   7  215.05    4.59
  -4  -6  -7   -0.09    0.11
   4   6   7   -0.09    0.12
   4   6   7    0.05    0.08
  -5  -6  -7   12.33    0.57
   5   6   7   12.66    0.59
  -6  -6  -7    0.35    0.16
   6   6   7    0.17    0.12
  -7  -6  -7    4.32    0.37
   7   6   7    4.61    0.35
  -8  -6  -7    1.09    0.20
   8   6   7    1.50    0.20
   3  -7  -7    1.54    0.25
  -3   7   7    0.99    0.21
  -3   7   7    1.50    0.20
  -3   7   7    1.22    0.33
   2  -7  -7    0.33    0.20
  -2   7   7    0.81    0.15
  -2   7   7    0.61    0.15
   1  -7  -7    6.09    0.44
  -1   7   7    5.83    0.43
  -1   7   7    5.97    0.39
   0  -7  -7    1.00    0.24
   0   7   7    0.95    0.18
   0   7   7    0.96    0.17
  -1  -7  -7    1.31    0.24
   1   7   7    1.20    0.19
   1   7   7    1.42    0.19
  -2  -7  -7    1.50    0.25
   2   7   7    1.61    0.19
   2   7   7    1.48    0.21
  -3  -7  -7   41.41    1.24
   3   7   7   42.36    1.23
   3   7   7   42.50    1.24
  -4  -7  -7    3.30    0.31
   4   7   7    3.93    0.33
  -5  -7  -7   38.74    1.20
   5   7   7   39.01    1.24
  -6  -7  -7    0.26    0.16
   6   7   7    0.06    0.13
  -7  -7  -7   74.79    2.07
   7   7   7   77.50    2.09
   2  -8  -7    4.21    0.40
  -2   8   7    3.81    0.30
  -2   8   7    3.83    0.36
   1  -8  -7   63.47    1.79
  -1   8   7   63.62    1.70
  -1   8   7   62.15    1.85
   0  -8  -7    2.11    0.30
   0   8   7    2.04    0.22
   0   8   7    2.17    0.26
  -1  -8  -7    0.48    0.20
   1   8   7    0.52    0.17
   1   8   7    0.43    0.16
  -2  -8  -7    0.38    0.19
   2   8   7    0.16    0.10
   2   8   7    0.03    0.07
  -3  -8  -7   -0.03    0.13
   3   8   7    0.02    0.08
  -4  -8  -7    1.03    0.21
   4   8   7    1.14    0.21
  -5  -8  -7   40.55    1.28
   5   8   7   41.20    1.34
  -6  -8  -7    0.97    0.21
   6   8   7    0.95    0.29
   0  -9  -7    4.31    0.40
   0   9   7    4.18    0.30
   0   9   7    4.72    0.40
  -1  -9  -7   84.77    2.22
   1   9   7   86.28    2.32
   1   9   7   84.14    2.11
  -2  -9  -7    2.44    0.30
   2   9   7    2.45    0.28
  -3  -9  -7   29.43    1.05
   3   9   7   30.13    1.10
  -4  -9  -7    0.71    0.19
   4   9   7    0.37    0.16
  -1   5  -8    1.73    0.29
   1  -5   8    2.44    0.37
  -2   5  -8   30.22    1.26
   2  -5   8   29.83    1.31
  -3   5  -8    0.60    0.17
  -4   5  -8    3.43    0.36
   1   4  -8    0.19    0.12
  -1  -4   8    0.11    0.18
   0   4  -8    0.77    0.28
   0  -4   8    0.46    0.27
  -1   4  -8    1.72    0.34
   1  -4   8    2.01    0.35
  -2   4  -8   43.31    1.52
   2  -4   8   41.00    1.57
  -3   4  -8    3.08    0.37
   3  -4   8    3.93    0.40
  -4   4  -8   29.97    1.16
  -5   4  -8    1.27    0.22
  -6   4  -8   14.01    0.73
  -2  -3   8   29.95    1.42
   1   3  -8    1.22    0.28
  -1  -3   8    1.07    0.27
   0   3  -8    1.38    0.32
   0  -3   8    1.59    0.31
  -1   3  -8    0.31    0.22
   1  -3   8    0.29    0.18
  -2   3  -8    6.31    0.52
   2  -3   8    6.46    0.56
  -3   3  -8    0.19    0.17
   3  -3   8    0.14    0.14
  -4   3  -8   49.70    1.54
   4  -3   8   46.90    1.69
  -5   3  -8    2.52    0.31
  -6   3  -8   48.93    1.54
  -7   3  -8    0.23    0.13
   3   2  -8    7.41    0.65
  -3  -2   8    7.00    0.66
   2   2  -8   35.08    1.49
  -2  -2   8   34.76    1.50
   1   2  -8    4.82    0.52
  -1  -2   8    4.81    0.51
   0   2  -8   25.12    1.12
   0  -2   8   24.80    1.21
  -1   2  -8    4.24    0.45
   1  -2   8    5.26    0.53
  -2   2  -8   36.94    1.30
   2  -2   8   37.49    1.45
  -3   2  -8    3.27    0.36
   3  -2   8    3.97    0.41
  -4   2  -8   43.95    1.37
   4  -2   8   41.83    1.50
  -5   2  -8    0.58    0.21
  -6   2  -8    0.76    0.23
  -7   2  -8    0.09    0.10
  -8   2  -8    7.98    0.52
   3   1  -8   -0.11    0.11
  -3  -1   8    0.06    0.14
   2   1  -8    5.61    0.51
  -2  -1   8    5.34    0.54
   1   1  -8    3.64    0.44
  -1  -1   8    3.32    0.42
   0   1  -8  137.36    3.39
   0  -1   8  134.80    3.57
   0  -1   8  131.26    2.99
  -1   1  -8    6.07    0.49
   1  -1   8    6.52    0.56
  -2   1  -8   44.74    1.39
   2  -1   8   42.38    1.57
  -3   1  -8    3.06    0.32
   3  -1   8    3.45    0.40
  -4   1  -8  105.49    2.56
   4  -1   8  103.26    2.79
  -5   1  -8    4.18    0.36
   5  -1   8    4.42    0.40
  -6   1  -8   21.21    0.84
  -7   1  -8    0.53    0.20
  -8   1  -8    1.60    0.26
   4   0  -8   11.30    0.79
  -4   0   8   11.13    0.64
  -4   0   8   11.23    0.77
   3   0  -8    7.30    0.59
  -3   0   8    6.83    0.60
   2   0  -8   26.32    1.15
  -2   0   8   26.59    1.23
  -2   0   8   24.39    0.90
   1   0  -8    5.18    0.47
  -1   0   8    5.01    0.51
  -1   0   8    6.28    0.35
   0   0  -8  142.98    3.47
   0   0   8  146.96    3.77
   0   0   8  143.04    3.20
  -1   0  -8    0.73    0.23
   1   0   8    0.52    0.17
   1   0   8    0.30    0.19
  -2   0  -8   15.91    0.69
   2   0   8   16.06    0.86
  -3   0  -8    0.02    0.10
   3   0   8    0.02    0.11
  -4   0  -8    4.55    0.34
   4   0   8    4.46    0.41
  -5   0  -8    0.06    0.11
   5   0   8    0.16    0.11
  -6   0  -8  165.21    3.64
  -6   0  -8  154.92    3.57
  -7   0  -8    0.84    0.20
  -7   0  -8    1.41    0.19
  -8   0  -8   55.99    1.65
  -8   0  -8   52.32    1.67
  -9   0  -8    0.04    0.09
  -9   0  -8   -0.04    0.09
  -4   1   8    0.84    0.27
  -4   1   8    0.47    0.19
  -3   1   8    0.16    0.08
  -3   1   8    0.10    0.14
  -3   1   8    0.01    0.11
   2  -1  -8    4.75    0.44
  -2   1   8    5.28    0.34
  -2   1   8    4.67    0.49
   1  -1  -8    1.13    0.22
  -1   1   8    0.90    0.24
  -1   1   8    1.63    0.20
   0  -1  -8    0.25    0.16
   0   1   8    0.03    0.13
   0   1   8    0.08    0.11
  -1  -1  -8    1.92    0.25
   1   1   8    2.17    0.23
   1   1   8    2.11    0.32
  -2  -1  -8   34.92    1.06
   2   1   8   33.57    1.31
  -3  -1  -8    0.23    0.11
   3   1   8    0.22    0.13
  -4  -1  -8    8.33    0.43
  -4  -1  -8    8.91    0.38
   4   1   8    8.44    0.58
  -5  -1  -8    1.36    0.20
  -5  -1  -8    1.99    0.19
   5   1   8    1.52    0.24
  -6  -1  -8   61.49    1.62
  -6  -1  -8   58.85    1.61
   6   1   8   61.79    1.86
  -7  -1  -8    1.62    0.24
  -7  -1  -8    2.33    0.27
  -8  -1  -8    6.77    0.48
  -8  -1  -8    7.01    0.48
  -9  -1  -8    0.28    0.16
  -9  -1  -8    0.21    0.12
  -4   2   8    3.57    0.39
  -4   2   8    4.02    0.28
  -3   2   8    0.29    0.18
  -3   2   8    0.16    0.10
  -2   2   8    5.08    0.34
  -2   2   8    5.72    0.53
  -1   2   8    0.06    0.09
  -1   2   8    0.07    0.11
   0  -2  -8    6.57    0.33
   0   2   8    7.33    0.41
   0   2   8    7.06    0.56
  -1  -2  -8   -0.08    0.06
  -1  -2  -8    0.00    0.06
   1   2   8   -0.13    0.08
   1   2   8   -0.04    0.08
  -2  -2  -8   31.19    0.84
  -2  -2  -8   30.00    0.90
   2   2   8   31.89    1.25
   2   2   8   30.66    0.99
  -3  -2  -8    0.17    0.08
  -3  -2  -8    0.28    0.11
   3   2   8    0.33    0.17
  -4  -2  -8    5.74    0.32
  -4  -2  -8    5.55    0.30
   4   2   8    5.40    0.45
  -5  -2  -8    1.94    0.21
  -5  -2  -8    1.69    0.21
  -6  -2  -8    0.32    0.14
  -6  -2  -8    0.12    0.08
  -7  -2  -8    0.15    0.14
  -7  -2  -8    0.04    0.13
  -8  -2  -8   11.96    0.66
  -8  -2  -8   13.01    0.65
  -9  -2  -8    0.56    0.14
  -9  -2  -8    0.48    0.17
  -4   3   8    3.26    0.26
  -4   3   8    2.82    0.30
   3  -3  -8    0.13    0.09
  -3   3   8    0.13    0.13
  -3   3   8    0.33    0.14
  -3   3   8    0.22    0.12
   2  -3  -8    8.06    0.42
  -2   3   8    8.23    0.61
  -2   3   8    8.55    0.46
  -2   3   8    8.18    0.48
   1  -3  -8    1.30    0.18
  -1   3   8    1.19    0.24
  -1   3   8    1.42    0.22
   0  -3  -8    0.09    0.09
   0   3   8    0.08    0.11
   0   3   8   -0.01    0.09
  -1  -3  -8    1.60    0.17
   1   3   8    1.39    0.24
   1   3   8    1.42    0.20
  -2  -3  -8   81.71    1.87
   2   3   8   80.22    2.01
   2   3   8   82.34    2.33
  -3  -3  -8    0.40    0.11
  -4  -3  -8   33.47    0.96
  -5  -3  -8    0.11    0.12
  -5  -3  -8    0.13    0.09
  -6  -3  -8   13.69    0.59
  -6  -3  -8   14.17    0.62
  -7  -3  -8    4.95    0.35
  -7  -3  -8    5.23    0.40
  -8  -3  -8    0.76    0.17
  -8  -3  -8    1.11    0.24
  -9  -3  -8    0.46    0.11
  -9  -3  -8    0.51    0.19
   4  -4  -8    3.76    0.33
  -4   4   8    4.31    0.39
  -4   4   8    4.10    0.31
   3  -4  -8    0.78    0.17
  -3   4   8    0.41    0.16
  -3   4   8    0.58    0.15
  -3   4   8    0.98    0.18
   2  -4  -8   10.86    0.53
  -2   4   8   12.43    0.76
  -2   4   8   10.76    0.59
  -2   4   8   11.29    0.55
   1  -4  -8    1.05    0.17
  -1   4   8    0.78    0.19
  -1   4   8    0.75    0.17
   0  -4  -8    5.44    0.35
   0   4   8    5.31    0.48
   0   4   8    5.55    0.38
  -1  -4  -8    0.36    0.14
   1   4   8    0.30    0.15
   1   4   8    0.34    0.17
  -2  -4  -8    5.84    0.34
   2   4   8    5.33    0.37
  -3  -4  -8    0.32    0.14
   3   4   8    0.36    0.16
  -4  -4  -8   42.44    1.16
   4   4   8   41.11    1.25
  -5  -4  -8    0.12    0.11
  -6  -4  -8    4.98    0.37
  -7  -4  -8    0.19    0.15
  -8  -4  -8   27.87    1.08
  -8  -4  -8   29.43    1.11
   4  -5  -8    7.57    0.49
  -4   5   8    7.24    0.43
  -4   5   8    7.21    0.54
   3  -5  -8    2.70    0.31
  -3   5   8    3.34    0.34
  -3   5   8    3.00    0.27
   2  -5  -8   27.26    0.96
  -2   5   8   28.54    1.21
  -2   5   8   27.79    0.96
  -2   5   8   27.35    1.07
   1  -5  -8    5.54    0.39
  -1   5   8    5.36    0.39
  -1   5   8    4.36    0.44
   0  -5  -8   15.83    0.64
   0   5   8   15.32    0.83
   0   5   8   14.82    0.66
  -1  -5  -8    4.02    0.32
   1   5   8    4.32    0.34
  -2  -5  -8   31.68    0.97
   2   5   8   30.85    1.02
  -3  -5  -8    4.11    0.32
   3   5   8    3.88    0.32
  -4  -5  -8    4.57    0.34
   4   5   8    4.75    0.35
  -5  -5  -8   -0.08    0.12
   5   5   8   -0.04    0.10
  -6  -5  -8    4.60    0.36
  -7  -5  -8    3.58    0.35
  -8  -5  -8    4.05    0.37
   3  -6  -8    0.34    0.18
  -3   6   8    0.66    0.22
  -3   6   8    0.31    0.11
  -3   6   8    0.68    0.19
   2  -6  -8   11.23    0.61
  -2   6   8   11.77    0.57
  -2   6   8   12.01    0.62
  -2   6   8   12.85    0.89
   1  -6  -8   -0.01    0.14
  -1   6   8    0.04    0.06
  -1   6   8   -0.06    0.07
  -1   6   8   -0.06    0.07
   0  -6  -8   16.10    0.70
   0   6   8   16.22    0.67
   0   6   8   15.97    0.69
  -1  -6  -8    1.81    0.26
   1   6   8    1.90    0.19
   1   6   8    1.54    0.24
  -2  -6  -8   36.76    1.12
   2   6   8   36.09    1.15
   2   6   8   36.50    1.07
  -3  -6  -8    3.66    0.33
   3   6   8    3.65    0.32
   3   6   8    4.38    0.29
  -4  -6  -8  190.83    4.20
   4   6   8  196.56    4.16
   4   6   8  194.48    4.26
  -5  -6  -8    3.57    0.33
   5   6   8    3.72    0.33
   5   6   8    3.49    0.30
  -6  -6  -8    0.72    0.21
   6   6   8    0.65    0.21
  -7  -6  -8    0.03    0.14
   7   6   8    0.04    0.08
   2  -7  -8    3.22    0.35
  -2   7   8    3.65    0.30
  -2   7   8    3.17    0.30
   1  -7  -8    1.22    0.26
  -1   7   8    1.21    0.23
  -1   7   8    1.34    0.18
  -1   7   8    1.49    0.21
   0  -7  -8   21.36    0.85
   0   7   8   21.20    0.82
   0   7   8   21.44    0.84
  -1  -7  -8    1.83    0.27
   1   7   8    1.87    0.23
   1   7   8    2.25    0.23
  -2  -7  -8    9.36    0.54
   2   7   8    9.90    0.50
   2   7   8    9.15    0.50
  -3  -7  -8    2.30    0.28
   3   7   8    2.31    0.25
   3   7   8    2.55    0.24
  -4  -7  -8    2.60    0.29
   4   7   8    2.91    0.27
   4   7   8    2.77    0.27
  -5  -7  -8    0.10    0.14
   5   7   8   -0.04    0.14
  -6  -7  -8  103.90    2.63
   6   7   8  110.83    2.66
  -7  -7  -8    0.13    0.11
   1  -8  -8    2.58    0.33
  -1   8   8    2.46    0.23
  -1   8   8    2.64    0.30
   0  -8  -8    3.43    0.37
   0   8   8    3.68    0.33
   0   8   8    3.67    0.31
  -1  -8  -8    0.29    0.18
   1   8   8    0.55    0.15
   1   8   8    0.14    0.09
  -2  -8  -8    0.56    0.22
   2   8   8    0.57    0.14
   2   8   8    0.52    0.13
  -3  -8  -8   -0.17    0.12
   3   8   8    0.05    0.08
   3   8   8    0.00    0.04
  -4  -8  -8    0.42    0.16
   4   8   8    0.38    0.15
  -5  -8  -8    3.20    0.34
   5   8   8    2.97    0.33
  -1  -9  -8    1.73    0.26
   1   9   8    1.56    0.23
   1   9   8    1.47    0.18
  -2  -9  -8   45.04    1.41
   2   9   8   44.32    1.45
  -3  -9  -8    0.09    0.14
   3   9   8    0.03    0.08
  -1   4  -9    1.46    0.26
   1  -4   9    1.13    0.28
  -2   4  -9    0.75    0.18
   2  -4   9    0.94    0.23
  -3   4  -9   45.29    1.58
   3  -4   9   42.55    1.63
  -4   4  -9    0.55    0.15
  -5   4  -9    0.18    0.13
   0   3  -9   -0.08    0.12
   0  -3   9    0.20    0.17
  -1   3  -9   28.39    1.23
   1  -3   9   27.27    1.32
  -2   3  -9    1.61    0.27
   2  -3   9    1.77    0.32
  -3   3  -9   10.15    0.64
   3  -3   9    9.72    0.71
  -4   3  -9    0.10    0.10
   4  -3   9    0.05    0.12
  -5   3  -9    1.24    0.22
  -6   3  -9    0.17    0.12
   1   2  -9    6.83    0.57
  -1  -2   9    6.05    0.61
   0   2  -9    2.30    0.37
   0  -2   9    2.36    0.40
  -1   2  -9   49.42    1.68
   1  -2   9   47.39    1.82
  -2   2  -9    0.19    0.17
   2  -2   9    0.30    0.18
  -3   2  -9   18.49    0.87
   3  -2   9   19.35    1.01
  -4   2  -9    1.42    0.27
   4  -2   9    1.14    0.23
  -5   2  -9    2.19    0.29
  -6   2  -9   -0.09    0.05
  -7   2  -9    2.11    0.28
   2   1  -9    0.51    0.22
  -2  -1   9    0.45    0.26
   1   1  -9   29.51    1.27
  -1  -1   9   26.74    1.33
   0   1  -9    4.00    0.44
   0  -1   9    3.67    0.30
   0  -1   9    3.33    0.45
  -1   1  -9   16.62    0.85
   1  -1   9   16.47    0.98
   1  -1   9   17.58    0.71
  -2   1  -9    7.53    0.54
   2  -1   9    7.23    0.64
  -3   1  -9  150.83    3.55
   3  -1   9  148.31    3.87
  -4   1  -9    0.63    0.22
   4  -1   9    0.92    0.22
  -5   1  -9    2.80    0.29
   5  -1   9    2.32    0.30
  -6   1  -9    1.23    0.24
  -7   1  -9    0.69    0.22
  -8   1  -9    0.14    0.08
   3   0  -9   14.41    0.87
  -3   0   9   14.15    0.93
   2   0  -9    1.60    0.28
  -2   0   9    1.42    0.27
   1   0  -9    0.04    0.15
  -1   0   9    0.01    0.12
  -1   0   9    0.12    0.07
   0   0  -9    0.11    0.12
   0   0   9    0.29    0.20
   0   0   9    0.41    0.14
  -1   0  -9   10.69    0.62
   1   0   9   10.20    0.52
   1   0   9    9.62    0.73
  -2   0  -9    0.06    0.14
   2   0   9    0.16    0.17
  -3   0  -9   44.26    1.34
   3   0   9   42.29    1.61
  -4   0  -9    8.16    0.48
   4   0   9    7.98    0.62
  -5   0  -9  235.85    5.07
   5   0   9  230.37    5.44
  -6   0  -9    1.16    0.21
  -7   0  -9   51.08    1.54
  -8   0  -9    0.46    0.17
  -3   1   9    6.46    0.59
  -2   1   9    2.93    0.41
  -2   1   9    4.07    0.30
  -1   1   9   27.65    1.31
  -1   1   9   26.52    0.91
   0  -1  -9    1.85    0.28
   0   1   9    1.78    0.31
   0   1   9    2.19    0.24
  -1  -1  -9   11.87    0.60
   1   1   9   12.28    0.58
   1   1   9   11.72    0.78
  -2  -1  -9    1.03    0.19
   2   1   9    1.38    0.29
  -3  -1  -9  111.89    2.60
   3   1   9  107.11    3.01
  -4  -1  -9    0.75    0.18
   4   1   9    1.16    0.24
  -5  -1  -9    0.30    0.14
   5   1   9    0.19    0.13
  -6  -1  -9    4.62    0.33
  -6  -1  -9    3.76    0.35
   6   1   9    3.02    0.36
  -7  -1  -9   16.87    0.74
  -7  -1  -9   16.82    0.73
  -8  -1  -9    0.09    0.09
  -8  -1  -9    0.21    0.12
  -3   2   9    9.54    0.48
  -3   2   9    9.26    0.71
  -2   2   9    5.18    0.36
  -2   2   9    4.45    0.49
  -1   2   9   79.17    2.03
  -1   2   9   80.71    2.50
   0   2   9   12.86    0.59
   0   2   9   10.42    0.75
   1   2   9  159.25    3.56
   1   2   9  156.82    4.05
   2   2   9    3.39    0.41
   2   2   9    3.00    0.30
  -3  -2  -9    0.02    0.09
  -3  -2  -9    0.20    0.08
   3   2   9    0.17    0.14
  -4  -2  -9    2.18    0.20
  -4  -2  -9    1.53    0.20
   4   2   9    2.20    0.33
  -5  -2  -9   78.34    1.97
  -5  -2  -9   86.11    2.04
   5   2   9   83.22    2.43
  -6  -2  -9    0.17    0.11
  -6  -2  -9    0.23    0.12
   6   2   9    0.11    0.13
  -7  -2  -9    2.51    0.28
  -7  -2  -9    2.71    0.27
   7   2   9    2.09    0.39
  -8  -2  -9    2.20    0.28
  -8  -2  -9    2.71    0.32
  -3   3   9   20.64    0.80
  -3   3   9   21.78    1.12
  -2   3   9    5.95    0.38
  -2   3   9    4.69    0.48
  -1   3   9   41.06    1.25
  -1   3   9   40.77    1.61
   0  -3  -9    0.22    0.10
   0   3   9    0.09    0.12
   0   3   9    0.08    0.11
  -1  -3  -9   13.03    0.51
   1   3   9   12.57    0.80
   1   3   9   12.47    0.60
  -2  -3  -9    5.20    0.31
   2   3   9    5.63    0.39
   2   3   9    3.70    0.43
  -3  -3  -9   54.14    1.38
   3   3   9   55.19    1.57
   3   3   9   56.29    1.87
  -4  -3  -9    0.97    0.16
   4   3   9    0.59    0.25
  -5  -3  -9   28.73    0.90
  -6  -3  -9    4.22    0.34
  -7  -3  -9  104.42    2.64
  -7  -3  -9  111.64    2.65
  -8  -3  -9    0.39    0.17
   3  -4  -9    0.47    0.16
  -3   4   9    0.73    0.31
  -3   4   9    0.42    0.16
  -3   4   9    0.89    0.14
   2  -4  -9    1.45    0.21
  -2   4   9    1.67    0.26
  -2   4   9    1.71    0.21
   1  -4  -9    8.17    0.46
  -1   4   9    8.34    0.49
  -1   4   9    8.74    0.67
   0  -4  -9    6.15    0.38
   0   4   9    6.03    0.55
   0   4   9    7.04    0.45
  -1  -4  -9   83.71    1.99
   1   4   9   80.00    2.10
   1   4   9   85.24    2.54
  -2  -4  -9    2.23    0.22
   2   4   9    1.53    0.30
   2   4   9    2.11    0.27
  -3  -4  -9    1.87    0.21
   3   4   9    1.68    0.24
  -4  -4  -9    0.59    0.17
   4   4   9    0.28    0.16
  -5  -4  -9   17.41    0.68
  -6  -4  -9    0.31    0.15
  -7  -4  -9    0.76    0.20
  -8  -4  -9    2.95    0.33
   3  -5  -9    0.08    0.12
  -3   5   9   -0.12    0.06
  -3   5   9    0.08    0.08
   2  -5  -9    0.90    0.21
  -2   5   9    0.78    0.16
  -2   5   9    0.89    0.19
   1  -5  -9    1.89    0.25
  -1   5   9    1.85    0.24
  -1   5   9    1.48    0.26
   0  -5  -9   -0.03    0.12
   0   5   9   -0.05    0.08
   0   5   9    0.05    0.11
  -1  -5  -9    2.96    0.29
   1   5   9    2.85    0.30
   1   5   9    3.55    0.41
  -2  -5  -9    3.79    0.32
   2   5   9    3.80    0.34
  -3  -5  -9   95.55    2.25
   3   5   9   92.81    2.35
  -4  -5  -9    0.60    0.19
   4   5   9    0.58    0.18
  -5  -5  -9    3.05    0.31
   5   5   9    3.12    0.29
  -6  -5  -9    0.25    0.15
  -7  -5  -9   37.29    1.24
  -8  -5  -9    0.85    0.21
   2  -6  -9    0.04    0.11
  -2   6   9    0.02    0.09
   1  -6  -9    1.91    0.27
  -1   6   9    1.65    0.28
  -1   6   9    1.84    0.23
   0  -6  -9    2.54    0.30
   0   6   9    2.36    0.28
   0   6   9    2.17    0.32
  -1  -6  -9   50.95    1.45
   1   6   9   52.49    1.53
  -2  -6  -9    3.62    0.34
   2   6   9    3.77    0.34
  -3  -6  -9   27.95    0.95
   3   6   9   27.35    0.99
  -4  -6  -9    0.31    0.17
   4   6   9    0.34    0.14
  -5  -6  -9    3.48    0.33
   5   6   9    3.60    0.31
  -6  -6  -9    0.34    0.19
   6   6   9    0.12    0.06
  -7  -6  -9    2.53    0.30
   1  -7  -9    2.10    0.30
  -1   7   9    2.33    0.26
  -1   7   9    2.15    0.32
   0  -7  -9   -0.09    0.15
   0   7   9    0.03    0.09
   0   7   9    0.17    0.11
  -1  -7  -9    5.45    0.42
   1   7   9    5.49    0.41
  -2  -7  -9    0.35    0.20
   2   7   9    0.33    0.13
  -3  -7  -9   15.66    0.70
   3   7   9   15.15    0.70
  -4  -7  -9    1.68    0.26
   4   7   9    1.72    0.22
  -5  -7  -9    7.75    0.49
   0  -8  -9    1.26    0.27
   0   8   9    1.73    0.20
  -1  -8  -9    1.53    0.26
   1   8   9    1.98    0.23
  -2  -8  -9    0.80    0.23
   2   8   9    0.86    0.14
  -3  -8  -9    0.35    0.20
   3   8   9    0.68    0.13
  -4  -8  -9    0.33    0.17
  -5  -8  -9   20.60    0.85
  -2   3 -10    2.76    0.35
   2  -3  10    2.88    0.41
  -3   3 -10    0.23    0.14
   3  -3  10    0.03    0.14
  -4   3 -10   20.66    0.95
   4  -3  10   19.12    1.05
   0   2 -10   11.34    0.78
   0  -2  10   11.03    0.86
  -1   2 -10    0.80    0.17
   1  -2  10    0.38    0.23
  -2   2 -10    1.76    0.27
   2  -2  10    1.35    0.31
  -3   2 -10    1.34    0.23
   3  -2  10    1.49    0.30
  -4   2 -10   22.04    0.95
   4  -2  10   20.10    1.08
  -5   2 -10    0.01    0.12
  -6   2 -10   10.60    0.63
   1   1 -10   -0.01    0.08
  -1  -1  10   -0.06    0.09
   0   1 -10   24.62    1.13
   0  -1  10   24.02    1.28
  -1   1 -10    1.79    0.31
   1  -1  10    1.47    0.33
   1  -1  10    1.79    0.22
  -2   1 -10    0.03    0.09
   2  -1  10   -0.03    0.17
  -3   1 -10    0.26    0.14
   3  -1  10    0.42    0.25
  -4   1 -10   15.36    0.75
   4  -1  10   14.37    0.90
  -5   1 -10    2.65    0.30
   5  -1  10    2.54    0.35
  -6   1 -10   17.21    0.80
  -7   1 -10    0.00    0.10
   1   0 -10    5.22    0.46
  -1   0  10    5.36    0.59
   0   0 -10   95.54    2.65
   0   0  10   94.71    2.35
  -1   0 -10    1.15    0.23
   1   0  10    1.11    0.29
   1   0  10    1.56    0.23
  -2   0 -10   15.72    0.76
   2   0  10   15.41    0.95
  -3   0 -10   -0.10    0.09
   3   0  10    0.19    0.14
  -4   0 -10    1.69    0.25
   4   0  10    1.64    0.29
  -5   0 -10   -0.04    0.07
   5   0  10    0.02    0.09
  -6   0 -10   62.05    1.77
  -7   0 -10    1.70    0.23
  -2   1  10   10.23    0.80
  -1   1  10    0.35    0.13
  -1   1  10    0.23    0.18
   0   1  10    3.26    0.30
   0   1  10    2.77    0.40
   1   1  10    5.96    0.41
   1   1  10    5.17    0.55
  -2  -1 -10   67.38    1.84
   2   1  10   67.19    1.84
   2   1  10   65.99    2.26
  -3  -1 -10    1.26    0.20
   3   1  10    1.33    0.32
  -4  -1 -10    2.15    0.23
   4   1  10    2.46    0.37
  -5  -1 -10    1.81    0.24
   5   1  10    1.95    0.29
  -6  -1 -10   48.45    1.43
   6   1  10   46.68    1.73
  -7  -1 -10    0.59    0.19
  -8  -1 -10    9.22    0.54
  -2   2  10    5.00    0.36
  -2   2  10    4.81    0.53
  -1   2  10    0.42    0.15
  -1   2  10    0.13    0.10
   0   2  10    0.67    0.21
   0   2  10    0.23    0.16
   1   2  10    1.07    0.20
   1   2  10    0.88    0.24
   2   2  10   38.99    1.24
   2   2  10   37.79    1.58
   3   2  10    3.75    0.47
   3   2  10    3.29    0.32
   4   2  10    4.74    0.51
  -5  -2 -10    0.18    0.11
   5   2  10    0.15    0.14
  -6  -2 -10    0.47    0.15
  -6  -2 -10    0.60    0.13
   6   2  10    0.58    0.22
  -7  -2 -10    0.94    0.19
  -7  -2 -10    0.76    0.15
   7   2  10    0.81    0.20
  -8  -2 -10   11.57    0.61
  -8  -2 -10   11.28    0.63
  -2   3  10   11.94    0.59
  -2   3  10   12.29    0.85
  -1   3  10    1.80    0.30
  -1   3  10    2.13    0.24
   0   3  10    3.87    0.34
   0   3  10    3.51    0.46
   1   3  10    0.63    0.23
   1   3  10    1.35    0.22
   2   3  10   15.23    0.70
   2   3  10   15.38    0.94
  -3  -3 -10    0.68    0.12
   3   3  10    0.34    0.16
   3   3  10    0.17    0.21
  -4  -3 -10  136.73    3.07
   4   3  10  140.99    3.74
  -5  -3 -10    3.08    0.28
   5   3  10    2.95    0.39
  -6  -3 -10   24.40    0.88
   6   3  10   24.94    1.19
  -7  -3 -10    0.88    0.19
  -8  -3 -10   10.17    0.60
  -2   4  10    0.30    0.14
  -2   4  10    0.36    0.18
  -1   4  10    0.42    0.14
  -1   4  10    0.34    0.15
   0  -4 -10    0.78    0.19
   0   4  10    0.57    0.24
   0   4  10    1.10    0.21
  -1  -4 -10    0.12    0.12
   1   4  10    0.24    0.20
   1   4  10    0.13    0.13
  -2  -4 -10    4.17    0.31
   2   4  10    3.38    0.45
   2   4  10    3.48    0.33
  -3  -4 -10    3.44    0.29
   3   4  10    3.20    0.32
   3   4  10    2.58    0.40
  -4  -4 -10   78.91    1.95
   4   4  10   78.78    2.48
   4   4  10   80.85    2.13
  -5  -4 -10    0.04    0.09
  -6  -4 -10   17.50    0.73
  -7  -4 -10    0.16    0.12
   1  -5 -10    0.41    0.18
  -1   5  10    0.27    0.17
  -1   5  10    0.41    0.14
   0  -5 -10    5.63    0.39
   0   5  10    5.67    0.56
   0   5  10    5.76    0.41
  -1  -5 -10    0.11    0.12
   1   5  10   -0.01    0.11
   1   5  10    0.14    0.18
  -2  -5 -10    1.67    0.22
   2   5  10    1.66    0.24
   2   5  10    1.56    0.31
  -3  -5 -10    0.46    0.16
   3   5  10    0.67    0.20
  -4  -5 -10    1.30    0.22
   4   5  10    1.44    0.23
  -5  -5 -10    1.04    0.20
   5   5  10    0.76    0.16
  -6  -5 -10   18.69    0.77
  -7  -5 -10    0.87    0.19
   1  -6 -10    0.12    0.13
  -1   6  10    0.29    0.11
  -1   6  10    0.36    0.17
   0  -6 -10    1.15    0.22
   0   6  10    1.21    0.26
   0   6  10    1.25    0.19
  -1  -6 -10    0.82    0.21
   1   6  10    1.06    0.19
   1   6  10    0.63    0.17
  -2  -6 -10    3.77    0.35
   2   6  10    4.27    0.38
  -3  -6 -10    0.14    0.15
  -4  -6 -10    9.99    0.53
   4   6  10    9.87    0.55
  -5  -6 -10    0.88    0.22
   5   6  10    0.93    0.17
  -6  -6 -10    8.33    0.50
   6   6  10    8.35    0.51
   0  -7 -10    0.91    0.26
   0   7  10    0.98    0.32
   0   7  10    0.91    0.17
  -1  -7 -10    0.50    0.18
   1   7  10    0.84    0.14
   1   7  10    0.26    0.14
  -2  -7 -10   11.18    0.60
   2   7  10   11.40    0.62
  -3  -7 -10    3.74    0.35
   3   7  10    3.28    0.33
  -4  -7 -10   17.57    0.75
   4   7  10   17.70    0.78
  -5  -7 -10    0.14    0.14
   5   7  10    0.05    0.06
  -2   1 -11    0.12    0.10
   2  -1  11    0.07    0.07
   2  -1  11    0.14    0.16
  -3   1 -11   13.88    0.74
   3  -1  11   12.78    0.91
  -4   1 -11    0.11    0.07
   4  -1  11    0.01    0.11
  -5   1 -11    1.71    0.23
   5  -1  11    1.45    0.27
  -1   0 -11    0.59    0.15
   1   0  11    0.30    0.23
   1   0  11    0.59    0.13
   2   0  11    0.19    0.16
   2   0  11    0.31    0.12
  -3   0 -11    0.17    0.08
   3   0  11    0.30    0.21
  -4   0 -11    0.85    0.16
   4   0  11    0.64    0.24
  -5   0 -11   15.06    0.72
   5   0  11   14.50    0.92
  -6   0 -11    0.07    0.08
   0   1  11    0.67    0.14
   0   1  11    0.54    0.23
   1   1  11    3.14    0.46
   1   1  11    3.58    0.31
   2   1  11    0.28    0.12
   2   1  11    0.66    0.31
   3   1  11   29.09    1.42
  -4  -1 -11    1.65    0.21
   4   1  11    1.60    0.34
  -5  -1 -11    5.95    0.42
   5   1  11    5.98    0.60
  -6  -1 -11   -0.12    0.06
   6   1  11    0.12    0.12
  -7  -1 -11    1.76    0.23
   0   2  11    2.67    0.28
   0   2  11    2.53    0.41
   1   2  11   26.65    0.99
   1   2  11   25.98    1.35
   2   2  11    1.70    0.24
   2   2  11    1.05    0.28
   3   2  11    5.58    0.44
   3   2  11    5.00    0.56
   4   2  11    0.34    0.20
   5   2  11   14.03    0.92
   6   2  11    0.44    0.22
   7   2  11    0.24    0.11
   0   3  11    3.08    0.31
   0   3  11    3.21    0.45
   1   3  11    0.63    0.28
   1   3  11    0.69    0.14
   2   3  11    0.83    0.31
   2   3  11    1.13    0.20
   3   3  11   38.26    1.28
   3   3  11   38.15    1.64
   4   3  11    0.84    0.20
   4   3  11    0.63    0.27
   5   3  11   19.16    1.11
  -6  -3 -11    2.39    0.24
   6   3  11    1.42    0.28
  -7  -3 -11   34.23    1.17
   7   3  11   36.17    1.56
   0   4  11    3.18    0.44
   0   4  11    3.58    0.33
   1   4  11   29.74    1.43
   1   4  11   30.20    1.10
   2   4  11    5.48    0.58
   2   4  11    6.23    0.44
  -3  -4 -11   23.78    0.82
   3   4  11   24.70    1.30
   3   4  11   25.54    0.99
  -4  -4 -11    0.61    0.14
   4   4  11    0.36    0.22
   4   4  11    0.59    0.20
  -5  -4 -11   11.68    0.55
   5   4  11   11.37    0.83
   5   4  11   12.17    0.66
  -6  -4 -11    0.78    0.16
   6   4  11    0.52    0.24
  -7  -4 -11    1.59    0.22
   0  -5 -11    0.26    0.12
   0   5  11    0.49    0.17
   0   5  11    0.17    0.12
  -1  -5 -11    3.01    0.30
   1   5  11    3.41    0.33
   1   5  11    2.87    0.41
  -2  -5 -11    1.40    0.21
   2   5  11    1.20    0.28
   2   5  11    1.55    0.22
  -3  -5 -11   14.72    0.64
   3   5  11   14.97    0.73
   3   5  11   13.48    0.93
  -4  -5 -11    1.27    0.21
   4   5  11    1.13    0.29
   4   5  11    1.17    0.21
  -5  -5 -11    0.36    0.13
   5   5  11    0.10    0.10
  -6  -5 -11    0.14    0.12
   6   5  11    0.19    0.12
  -1  -6 -11    0.14    0.13
   1   6  11    0.03    0.07
   1   6  11    0.02    0.12
  -2  -6 -11    0.02    0.09
   2   6  11    0.13    0.20
   2   6  11    0.18    0.11
  -3  -6 -11    1.30    0.21
   3   6  11    1.22    0.20
   3   6  11    1.62    0.34
  -4  -6 -11    1.23    0.21
   4   6  11    0.98    0.18
  -5  -6 -11   25.25    0.93
   3   1  12    0.12    0.21
   3   1  12    0.09    0.10
   4   1  12   -0.04    0.12
   2   2  12    1.59    0.23
   2   2  12    1.27    0.29
   3   2  12    0.25    0.22
   3   2  12   -0.02    0.09
   4   2  12    1.45    0.35
   4   2  12    1.60    0.24
   5   2  12   -0.17    0.09
   2   3  12    0.44    0.18
   2   3  12    0.60    0.28
   3   3  12    0.01    0.07
   3   3  12    0.07    0.15
   4   3  12   13.09    0.94
   4   3  12   13.02    0.70
   5   3  12    0.25    0.12
   5   3  12    0.56    0.22
   2   4  12   15.05    1.02
   2   4  12   15.34    0.75
   3   4  12    1.79    0.35
   3   4  12    2.28    0.27
   4   4  12   32.51    1.58
   4   4  12   30.56    1.17
   5   4  12    1.15    0.19
   5   4  12    1.13    0.29
   0   0   0    0.00    0.00
;
_shelx_hkl_checksum              95921
_olex2_submission_special_instructions 'No special instructions were received'
loop_
_space_group_symop_operation_xyz
'x, y, z'
'-x, -y, -z'
loop_
_atom_site_label
_atom_site_type_symbol
_atom_site_fract_x
_atom_site_fract_y
_atom_site_fract_z
_atom_site_U_iso_or_equiv
_atom_site_adp_type
_atom_site_occupancy
_atom_site_site_symmetry_order
_atom_site_calc_flag
_atom_site_refinement_flags_posn
_atom_site_refinement_flags_adp
_atom_site_refinement_flags_occupancy
_atom_site_disorder_assembly
_atom_site_disorder_group
O1 O -0.06428(15) 0.18302(14) 0.81716(11) 0.0211(3) Uani 1 1 d . . . . .
O2 O 0.27811(17) 0.30679(14) 0.83888(13) 0.0262(3) Uani 1 1 d . . . . .
O3 O 0.28603(16) 0.40522(14) 0.61053(12) 0.0237(3) Uani 1 1 d . . . . .
H3 H 0.259(3) 0.507(3) 0.634(2) 0.036 Uiso 1 1 d R . . . .
O4 O 0.54972(14) -0.18514(14) 0.68202(12) 0.0212(3) Uani 1 1 d . . . . .
O5 O 0.20282(15) -0.40408(14) 0.90282(12) 0.0226(3) Uani 1 1 d . . . . .
H5 H 0.227(3) -0.505(3) 0.876(2) 0.034 Uiso 1 1 d R . . . .
O6 O 0.19764(17) -0.31142(14) 0.67845(13) 0.0268(3) Uani 1 1 d . . . . .
C1 C -0.2217(2) 0.2777(2) 0.67827(19) 0.0245(4) Uani 1 1 d . . . . .
H1 H -0.308296 0.332696 0.643164 0.029 Uiso 1 1 calc R . . . .
C2 C -0.0862(2) 0.18026(19) 0.60923(18) 0.0200(4) Uani 1 1 d . . . . .
H2 H -0.065382 0.157942 0.519521 0.024 Uiso 1 1 calc R . . . .
C3 C 0.00618(19) 0.12624(18) 0.69598(16) 0.0157(3) Uani 1 1 d . . . . .
C4 C 0.16730(19) 0.03207(18) 0.68327(16) 0.0148(3) Uani 1 1 d . . . . .
H4 H 0.206507 -0.006196 0.593717 0.018 Uiso 1 1 calc R . . . .
C5 C 0.32793(19) 0.11799(18) 0.69232(16) 0.0153(3) Uani 1 1 d . . . . .
H5A H 0.436585 0.124567 0.604377 0.018 Uiso 1 1 calc R . . . .
C6 C 0.32826(19) -0.03249(18) 0.82244(16) 0.0148(3) Uani 1 1 d . . . . .
H6 H 0.293681 0.003287 0.912987 0.018 Uiso 1 1 calc R . . . .
C7 C 0.4895(2) -0.12827(18) 0.80293(16) 0.0160(3) Uani 1 1 d . . . . .
C8 C 0.5894(2) -0.1832(2) 0.88314(18) 0.0208(4) Uani 1 1 d . . . . .
H8 H 0.576176 -0.160667 0.971398 0.025 Uiso 1 1 calc R . . . .
C9 C 0.7193(2) -0.2818(2) 0.81003(19) 0.0259(4) Uani 1 1 d . . . . .
H9 H 0.808873 -0.337852 0.840399 0.031 Uiso 1 1 calc R . . . .
C10 C -0.2033(2) 0.2768(2) 0.80136(19) 0.0247(4) Uani 1 1 d . . . . .
H10 H -0.275857 0.332811 0.868572 0.030 Uiso 1 1 calc R . . . .
C11 C 0.16421(19) -0.11614(18) 0.81634(16) 0.0151(3) Uani 1 1 d . . . . .
H11 H 0.056405 -0.117753 0.903706 0.018 Uiso 1 1 calc R . . . .
C12 C 0.2952(2) 0.28527(19) 0.72276(17) 0.0182(4) Uani 1 1 d . . . . .
C13 C 0.6905(2) -0.2800(2) 0.69096(19) 0.0258(4) Uani 1 1 d . . . . .
H13 H 0.757717 -0.336261 0.621997 0.031 Uiso 1 1 calc R . . . .
C14 C 0.1897(2) -0.28621(19) 0.79112(17) 0.0175(4) Uani 1 1 d . . . . .
loop_
_atom_site_aniso_label
_atom_site_aniso_U_11
_atom_site_aniso_U_22
_atom_site_aniso_U_33
_atom_site_aniso_U_23
_atom_site_aniso_U_13
_atom_site_aniso_U_12
O1 0.0279(6) 0.0193(6) 0.0164(6) -0.0065(5) -0.0089(5) 0.0086(5)
O2 0.0481(8) 0.0134(6) 0.0316(7) -0.0096(5) -0.0294(6) 0.0082(5)
O3 0.0398(7) 0.0100(6) 0.0252(6) -0.0039(5) -0.0176(5) 0.0039(5)
O4 0.0280(6) 0.0185(6) 0.0171(6) -0.0064(5) -0.0084(5) 0.0076(5)
O5 0.0357(7) 0.0109(6) 0.0244(6) -0.0044(5) -0.0156(5) 0.0034(5)
O6 0.0484(8) 0.0133(6) 0.0343(7) -0.0106(5) -0.0308(6) 0.0089(5)
C1 0.0197(8) 0.0200(9) 0.0304(9) -0.0001(7) -0.0113(7) 0.0049(6)
C2 0.0231(8) 0.0175(8) 0.0219(8) -0.0042(7) -0.0120(7) 0.0006(6)
C3 0.0203(8) 0.0105(7) 0.0166(8) -0.0046(6) -0.0065(6) 0.0001(6)
C4 0.0208(8) 0.0114(7) 0.0151(8) -0.0050(6) -0.0090(6) 0.0014(6)
C5 0.0189(7) 0.0124(8) 0.0165(8) -0.0039(6) -0.0091(6) 0.0022(6)
C6 0.0205(8) 0.0113(7) 0.0157(7) -0.0053(6) -0.0094(6) 0.0020(6)
C7 0.0213(8) 0.0099(7) 0.0168(8) -0.0032(6) -0.0076(6) 0.0000(6)
C8 0.0229(8) 0.0178(8) 0.0241(9) -0.0035(7) -0.0129(7) -0.0002(6)
C9 0.0185(8) 0.0207(9) 0.0335(10) 0.0003(7) -0.0109(7) 0.0047(7)
C10 0.0217(8) 0.0174(8) 0.0258(9) -0.0039(7) -0.0013(7) 0.0079(6)
C11 0.0183(7) 0.0119(8) 0.0162(8) -0.0035(6) -0.0083(6) 0.0027(6)
C12 0.0206(8) 0.0137(8) 0.0250(9) -0.0057(7) -0.0136(7) 0.0010(6)
C13 0.0224(8) 0.0187(9) 0.0259(9) -0.0039(7) -0.0003(7) 0.0077(7)
C14 0.0194(8) 0.0134(8) 0.0243(8) -0.0048(6) -0.0135(6) 0.0003(6)
loop_
_atom_type_symbol
_atom_type_description
_atom_type_scat_dispersion_real
_atom_type_scat_dispersion_imag
_atom_type_scat_source
C C 0.0033 0.0016 'International Tables Vol C Tables 4.2.6.8 and 6.1.1.4'
H H 0.0000 0.0000 'International Tables Vol C Tables 4.2.6.8 and 6.1.1.4'
O O 0.0106 0.0060 'International Tables Vol C Tables 4.2.6.8 and 6.1.1.4'
loop_
_geom_angle_atom_site_label_1
_geom_angle_atom_site_label_2
_geom_angle_atom_site_label_3
_geom_angle
_geom_angle_site_symmetry_1
_geom_angle_site_symmetry_3
_geom_angle_publ_flag
C10 O1 C3 106.23(12) . . ?
C12 O3 H3 111.0(13) . . ?
C7 O4 C13 106.19(12) . . ?
C14 O5 H5 108.0(13) . . ?
C2 C1 H1 126.5 . . ?
C10 C1 H1 126.5 . . ?
C10 C1 C2 106.90(14) . . ?
C1 C2 H2 126.6 . . ?
C3 C2 C1 106.70(14) . . ?
C3 C2 H2 126.6 . . ?
O1 C3 C4 116.04(13) . . ?
C2 C3 O1 109.82(13) . . ?
C2 C3 C4 134.01(14) . . ?
C3 C4 H4 110.1 . . ?
C3 C4 C5 117.99(12) . . ?
C3 C4 C11 117.71(12) . . ?
C5 C4 H4 110.1 . . ?
C11 C4 H4 110.1 . . ?
C11 C4 C5 89.14(11) . . ?
C4 C5 H5A 111.2 . . ?
C6 C5 C4 90.86(11) . . ?
C6 C5 H5A 111.2 . . ?
C12 C5 C4 115.37(12) . . ?
C12 C5 H5A 111.2 . . ?
C12 C5 C6 115.63(12) . . ?
C5 C6 H6 110.4 . . ?
C5 C6 C11 89.18(11) . . ?
C7 C6 C5 117.32(12) . . ?
C7 C6 H6 110.4 . . ?
C7 C6 C11 117.40(12) . . ?
C11 C6 H6 110.4 . . ?
O4 C7 C6 115.85(13) . . ?
C8 C7 O4 109.88(13) . . ?
C8 C7 C6 134.13(14) . . ?
C7 C8 H8 126.6 . . ?
C7 C8 C9 106.75(15) . . ?
C9 C8 H8 126.6 . . ?
C8 C9 H9 126.6 . . ?
C13 C9 C8 106.76(15) . . ?
C13 C9 H9 126.6 . . ?
O1 C10 H10 124.8 . . ?
C1 C10 O1 110.34(14) . . ?
C1 C10 H10 124.8 . . ?
C4 C11 C6 90.79(11) . . ?
C4 C11 H11 111.1 . . ?
C6 C11 H11 111.1 . . ?
C14 C11 C4 115.64(12) . . ?
C14 C11 C6 115.73(12) . . ?
C14 C11 H11 111.1 . . ?
O2 C12 O3 123.98(14) . . ?
O2 C12 C5 123.61(14) . . ?
O3 C12 C5 112.40(13) . . ?
O4 C13 H13 124.8 . . ?
C9 C13 O4 110.41(14) . . ?
C9 C13 H13 124.8 . . ?
O5 C14 C11 112.92(13) . . ?
O6 C14 O5 123.86(14) . . ?
O6 C14 C11 123.22(14) . . ?
loop_
_geom_bond_atom_site_label_1
_geom_bond_atom_site_label_2
_geom_bond_distance
_geom_bond_site_symmetry_2
_geom_bond_publ_flag
O1 C3 1.3786(17) . ?
O1 C10 1.3772(19) . ?
O2 C12 1.2206(19) . ?
O3 H3 0.94(2) . ?
O3 C12 1.3166(19) . ?
O4 C7 1.3739(18) . ?
O4 C13 1.377(2) . ?
O5 H5 0.94(2) . ?
O5 C14 1.3159(19) . ?
O6 C14 1.2201(19) . ?
C1 H1 0.9500 . ?
C1 C2 1.430(2) . ?
C1 C10 1.334(3) . ?
C2 H2 0.9500 . ?
C2 C3 1.346(2) . ?
C3 C4 1.479(2) . ?
C4 H4 1.0000 . ?
C4 C5 1.582(2) . ?
C4 C11 1.552(2) . ?
C5 H5A 1.0000 . ?
C5 C6 1.551(2) . ?
C5 C12 1.503(2) . ?
C6 H6 1.0000 . ?
C6 C7 1.482(2) . ?
C6 C11 1.583(2) . ?
C7 C8 1.345(2) . ?
C8 H8 0.9500 . ?
C8 C9 1.428(2) . ?
C9 H9 0.9500 . ?
C9 C13 1.333(3) . ?
C10 H10 0.9500 . ?
C11 H11 1.0000 . ?
C11 C14 1.502(2) . ?
C13 H13 0.9500 . ?
loop_
_geom_hbond_atom_site_label_D
_geom_hbond_atom_site_label_H
_geom_hbond_atom_site_label_A
_geom_hbond_distance_DH
_geom_hbond_distance_HA
_geom_hbond_distance_DA
_geom_hbond_angle_DHA
_geom_hbond_site_symmetry_A
_geom_hbond_publ_flag
O3 H3 O6 0.94(2) 1.70(2) 2.6395(15) 177(2) 1_565 yes
O5 H5 O2 0.94(2) 1.72(2) 2.6570(15) 175(2) 1_545 yes
loop_
_geom_torsion_atom_site_label_1
_geom_torsion_atom_site_label_2
_geom_torsion_atom_site_label_3
_geom_torsion_atom_site_label_4
_geom_torsion
_geom_torsion_site_symmetry_1
_geom_torsion_site_symmetry_2
_geom_torsion_site_symmetry_3
_geom_torsion_site_symmetry_4
_geom_torsion_publ_flag
O1 C3 C4 C5 -53.85(18) . . . . ?
O1 C3 C4 C11 51.21(17) . . . . ?
O4 C7 C8 C9 -0.60(18) . . . . ?
C1 C2 C3 O1 0.50(18) . . . . ?
C1 C2 C3 C4 -174.91(16) . . . . ?
C2 C1 C10 O1 -0.48(19) . . . . ?
C2 C3 C4 C5 121.34(18) . . . . ?
C2 C3 C4 C11 -133.60(18) . . . . ?
C3 O1 C10 C1 0.78(18) . . . . ?
C3 C4 C5 C6 122.77(14) . . . . ?
C3 C4 C5 C12 3.70(19) . . . . ?
C3 C4 C11 C6 -122.97(13) . . . . ?
C3 C4 C11 C14 117.80(14) . . . . ?
C4 C5 C6 C7 119.22(13) . . . . ?
C4 C5 C6 C11 -1.50(9) . . . . ?
C4 C5 C12 O2 107.74(17) . . . . ?
C4 C5 C12 O3 -71.90(17) . . . . ?
C4 C11 C14 O5 173.82(12) . . . . ?
C4 C11 C14 O6 -6.0(2) . . . . ?
C5 C4 C11 C6 -1.49(9) . . . . ?
C5 C4 C11 C14 -120.72(13) . . . . ?
C5 C6 C7 O4 -52.58(17) . . . . ?
C5 C6 C7 C8 132.16(18) . . . . ?
C5 C6 C11 C4 1.53(10) . . . . ?
C5 C6 C11 C14 120.67(14) . . . . ?
C6 C5 C12 O2 3.5(2) . . . . ?
C6 C5 C12 O3 -176.13(12) . . . . ?
C6 C7 C8 C9 174.87(16) . . . . ?
C6 C11 C14 O5 69.45(17) . . . . ?
C6 C11 C14 O6 -110.37(17) . . . . ?
C7 O4 C13 C9 -0.63(18) . . . . ?
C7 C6 C11 C4 -119.11(14) . . . . ?
C7 C6 C11 C14 0.03(19) . . . . ?
C7 C8 C9 C13 0.20(19) . . . . ?
C8 C9 C13 O4 0.27(19) . . . . ?
C10 O1 C3 C2 -0.78(17) . . . . ?
C10 O1 C3 C4 175.54(13) . . . . ?
C10 C1 C2 C3 -0.01(19) . . . . ?
C11 C4 C5 C6 1.53(10) . . . . ?
C11 C4 C5 C12 -117.54(14) . . . . ?
C11 C6 C7 O4 51.88(18) . . . . ?
C11 C6 C7 C8 -123.38(18) . . . . ?
C12 C5 C6 C7 -121.94(14) . . . . ?
C12 C5 C6 C11 117.34(13) . . . . ?
C13 O4 C7 C6 -175.63(13) . . . . ?
C13 O4 C7 C8 0.76(17) . . . . ?
