#------------------------------------------------------------------------------
#$Date: 2020-10-04 06:14:16 +0300 (Sun, 04 Oct 2020) $
#$Revision: 257077 $
#$URL: file:///home/coder/svn-repositories/cod/cif/4/51/75/4517511.cif $
#------------------------------------------------------------------------------
#
# This file is available in the Crystallography Open Database (COD),
# http://www.crystallography.net/
#
# All data on this site have been placed in the public domain by the
# contributors.
#
data_4517511
loop_
_publ_author_name
'Song, Ning'
'Chen, Shao-Peng'
'Fan, Xiao-Wei'
'Tan, Yu-Hui'
'Wei, Wen-Juan'
'Tang, Yun-Zhi'
_publ_section_title
;
 Regulating Reversible Phase Transition Behaviors by Poly-H/F Substitution
 in Hybrid Perovskite-Like 2[CH2FCH2NH3]&#x00B7;[CdCl4]
;
_journal_issue                   12
_journal_name_full               'ACS Omega'
_journal_page_first              6773
_journal_page_last               6780
_journal_paper_doi               10.1021/acsomega.0c00113
_journal_volume                  5
_journal_year                    2020
_chemical_formula_moiety         'Cd0.25 Cl, 0.5(C2 H2 F N)'
_chemical_formula_sum            'C H1.5 Cd0.25 Cl F0.5 N0.5'
_chemical_formula_weight         93.58
_space_group_crystal_system      orthorhombic
_space_group_IT_number           64
_space_group_name_Hall           '-C 2ac 2'
_space_group_name_H-M_alt        'C m c e'
_atom_sites_solution_hydrogens   mixed
_atom_sites_solution_primary     dual
_audit_creation_date             2019-11-06
_audit_creation_method
;
Olex2 1.2
(compiled 2018.05.29 svn.r3508 for OlexSys, GUI svn.r5506)
;
_cell_angle_alpha                90
_cell_angle_beta                 90
_cell_angle_gamma                90
_cell_formula_units_Z            16
_cell_length_a                   7.4525(7)
_cell_length_b                   21.842(2)
_cell_length_c                   7.5766(6)
_cell_measurement_reflns_used    3562
_cell_measurement_temperature    300
_cell_measurement_theta_max      27.506
_cell_measurement_theta_min      3.272
_cell_volume                     1233.30(19)
_computing_cell_refinement       'SAINT V8.38A (?, 2016)'
_computing_data_reduction        'SAINT V8.38A (?, 2016)'
_computing_molecular_graphics    'Olex2 (Dolomanov et al., 2009)'
_computing_publication_material  'Olex2 (Dolomanov et al., 2009)'
_computing_structure_refinement  'ShelXL (Sheldrick, 2015)'
_computing_structure_solution    'ShelXT (Sheldrick, 2015)'
_diffrn_ambient_temperature      300.0
_diffrn_measured_fraction_theta_full 0.965
_diffrn_measured_fraction_theta_max 0.970
_diffrn_measurement_device_type  'CCD area detector'
_diffrn_radiation_type           MoK\a
_diffrn_radiation_wavelength     0.71073
_diffrn_reflns_av_R_equivalents  0.0277
_diffrn_reflns_av_unetI/netI     0.0180
_diffrn_reflns_Laue_measured_fraction_full 0.965
_diffrn_reflns_Laue_measured_fraction_max 0.970
_diffrn_reflns_limit_h_max       9
_diffrn_reflns_limit_h_min       -9
_diffrn_reflns_limit_k_max       27
_diffrn_reflns_limit_k_min       -28
_diffrn_reflns_limit_l_max       9
_diffrn_reflns_limit_l_min       -9
_diffrn_reflns_number            4681
_diffrn_reflns_point_group_measured_fraction_full 0.965
_diffrn_reflns_point_group_measured_fraction_max 0.970
_diffrn_reflns_theta_full        25.242
_diffrn_reflns_theta_max         27.584
_diffrn_reflns_theta_min         3.273
_exptl_absorpt_coefficient_mu    2.622
_exptl_absorpt_correction_T_max  0.7456
_exptl_absorpt_correction_T_min  0.4458
_exptl_absorpt_correction_type   multi-scan
_exptl_absorpt_process_details
;
SADABS-2016/2 (Bruker,2016/2) was used for absorption correction.
wR2(int) was 0.1185 before and 0.0443 after correction.
The Ratio of minimum to maximum transmission is 0.5979.
The \l/2 correction factor is Not present.
;
_exptl_crystal_colour            'clear light colourless'
_exptl_crystal_colour_lustre     clear
_exptl_crystal_colour_modifier   light
_exptl_crystal_colour_primary    colourless
_exptl_crystal_density_diffrn    2.016
_exptl_crystal_description       plank
_exptl_crystal_F_000             712
_exptl_crystal_size_max          0.3
_exptl_crystal_size_mid          0.3
_exptl_crystal_size_min          0.2
_refine_diff_density_max         0.528
_refine_diff_density_min         -0.560
_refine_diff_density_rms         0.097
_refine_ls_extinction_method     none
_refine_ls_goodness_of_fit_ref   1.082
_refine_ls_hydrogen_treatment    constr
_refine_ls_matrix_type           full
_refine_ls_number_parameters     47
_refine_ls_number_reflns         744
_refine_ls_number_restraints     0
_refine_ls_restrained_S_all      1.082
_refine_ls_R_factor_all          0.0328
_refine_ls_R_factor_gt           0.0314
_refine_ls_shift/su_max          0.000
_refine_ls_shift/su_mean         0.000
_refine_ls_structure_factor_coef Fsqd
_refine_ls_weighting_details
'w=1/[\s^2^(Fo^2^)+(0.0508P)^2^+3.8037P] where P=(Fo^2^+2Fc^2^)/3'
_refine_ls_weighting_scheme      calc
_refine_ls_wR_factor_gt          0.0859
_refine_ls_wR_factor_ref         0.0872
_reflns_Friedel_coverage         0.000
_reflns_number_gt                709
_reflns_number_total             744
_reflns_threshold_expression     'I > 2\s(I)'
_cod_data_source_file            ao0c00113_si_002.cif
_cod_data_source_block           mo_lysn19300k_0m
_cod_depositor_comments
;Adding full bibliography for 4517507--4517511.cif.

 Adding full bibliography for 4517507--4517511.cif.
;
_cod_original_cell_volume        1233.29(19)
_cod_original_sg_symbol_Hall     '-C 2bc 2'
_cod_original_formula_sum        'C H1.50 Cd0.25 Cl F0.50 N0.50'
_cod_database_code               4517511
_shelx_shelxl_version_number     2014/7
_shelx_space_group_comment
;
The symmetry employed for this shelxl refinement is uniquely defined
by the following loop, which should always be used as a source of
symmetry information in preference to the above space-group names.
They are only intended as comments.
;
_shelx_estimated_absorpt_t_max   0.622
_shelx_estimated_absorpt_t_min   0.507
_olex2_refinement_description
;
1. Fixed Uiso
 At 1.2 times of:
  All C(H) groups, All N(H,H) groups
2. Others
 Fixed Sof: H1b(0.5) F1(0.5) C2(0.5) H2(0.5)
3.a Rotating group:
 N1(H1a,H1b)
3.b Ternary CH refined with riding coordinates:
 C2(H2)
;
_shelx_res_file
;
    mo_lysn19300k_0m.res created by SHELXL-2014/7

TITL mo_lysn19300k_0m_a.res in Cmca
REM Old TITL mo_LYSN19300K_0m in B2212 #20
REM SHELXT solution in Cmca
REM R1 0.134, Rweak 0.003, Alpha 0.014, Orientation a'=-a, b'=c, c'=b
REM Formula found by SHELXT: N2 Cl4 Cd
CELL 0.71073 7.4525 21.8418 7.5766 90 90 90
ZERR 16 0.0007 0.0021 0.0006 0 0 0
LATT 7
SYMM -X,0.5-Y,0.5+Z
SYMM -X,0.5+Y,0.5-Z
SYMM +X,-Y,-Z
SFAC C H Cd Cl F N
UNIT 16 24 4 16 8 8

L.S. 99
PLAN  20
SIZE 0.2 0.3 0.3
TEMP 26.85
list 4
fmap 2
acta
REM <olex2.extras>
REM <HklSrc "%.\\mo_LYSN19300K_0m.hkl">
REM </olex2.extras>

WGHT    0.050800    3.803700
FVAR       0.58345
CD1   3    0.500000    0.500000    0.500000    10.25000    0.02756    0.03423 =
         0.02379    0.00313    0.00000    0.00000
CL1   4    0.750000    0.513958    0.750000    10.50000    0.03839    0.07230 =
         0.03836    0.00000   -0.01526    0.00000
CL2   4    0.500000    0.386128    0.549193    10.50000    0.09712    0.03503 =
         0.04357    0.00252    0.00000    0.00000
N1    6    0.500000    0.398596    0.976082    10.50000    0.11055    0.04404 =
         0.04542   -0.00951    0.00000    0.00000
AFIX   7
H1A   2    0.453685    0.392988    0.873032    10.50000   -1.20000
H1B   2    0.437704    0.425518    1.032495    10.50000   -1.20000
AFIX   0
C1    1    0.500000    0.342109    1.070826    10.50000    0.21943    0.05473 =
         0.06934    0.00779    0.00000    0.00000
F1    5    0.401044    0.277049    0.876266    10.50000    0.20104    0.08356 =
         0.18854    0.00553   -0.00932   -0.01739
C2    1    0.426888    0.288926    1.036114    10.50000    0.43015    0.06152 =
         0.18942   -0.00404   -0.19464    0.00220
AFIX  13
H2    2    0.360482    0.266810    1.127759    10.50000   -1.20000
AFIX   0
HKLF 4

REM  mo_lysn19300k_0m_a.res in Cmca
REM R1 =  0.0314 for     709 Fo > 4sig(Fo)  and  0.0328 for all     744 data
REM     47 parameters refined using      0 restraints

END

WGHT      0.0508      3.8036

REM Highest difference peak  0.528,  deepest hole -0.560,  1-sigma level  0.097
Q1    1   0.5773  0.3831  0.4922  11.00000  0.05    0.53
Q2    1   0.4232  0.3463  1.0217  11.00000  0.05    0.50
Q3    1   0.5000  0.2839  0.9717  10.50000  0.05    0.50
Q4    1   0.3594  0.2811  0.8499  11.00000  0.05    0.46
Q5    1   0.5000  0.4375  0.4328  10.50000  0.05    0.37
Q6    1   0.3082  0.2840  1.1427  11.00000  0.05    0.36
Q7    1   0.5000  0.4323  0.5224  10.50000  0.05    0.31
Q8    1   0.4369  0.3377  1.1980  11.00000  0.05    0.28
Q9    1   0.6578  0.5000  0.5000  10.50000  0.05    0.28
Q10   1   0.5000  0.2432  1.0191  10.50000  0.05    0.26
Q11   1   0.7500  0.5607  0.7500  10.50000  0.05    0.26
Q12   1   0.5771  0.5000  0.6050  11.00000  0.05    0.26
Q13   1   0.5000  0.3387  0.5277  10.50000  0.05    0.25
Q14   1   0.5000  0.2479  1.0799  10.50000  0.05    0.24
Q15   1   0.5000  0.2732  0.8430  10.50000  0.05    0.23
Q16   1   0.5000  0.2840  1.1370  10.50000  0.05    0.22
Q17   1   0.8522  0.5072  0.8423  11.00000  0.05    0.22
Q18   1   0.2920  0.4321  0.7879  11.00000  0.05    0.19
Q19   1   0.6750  0.5149  0.8629  11.00000  0.05    0.19
Q20   1   0.2303  0.3003  1.0110  11.00000  0.05    0.17
;
_shelx_res_checksum              84278
_shelx_hkl_file
;
  -6   0   0 1364.22   50.70
   6   0   0 1326.41   47.63
   8   0   0 2003.88   69.03
   0   0   1    0.77    0.36
   2   0  -1    0.72    0.65
   2   0  -1    0.19    0.51
  -2   0   1    0.86    0.83
   2   0   1    0.06    0.90
  -2   0  -1   -0.13    0.75
  -4   0  -1    1.46    1.72
  -4   0   1   -0.39    1.52
   4   0   1   -1.41    0.99
   4   0  -1    1.47    1.52
   6   0   1    2.85    2.74
   6   0  -1    3.15    2.04
  -6   0   1   -0.58    2.64
  -6   0  -1   -0.37    3.17
   8   0   1    4.06    4.20
   8   0  -1   -2.79    2.68
   8   0  -1    0.57    3.48
   4   0   2 3480.62  107.09
  -4   0   2 3475.73  101.87
  -4   0  -2 3539.36  106.67
  -6   0   2 5385.34  159.73
   6   0   2 5710.44  163.72
   6   0  -2 5518.22  151.89
   6   0  -2 5085.54  151.49
   8   0  -2  255.27   12.28
   8   0   2  257.33   19.59
   0   0   3    2.17    1.17
  -2   0  -3    0.42    1.15
   2   0   3   -0.30    1.20
   4   0   3   -0.04    1.65
  -4   0   3   -0.42    1.40
  -4   0  -3    1.22    2.11
   6   0   3    6.54    3.69
  -6   0   3   -2.19    2.66
   8   0   3    1.64    4.74
   2   0   4 2444.54   77.23
  -2   0  -4 2521.99   75.59
  -2   0   4 2455.95   68.67
  -4   0  -4 7596.53  221.38
   4   0   4 7758.21  223.16
   6   0   4  395.00   24.56
   8   0   4 1250.25   55.37
   0   0   5    1.88    1.78
  -2   0   5    0.63    1.12
  -2   0  -5    2.31    2.40
   2   0   5   -0.37    1.48
   4   0   5   -0.60    2.44
  -4   0   5   -0.86    1.24
  -4   0  -5    0.05    2.77
  -4   0   5    0.61    1.50
   6   0   5    7.18    4.40
   8   0   5    0.53    6.69
   0   0   6  565.93   23.59
  -2   0   6 4269.40  118.60
   2   0   6 4079.19  127.02
   4   0   6  205.92   16.73
  -4   0   6  218.86    9.40
  -4   0   6  215.94   10.66
  -4   0   6  225.89    9.86
  -6   0   6 1532.41   51.79
   6   0   6 1560.91   64.08
   0   0   7   -1.16    2.41
  -2   0  -7    7.25    2.25
   2   0   7    3.21    3.25
  -2   0  -7    0.06    1.79
  -4   0   7    0.87    2.15
   4   0   7    6.64    4.38
  -6   0   7   -0.67    2.21
  -6   0   7   -3.11    2.59
   6   0   7   -6.13    4.66
   0   0   8 1396.81   50.81
  -2   0   8   43.21    5.72
  -2   0  -8   52.12    3.67
   2   0   8   80.79   14.02
  -4   0   8  871.03   33.24
   4   0   8 1075.21   47.82
  -4   0  -8 1027.70   37.82
   0   0   9    2.24    4.10
   2   0   9    2.87    5.48
   1  -1   0   -0.22    0.23
   1   1   0   -0.09    0.26
  -1  -1   0   -0.20    0.23
  -1   1   0   -0.06    0.29
  -3   1   0    0.85    1.11
  -3  -1   0    1.57    1.50
   3   1   0    0.61    0.94
   3  -1   0    0.47    1.07
  -5   1   0   -1.90    1.18
  -5  -1   0   -0.18    2.09
   5  -1   0    0.21    1.73
   5   1   0    0.75    1.83
  -7  -1   0   -1.31    3.39
   7  -1   0   -0.75    2.78
  -7   1   0   -0.16    3.68
   9  -1   0    1.23    4.48
   9   1   0    1.98    3.97
  -5   1  -1 3503.89  111.73
   5   1   1 3727.86  110.88
   5  -1  -1 3600.94  107.11
  -5  -1   1 3782.12  110.69
   5  -1   1 3712.31  111.58
   5   1  -1 3621.43  106.16
  -5   1   1 3629.22  110.07
  -5  -1  -1 3692.15  112.82
   7  -1  -1 1667.78   55.55
  -7  -1   1 1596.74   60.76
   7   1   1 1624.77   58.95
   7  -1  -1 1643.16   54.38
  -7   1  -1 1599.33   61.76
  -7  -1  -1 1664.72   62.93
   7   1  -1 1624.26   54.18
   7  -1   1 1653.42   59.91
   9  -1  -1  510.05   24.06
   9  -1  -1  439.17   22.45
   9   1   1  480.31   27.09
   9   1  -1  495.08   22.92
   9   1  -1  477.90   22.52
   1   1   2  221.51   10.21
  -1   1  -2  210.95   11.00
  -1   1   2  242.02    7.77
  -1   1   2  236.51    7.91
   1  -1   2  227.61   10.26
  -1  -1  -2  233.20   10.26
   3   1   2  216.15   12.72
  -3   1  -2  219.31   12.61
  -3  -1   2  246.23   10.27
   3  -1   2  224.35   13.05
  -3  -1  -2  243.28   13.36
  -3   1   2  246.34   10.69
   5   1   2   92.71    9.05
  -5   1  -2  102.23    9.81
   5  -1  -2   92.45    6.01
   5  -1  -2   86.75    5.84
  -5   1   2   91.31    8.09
  -5  -1  -2   87.95    9.31
   5  -1   2   96.52    9.53
   7  -1  -2    2.72    2.11
  -7  -1   2    3.73    4.13
   7  -1  -2    0.37    2.33
   7   1   2    2.82    3.82
   7  -1   2   -2.70    2.55
   7   1  -2   -1.83    1.80
  -7   1   2    2.59    3.87
   7   1  -2    1.36    1.87
   9   1   2    4.43    5.10
   9  -1   2    3.70    5.33
   3   1   3 4386.06  129.49
  -3  -1   3 4417.67  121.28
  -3   1   3 4094.90  122.08
  -3  -1  -3 4504.58  130.30
   3  -1   3 4496.13  130.02
  -5  -1   3 3107.47   90.93
   5   1   3 2981.68   96.81
  -5   1  -3 2960.47   96.65
   5  -1   3 3066.66   97.72
  -5  -1  -3 2964.91   97.37
   7   1   3  908.99   41.55
  -7  -1   3  930.33   38.39
   7  -1   3  897.64   41.79
   9   1   3  477.47   30.23
   9  -1   3  500.73   31.47
  -1  -1   4  691.56   21.60
   1   1   4  648.01   25.66
  -1   1   4  714.47   22.90
   1  -1   4  665.20   25.65
  -1  -1  -4  703.01   24.52
   3   1   4  244.05   15.44
  -3   1  -4  253.28   14.79
  -3  -1  -4  272.62   15.59
  -3   1   4  269.09   10.92
   3  -1   4  261.44   16.02
  -3   1   4  273.54   11.32
  -5  -1   4   35.30    4.53
   5   1   4   32.35    8.64
  -5   1  -4   50.32    9.37
   5  -1   4   42.28    9.58
  -5  -1  -4   49.67    9.96
  -7  -1   4   10.90    5.21
   7  -1   4    7.00    7.58
  -1   1  -5 2751.27   77.24
   1   1   5 2673.52   83.71
  -1  -1   5 2712.77   79.01
  -1  -1  -5 2713.65   77.17
   1  -1   5 2763.00   83.94
  -1   1   5 2799.69   80.13
  -3  -1   5 2590.94   73.12
   3   1   5 2560.81   84.24
  -3  -1   5 2611.42   73.26
   3  -1   5 2685.10   85.17
  -3   1   5 2534.36   74.55
  -3  -1  -5 2639.86   82.63
  -3   1   5 2510.91   73.11
   5   1   5 1058.97   43.73
  -5   1   5  812.34   41.92
  -5  -1  -5  985.75   43.34
   5  -1   5 1003.86   43.72
   7   1   5  921.65   44.70
   7  -1   5  942.41   45.32
  -7   1   5  857.04   36.95
  -1  -1   6  225.60   11.46
  -1   1  -6  218.48    8.34
   1   1   6  200.28   20.09
  -1   1  -6  224.31    8.44
  -1   1   6  231.70   12.07
   1  -1   6  234.41   14.24
  -1  -1  -6  211.58    8.40
   3   1   6   70.05   12.12
  -3  -1  -6   55.54    7.16
  -3   1   6   56.14    4.81
   3  -1   6   61.37    8.25
   5   1   6   14.26    6.71
  -5  -1   6   18.14    3.90
  -5  -1   6   17.05    3.82
  -5  -1  -6    7.85    4.87
   5  -1   6   15.73    7.25
  -5   1   6   13.45    3.54
   7   1   6    2.46    5.62
  -7  -1   6   -3.64    4.53
  -7   1   6   -7.65    3.73
  -1  -1   7 1105.57   38.33
   1   1   7 1062.62   42.00
  -1   1   7 1061.62   38.54
   1  -1   7 1137.37   42.57
   3   1   7  681.14   33.40
  -3   1  -7  649.63   27.82
  -3   1   7  668.59   24.73
   3  -1   7  687.17   33.66
  -5  -1   7  779.81   24.94
   5   1   7  857.50   41.83
  -5   1   7  798.48   27.29
  -5   1   7  785.77   25.58
   5  -1   7  824.09   41.43
   1   1   8    4.24    3.77
  -1  -1   8    7.48    3.73
   1  -1   8    6.82    4.38
  -1   1   8    3.23    3.35
  -3   1  -8    4.85    2.40
  -3   1  -8    0.31    2.45
   3   1   8    5.64    4.13
   3  -1   8   -1.68    3.54
  -3  -1  -8    1.70    2.24
  -3   1   8    3.68    2.85
  -5   1  -8   10.52    6.00
   5   1   8    0.77    5.73
   5  -1   8    6.66    5.79
   1   1   9  340.91   21.86
  -1  -1   9  348.50   19.32
   1  -1   9  342.92   21.99
  -1   1   9  367.30   19.77
  -3  -1   9  412.82   18.92
   3   1   9  423.28   27.54
  -3   1  -9  449.26   16.90
  -3   1  -9  457.61   16.86
   3  -1   9  450.44   28.72
  -3   1   9  415.27   24.62
  -3  -1  -9  453.15   17.38
  -3  -1  -9  446.12   16.96
   2   2   0  695.11   22.83
  -2  -2   0  713.36   23.56
  -2   2   0  704.02   23.72
   2  -2   0  703.49   23.83
  -6   2   0  555.47   27.48
   6  -2   0  614.34   26.94
  -6  -2   0  576.57   28.31
   6   2   0  583.28   25.25
   8   2   0 1840.94   64.09
   8  -2   0 1891.52   66.35
   0   2   1   74.33    3.35
   0   2  -1   91.93    3.43
   0  -2  -1   75.66    3.85
   0  -2   1   73.41    3.25
   0  -2  -1   76.80    3.36
   0   2   1   72.00    3.77
  -2   2  -1  719.29   25.15
   2  -2  -1  720.74   23.04
  -2  -2   1  766.05   22.83
   2   2   1  749.63   25.22
   2  -2  -1  725.05   23.37
  -2  -2  -1  725.30   25.47
   2  -2   1  729.76   25.56
   2   2  -1  703.95   21.09
  -4  -2   1    2.02    1.82
   4   2   1    2.97    2.50
   4  -2  -1    0.77    1.56
  -4   2  -1    0.23    1.81
  -4  -2  -1    2.23    2.06
   4  -2   1    2.06    2.23
  -4   2   1    1.84    1.90
   4   2  -1    1.37    1.44
   6   2   1   58.75    7.35
  -6   2  -1   51.37    7.93
  -6  -2   1   53.84    7.55
   6  -2  -1   51.32    6.44
   6   2  -1   56.87    5.98
  -6  -2  -1   68.07    8.81
   6  -2   1   58.15    7.80
  -6   2   1   68.01    7.94
   8  -2  -1    7.08    3.85
   8   2   1    3.99    4.56
   8  -2  -1   -0.60    3.20
   8   2  -1    2.05    3.05
   8  -2   1    1.37    4.09
   0   2   2  745.84   21.60
   0   2   2  715.38   23.17
   0  -2  -2  723.85   22.86
   0  -2   2  746.16   21.31
   0   2  -2  738.31   21.13
   0  -2  -2  711.93   21.33
  -4  -2   2  988.93   33.09
   4   2   2  948.84   36.27
  -4   2  -2  987.73   36.84
   4  -2  -2  951.08   30.61
   4  -2   2  996.69   37.58
  -4   2   2  947.98   33.46
  -4  -2  -2  956.65   37.21
   6  -2  -2 4273.79  121.93
  -6  -2   2 4285.31  128.06
   6   2   2 4442.75  130.85
   6  -2  -2 3980.67  121.00
   6  -2   2 4329.90  131.94
  -6   2   2 4116.64  127.45
   8   2   2  261.85   18.99
   8  -2  -2  246.12   14.76
  -8  -2   2  225.74   19.42
   8  -2  -2  202.68   12.19
   8  -2   2  242.25   19.01
   0   2   3 2130.95   61.01
   0   2  -3 2027.39   57.11
   0  -2  -3 2020.07   57.59
   0  -2  -3 1966.17   59.50
   0  -2   3 2211.06   59.83
   2   2   3  520.77   22.16
   2  -2   3  559.78   22.81
  -2   2   3  565.08   18.21
  -2  -2  -3  553.80   22.45
  -2   2   3  552.60   18.30
  -4  -2   3  517.96   18.74
  -4   2  -3  454.98   22.61
   4   2   3  470.68   23.15
   4  -2   3  493.12   24.23
  -4  -2  -3  477.72   23.84
  -6  -2   3   39.55    7.80
  -6   2  -3   21.05    6.77
   6   2   3   40.16    9.55
   6  -2   3   21.51    6.80
   8   2   3   29.15    8.68
  -8  -2   3   36.66    9.28
   8  -2   3   51.76   11.78
  -2  -2   4 1027.67   30.21
   2   2   4 1057.91   37.95
  -2   2   4 1001.46   30.64
  -2   2   4 1080.74   32.55
  -2  -2  -4 1065.06   37.29
   2  -2   4 1019.71   37.88
   4   2   4 5580.92  166.03
  -4  -2   4 5630.30  155.78
  -4   2  -4 5596.49  164.62
  -4   2   4 5576.74  158.44
  -4   2   4 5450.48  157.95
   4  -2   4 5797.76  167.88
  -4  -2  -4 5532.57  166.11
   6   2   4  383.70   23.71
  -6  -2   4  377.84   18.87
   6  -2   4  372.95   24.30
   8   2   4 1243.10   54.54
  -8  -2   4 1200.95   49.05
   8  -2   4 1256.59   55.76
   0   2   5  496.86   20.76
   0  -2   5  517.80   20.27
   2   2   5  822.98   33.60
  -2   2   5  898.14   28.63
  -2  -2  -5  840.82   32.31
   4   2   5  157.92   13.47
  -4   2   5  177.84    9.90
  -4  -2  -5  166.00   13.60
   4  -2   5  160.26   14.05
  -4   2   5  177.49    9.39
   6   2   5  116.59   13.25
  -6   2   5  120.91   10.04
   6  -2   5   96.77   12.40
   8   2   5    1.27    5.22
   8  -2   5    5.65    5.29
   0  -2   6  510.31   21.65
   0   2   6  493.11   21.90
  -2   2  -6 4426.51  123.18
   2   2   6 4339.45  131.67
  -2  -2  -6 4379.87  132.84
  -2   2   6 4323.58  124.05
   2  -2   6 4269.79  131.76
  -2  -2  -6 4284.50  122.93
  -4  -2   6  391.32   15.15
  -4  -2   6  400.85   14.26
   4   2   6  422.04   24.63
  -4   2   6  381.51   14.63
  -4   2   6  376.00   17.13
  -4  -2  -6  393.50   22.65
   4  -2   6  389.15   24.17
  -6  -2   6 1663.98   55.43
   6   2   6 1722.80   68.16
  -6   2   6 1683.87   55.74
   6  -2   6 1702.36   68.90
   0   2   7  409.01   20.21
   0  -2   7  382.92   19.47
  -2  -2   7  136.57    8.28
  -2   2  -7  124.91    7.17
   2   2   7  132.04   12.19
  -2   2   7  124.96    8.84
  -2  -2  -7  123.53    7.25
   2  -2   7  139.30   12.41
   4   2   7  145.27   14.73
  -4   2  -7  142.11   10.99
  -4   2   7  147.33    9.71
  -4  -2  -7  146.80   13.08
   4  -2   7  145.97   14.90
  -6  -2   7    2.76    2.73
  -6  -2   7    7.63    3.16
   6   2   7   10.14    6.50
  -6   2   7   10.61    4.06
   6  -2   7   10.89    7.63
   0   2   8 2078.50   68.68
   0  -2   8 1954.18   67.36
   2   2   8  256.35   18.52
  -2  -2   8  263.33   13.50
  -2   2  -8  252.13   10.08
  -2  -2  -8  264.88   11.01
  -2   2   8  243.91   14.50
   2  -2   8  255.63   18.99
  -2  -2  -8  275.13   10.63
  -4   2  -8 1361.40   46.97
   4   2   8 1399.92   57.73
  -4  -2  -8 1350.29   46.97
   4  -2   8 1340.16   57.63
  -4   2   8 1248.52   45.33
   0  -2   9   30.97    7.56
   0   2   9   22.01    6.78
  -2  -2   9   60.31    6.55
   2   2   9   62.27   12.55
  -2   2   9   41.47    6.25
   2  -2   9   52.12   11.69
  -1   3   0    0.22    0.36
  -1  -3   0    0.08    0.34
   1  -3   0    0.02    0.37
  -1  -3   0    0.95    0.62
   1   3   0    2.00    0.82
  -3   3   0    2.91    1.94
  -3  -3   0   -0.28    1.24
   3  -3   0    3.49    2.14
   3   3   0    0.34    1.21
   5  -3   0    1.20    2.24
  -5   3   0   -0.39    1.74
   5   3   0    0.85    1.33
  -5  -3   0   -1.09    1.83
  -7  -3   0   -5.13    3.79
   7  -3   0   -1.60    2.78
   7   3   0   -1.86    2.26
   9  -3   0    7.57    5.94
   9   3   0    0.03    4.26
  -3   3  -1 4470.82  127.65
  -3  -3   1 4676.64  125.37
   3   3   1 4484.02  127.03
   3  -3  -1 4384.80  125.49
   3  -3  -1 3953.57  123.96
   3   3  -1 4414.61  122.46
  -3  -3  -1 4561.85  128.54
   5  -3  -1 2110.43   68.07
  -5  -3   1 2230.40   70.40
  -5   3  -1 2070.50   71.00
   5   3   1 2220.33   70.10
   5  -3  -1 2291.02   67.21
   5  -3   1 2229.79   72.23
  -5   3   1 2135.23   69.74
  -5  -3  -1 2163.11   72.57
   5   3  -1 2095.68   65.05
   7  -3  -1 1173.74   40.20
   7  -3  -1 1093.28   41.25
  -7   3  -1  998.38   44.93
   7   3   1 1105.13   43.13
  -7  -3   1 1071.49   45.88
   7  -3   1 1101.54   45.28
  -7  -3  -1 1065.59   47.07
   9  -3  -1  390.53   21.55
   9   3   1  368.82   22.76
   9  -3  -1  347.33   19.83
   9   3  -1  358.82   18.33
   9  -3   1  374.69   24.86
   9   3  -1  391.30   18.92
  -1   3  -2 1120.92   33.67
   1   3   2 1007.16   35.18
  -1  -3   2 1158.72   32.50
   1  -3  -2 1138.60   33.06
   1  -3  -2 1135.01   33.11
  -1  -3  -2 1097.18   35.75
  -1   3   2 1162.05   33.67
   1  -3   2 1169.08   35.50
  -1   3   2 1156.95   32.85
  -1  -3  -2 1033.65   33.53
   3  -3  -2  150.92    7.20
   3  -3  -2  152.90    7.44
  -3   3  -2  146.85    9.77
   3   3   2  145.58    9.84
   3  -3   2  140.66   10.17
  -3  -3  -2  149.84   10.38
   5  -3  -2   28.90    5.06
   5   3   2   26.99    7.06
  -5   3  -2   34.06    7.47
  -5  -3   2   36.56    8.72
   5  -3  -2   31.89    5.37
  -5  -3  -2   20.83    6.27
   5  -3   2   24.44    6.32
  -7  -3   2    9.73    4.67
   7  -3  -2   10.59    3.53
   7  -3  -2   12.04    4.12
   7   3   2    6.15    4.59
   7  -3   2   17.03    6.01
   9  -3  -2    0.43    3.73
   9   3   2    2.18    4.12
   9  -3   2    2.53    5.62
   1  -3  -3 4933.79  131.53
  -1   3  -3 4893.64  132.87
  -1  -3   3 4546.23  130.65
   1  -3  -3 4686.73  131.32
   1   3   3 4705.19  136.05
  -1   3   3 4328.40  131.11
  -1  -3  -3 4774.01  135.96
  -1   3   3 5019.97  133.49
  -1  -3  -3 4852.21  132.75
   1  -3   3 5093.68  136.05
   3   3   3 2929.71  104.39
  -3   3   3 3230.06   96.28
  -3   3   3 3475.19   96.54
  -3  -3  -3 3523.11  102.69
   3  -3   3 3598.12  103.20
   5   3   3 2369.44   76.88
  -5   3  -3 2259.25   76.16
  -5  -3   3 2221.52   70.32
   5  -3   3 2303.51   78.25
  -5  -3  -3 2251.48   78.05
   7   3   3  673.36   33.52
  -7  -3   3  667.38   30.91
   7  -3   3  626.00   34.12
   9   3   3  477.14   29.38
   9  -3   3  458.15   30.58
   1   3   4  383.39   17.55
  -1  -3  -4  372.22   13.97
  -1   3   4  398.92   12.63
  -1   3   4  398.78   15.64
   1  -3   4  386.06   17.27
  -1  -3  -4  399.91   17.06
   3   3   4  287.51   16.76
  -3  -3   4  307.98   12.26
  -3   3   4  297.28   12.31
   3  -3   4  295.80   17.43
  -3  -3  -4  280.04   16.58
  -3   3   4  290.64   13.08
   5   3   4   52.75    7.86
  -5  -3   4   58.46    5.83
   5  -3   4   63.95    8.91
  -5   3   4   58.67    6.25
  -5  -3  -4   75.92   13.28
  -7  -3   4   27.81    6.14
   7   3   4   12.55    7.79
  -7   3   4   15.01   10.89
   7  -3   4   31.56    9.80
   1   3   5 3082.69   94.60
  -1  -3   5 3096.97   88.69
  -1   3   5 3225.75   91.73
   1  -3   5 3178.48   94.45
  -1  -3  -5 3054.75   87.89
  -1  -3  -5 3075.71   92.19
   3   3   5 2764.70   89.57
  -3  -3   5 2827.64   78.62
  -3   3   5 2724.26   79.18
   3  -3   5 2785.91   90.46
  -3  -3  -5 2792.74   88.90
  -3   3   5 2809.27   81.92
  -5  -3   5 1022.64   34.00
   5   3   5 1004.16   43.85
   5  -3   5 1063.38   45.90
  -5  -3  -5 1007.63   43.95
  -5   3   5  995.27   35.82
   7   3   5  930.22   44.51
  -7  -3   5  877.14   35.97
  -7   3   5  868.80   36.84
   7  -3   5  966.65   46.57
  -1  -3   6  136.28    8.18
  -1   3  -6  123.85    5.82
   1   3   6  125.84   10.34
  -1  -3  -6  125.83    8.31
   1  -3   6  130.12   10.48
  -1   3   6  130.33    9.12
  -1  -3  -6  123.69    6.16
   3   3   6   85.68    9.70
  -3   3  -6   86.79    7.26
   3  -3   6   82.00    9.98
  -3   3   6   91.48    7.04
  -3  -3  -6   82.57    9.01
  -5  -3   6   50.87    4.90
   5   3   6   57.78   11.74
   5  -3   6   52.32   12.03
  -5   3   6   46.75    4.90
  -7  -3   6    9.43    3.51
   7   3   6   -6.96    4.30
  -7   3   6    4.45    4.03
   7  -3   6   -1.20    5.24
   1   3   7 1931.59   65.98
  -1  -3   7 1937.40   60.91
  -1   3   7 1968.30   62.72
  -1  -3  -7 1867.48   54.45
   1  -3   7 1931.20   65.86
   3   3   7 1055.26   44.98
  -3   3  -7 1088.57   36.99
  -3   3   7 1063.28   37.13
  -3  -3  -7 1061.49   41.61
   3  -3   7 1055.85   45.72
  -3  -3  -7 1048.65   36.70
  -5   3  -7 1053.49   56.13
   5   3   7 1059.68   48.44
  -5   3   7 1062.61   38.54
   5  -3   7 1039.92   49.56
  -5   3   7 1034.75   33.33
  -1  -3   8   19.40    5.36
   1   3   8   15.79    6.45
  -1   3   8   15.73    5.09
   1  -3   8   22.87    6.61
   3   3   8    7.07    5.54
  -3   3  -8    5.47    4.07
  -3  -3  -8   15.70    6.01
  -3   3   8   13.83    4.40
   3  -3   8    9.99    5.40
   5   3   8    7.21    6.04
  -5   3  -8   -3.37    4.09
   5  -3   8   -8.13    4.22
  -5   3   8    8.66    4.02
  -5  -3  -8    0.34    2.99
   1   3   9  765.89   36.08
  -1  -3   9  759.86   32.04
  -1   3   9  749.31   32.61
   1  -3   9  765.62   36.08
  -3   3  -9  783.72   26.08
  -3   3  -9  771.21   26.50
   3   3   9  756.64   39.30
   3  -3   9  830.72   41.30
  -3  -3  -9  775.11   26.76
  -3   3   9  755.44   31.28
  -3  -3  -9  777.96   27.82
  -2  -4   0 1278.54   40.13
   2  -4   0 1337.67   41.03
  -2   4   0 1286.37   40.08
   2   4   0 1271.25   38.96
   4  -4   0 3472.95  105.38
   4   4   0 3455.33  102.51
  -4  -4   0 3653.76  106.01
   6  -4   0  101.05   10.11
   6   4   0  123.16    9.43
  -6  -4   0  123.31   11.70
   8  -4   0 1414.53   54.37
   8   4   0 1416.97   51.08
   0  -4  -1  191.69    8.52
   0   4   1  188.93    8.26
   0  -4   1  180.53    7.75
   0   4   1  197.56    8.07
   0   4  -1  233.60    8.26
   0  -4  -1  205.14    8.08
   2  -4  -1  638.34   21.82
   2   4   1  620.70   22.51
  -2  -4   1  645.24   20.59
   2   4  -1  616.49   19.10
   2  -4   1  613.87   23.27
  -2   4   1  649.94   22.48
  -2  -4  -1  634.83   23.41
  -2   4   1  641.00   21.78
   4  -4  -1   32.38    4.34
   4  -4  -1   29.14    3.99
  -4  -4   1   33.37    4.46
   4   4   1   30.22    4.39
   4  -4   1   39.42    7.40
  -4  -4  -1   42.24    8.02
   4   4  -1   26.92    3.16
   6   4   1   90.19    8.86
  -6  -4   1   71.17    8.58
   6  -4  -1   84.19    8.39
   6  -4  -1   83.77    7.56
   6  -4   1   76.05    8.95
   6   4  -1   84.14    6.75
  -6  -4  -1   70.19    9.34
   8  -4  -1   36.74    7.49
   8  -4  -1   26.15    7.63
   8   4   1   28.40    8.14
   8  -4   1   40.43    9.60
   8   4  -1   25.45    5.70
   0   4   2  846.80   27.16
   0  -4   2  814.68   25.46
   0  -4  -2  820.05   27.17
   0  -4  -2  831.11   25.67
   0   4   2  854.33   25.94
   0   4  -2  865.76   25.55
   2  -4  -2 5348.66  146.22
   2   4   2 5388.90  150.08
  -2  -4  -2 5291.67  150.82
  -2   4   2 5071.59  147.37
  -4  -4   2   38.14    4.39
   4  -4  -2   42.12    4.39
   4  -4  -2   43.69    4.38
   4   4   2   56.03    6.28
   4  -4   2   42.59    6.10
  -4  -4  -2   45.88    6.11
   6  -4  -2 2596.92   80.75
   6   4   2 2726.90   87.58
   6  -4  -2 2605.27   81.48
  -6  -4   2 2736.06   86.23
   6  -4   2 2744.97   90.56
   8  -4  -2  167.41   11.58
  -8  -4   2  149.80   17.98
   8  -4  -2  159.72   11.06
   8   4   2  141.51   13.85
   0   4   3 1214.50   35.64
   0   4  -3 1174.38   34.78
   0   4   3 1204.16   38.01
   0  -4  -3 1191.80   35.31
   0  -4   3 1187.86   35.09
   0  -4  -3 1151.58   37.35
  -2   4  -3    0.42    1.06
   2   4   3    1.52    1.60
   2  -4  -3    0.85    0.81
   2  -4  -3    1.33    0.87
  -2  -4   3    0.84    0.73
  -2   4   3    1.35    0.91
  -2  -4  -3    6.07    2.71
  -2   4   3    0.36    1.13
  -4  -4   3  368.74   14.68
   4   4   3  320.43   18.36
   4  -4   3  338.25   19.72
  -4   4   3  368.18   16.48
  -4  -4  -3  342.12   19.74
  -6  -4   3   36.08    7.02
   6   4   3   29.39    8.06
   6  -4   3   28.68    8.76
  -8  -4   3   16.89    7.20
   8   4   3   31.21    9.04
   8  -4   3   23.47    8.70
   0  -4  -4 5247.19  150.27
   0   4   4 5897.15  152.73
   0   4  -4 5299.90  146.72
   0  -4  -4 4977.82  147.25
   2   4   4  278.97   15.49
  -2  -4   4  297.48   10.47
  -2   4  -4  284.74   12.70
  -2  -4  -4  264.16   12.48
  -2   4   4  273.77   12.38
  -2  -4  -4  254.81   15.23
   2  -4   4  296.74   15.90
  -4  -4   4 4381.33  119.50
   4   4   4 4164.11  129.81
   4  -4   4 4485.92  132.75
  -4   4   4 4266.18  122.74
  -4  -4  -4 4197.42  130.93
  -4   4   4 4087.28  123.50
   6   4   4  245.34   18.16
  -6  -4   4  212.69   13.59
  -6   4   4  243.67   15.05
   6  -4   4  231.87   18.80
  -8  -4   4  983.13   43.41
   8   4   4 1092.80   48.85
   8  -4   4 1067.05   51.21
   0   4   5   45.47    5.32
   0  -4  -5   41.47    3.01
   0  -4   5   42.13    4.50
   0  -4  -5   43.14    4.22
   0   4  -5   42.21    2.42
   2   4   5  416.98   20.86
  -2   4  -5  404.12   16.38
  -2  -4  -5  418.22   20.38
  -2   4   5  392.28   13.83
  -2  -4  -5  403.59   16.51
   2  -4   5  401.01   23.56
  -2   4   5  418.88   17.13
   4   4   5   11.99    4.72
  -4  -4   5   14.54    3.26
   4  -4   5   14.54    5.41
  -4  -4  -5   12.85    5.72
  -4   4   5   27.27    5.58
  -4   4   5   12.16    3.13
   6   4   5   54.27   12.79
  -6  -4   5   55.24    6.32
  -6  -4   5   46.95    5.77
   6  -4   5   41.71   10.79
  -6   4   5   45.91    6.47
   8   4   5    8.94    7.22
  -8  -4   5   16.56    7.94
   8  -4   5   19.61    8.73
   0   4   6 1050.91   38.68
   0  -4   6 1034.97   36.98
   2   4   6 4529.79  140.78
  -2   4  -6 4812.80  132.39
   2  -4   6 4674.74  141.58
  -2   4   6 4818.61  134.96
  -2  -4  -6 4669.48  138.50
  -2  -4  -6 4565.08  132.41
  -4  -4   6  480.76   16.96
  -4   4  -6  477.98   22.19
   4   4   6  463.95   26.38
  -4   4   6  462.85   17.67
  -4  -4  -6  475.06   26.13
   4  -4   6  495.82   28.09
  -4   4   6  474.01   21.24
   6   4   6 1682.07   65.78
  -6  -4   6 1562.54   52.50
   6  -4   6 1626.22   66.99
  -6   4   6 1548.66   52.95
   0  -4   7  141.82   10.69
   0   4   7  134.20   10.97
   2   4   7    4.05    3.87
  -2   4  -7    8.75    2.56
  -2  -4  -7    5.54    3.47
  -2  -4  -7    2.78    1.73
   2  -4   7   11.41    5.59
  -2   4   7    4.07    3.13
  -4   4  -7   40.21    7.47
   4   4   7   50.44   11.58
   4  -4   7   64.88   12.84
  -4  -4  -7   41.17    5.88
  -4   4   7   48.40    8.57
   6   4   7    9.58    6.50
  -6  -4   7    5.09    2.75
  -6  -4   7   15.56    4.78
   6  -4   7   17.01    7.98
  -6   4   7    7.01    3.63
   0   4   8 3049.90   97.09
   0  -4   8 3058.33   96.46
   2   4   8  623.29   31.82
  -2  -4   8  636.33   24.63
  -2   4  -8  645.99   21.13
  -2  -4  -8  663.73   22.23
  -2   4   8  656.50   27.36
   2  -4   8  611.85   32.27
   4   4   8 1600.37   65.06
  -4   4  -8 1662.22   54.76
  -4   4   8 1578.01   55.19
   4  -4   8 1598.41   66.65
  -4  -4  -8 1655.72   54.86
   0   4   9   24.07    6.77
   0  -4   9   25.68    7.08
  -2  -4   9   12.27    4.50
   2  -4   9   22.91    7.32
  -2   4   9   18.04    6.04
  -1  -5   0    8.23    2.00
   1  -5   0    5.81    1.80
   1   5   0    9.06    1.98
  -1   5   0    4.90    1.46
   3  -5   0    0.75    1.46
  -3  -5   0    1.50    1.49
   3   5   0    5.64    1.96
   5   5   0    1.78    1.88
  -5  -5   0    1.99    3.22
   7   5   0    5.14    2.88
  -7  -5   0    2.77    5.25
   7  -5   0    2.62    3.86
   9   5   0    1.07    3.68
   9  -5   0   -3.41    3.96
   1   5   1 1236.11   36.74
  -1   5  -1 1218.40   35.82
   1   5   1 1226.35   36.75
   1  -5  -1 1093.70   35.77
   1  -5  -1 1152.37   36.36
  -1  -5   1 1165.97   35.27
  -1  -5   1 1164.69   34.95
  -1   5   1 1108.60   35.39
  -1   5   1 1205.28   36.77
  -1  -5  -1 1184.66   37.22
  -1  -5  -1 1130.15   35.69
   1  -5   1 1213.61   36.54
   3  -5  -1 2965.31   91.05
   3  -5  -1 2967.34   90.15
  -3  -5   1 3226.20   90.46
   3   5   1 3260.17   91.89
   3   5  -1 3042.96   87.18
  -3   5   1 3049.87   90.88
   3  -5   1 3100.17   93.59
  -3  -5  -1 3210.04   93.64
  -5  -5   1 1680.31   56.95
   5  -5  -1 1641.99   55.89
   5   5   1 1644.43   55.71
   5   5  -1 1692.25   51.39
  -5  -5  -1 1618.41   59.18
   5  -5   1 1755.99   59.53
   7  -5  -1 1018.20   40.57
   7  -5  -1 1073.43   38.79
   7   5   1 1006.61   40.53
  -7  -5   1 1014.68   52.51
   7  -5   1 1001.10   43.77
   7   5  -1 1023.79   40.42
  -7  -5  -1 1018.95   46.14
   9   5   1  415.78   23.40
   9  -5  -1  375.85   21.73
   9  -5  -1  385.14   22.58
   9   5  -1  381.07   18.75
   9  -5   1  379.59   25.50
   9   5  -1  396.64   18.19
   1  -5  -2 1019.38   31.17
   1  -5  -2 1006.68   31.69
  -1   5  -2  961.68   30.86
  -1  -5   2 1029.84   30.46
   1   5   2  954.43   32.76
  -1  -5  -2  972.29   31.08
   1  -5   2 1020.82   31.95
  -1  -5  -2 1007.43   33.58
  -1   5   2  997.77   31.71
  -1   5   2 1008.85   31.45
   1   5  -2  968.09   30.52
   3   5   2  151.70   10.33
   3  -5  -2  156.92    8.96
  -3  -5   2  178.87    8.43
   3  -5  -2  174.62    9.09
  -3  -5  -2  166.68   11.78
   3  -5   2  167.99   11.51
  -3   5   2  182.66   10.37
  -3   5   2  170.61    9.43
  -5  -5   2    5.74    3.16
   5  -5  -2    9.04    3.25
   5  -5  -2    3.68    2.14
   5   5   2    4.69    3.23
  -5   5   2    8.46    3.35
  -5  -5  -2    4.01    3.44
   5  -5   2    7.86    3.43
   7   5   2    5.73    3.96
   7  -5  -2   12.04    4.55
  -7  -5   2    5.93    4.44
   7  -5  -2   16.47    4.68
   7  -5   2    1.58    3.88
   9  -5  -2    6.12    4.27
   9   5   2    1.99    4.44
   9  -5  -2    2.01    4.09
   9  -5   2   -3.92    4.49
  -1   5  -3 4479.50  119.72
  -1  -5   3 4287.30  118.73
   1   5   3 4436.70  123.55
   1  -5  -3 4469.07  120.66
   1  -5  -3 4334.54  119.48
  -1  -5  -3 4360.55  119.92
  -1   5   3 4309.52  121.11
  -1   5   3 3721.79  126.12
  -1  -5  -3 4164.40  123.38
   1   5  -3 4175.82  118.63
   3   5   3 2134.11   68.61
   3  -5  -3 2168.59   62.25
   3  -5  -3 2080.14   61.61
  -3  -5   3 2192.81   63.99
  -3   5   3 2134.98   63.94
  -3  -5  -3 2188.66   70.27
  -3   5   3 2057.90   65.09
   5   5   3 1985.89   67.85
   5  -5  -3 2024.63   59.23
   5  -5  -3 1920.86   58.76
  -5  -5   3 1972.42   62.54
   5  -5   3 2012.17   70.71
  -5   5   3 1949.27   63.84
  -5  -5  -3 1969.44   70.43
  -7  -5   3  730.67   33.52
   7   5   3  777.40   36.07
   7  -5   3  772.84   38.75
  -7   5   3  706.42   33.06
   9   5   3  473.66   28.73
   9  -5   3  470.41   31.51
   1  -5  -4  350.67   15.66
   1  -5  -4  345.10   12.93
  -1   5  -4  342.29   13.15
   1   5   4  343.16   16.67
  -1  -5   4  338.91   12.14
  -1  -5  -4  359.32   16.85
  -1  -5  -4  352.44   13.55
   1  -5   4  354.44   16.39
  -1   5   4  340.24   15.15
  -1   5   4  355.02   13.41
   3   5   4  126.46   10.63
  -3  -5   4  144.69    7.78
  -3   5   4  137.30    9.02
  -3  -5  -4  131.78   11.13
  -3   5   4  132.09    7.68
   3  -5   4  151.15   12.03
   5   5   4   71.76    9.14
  -5  -5   4   76.77    6.48
  -5   5   4   71.60    7.13
   5  -5   4   62.67   12.08
   7   5   4   -2.88    3.45
  -7  -5   4   -0.88    3.74
  -7   5   4    2.11    4.49
   7  -5   4   -2.41    3.67
   1   5   5 3279.85  112.19
  -1   5  -5 3235.37   91.37
   1  -5  -5 3205.27   90.55
  -1  -5  -5 3149.61   96.79
  -1  -5  -5 3205.30   91.85
  -1   5   5 3277.23   95.72
   1  -5   5 3267.92   97.81
  -3   5  -5 2743.61   81.01
  -3  -5   5 2637.44   76.05
   3   5   5 2634.88   86.28
  -3  -5  -5 2670.99   80.86
  -3  -5  -5 2668.31   86.62
  -3   5   5 2554.73   76.86
  -3   5   5 2680.90   80.44
   3  -5   5 2702.83   87.82
  -5  -5   5 1198.93   38.96
   5   5   5 1206.51   49.43
  -5  -5   5 1220.96   41.90
  -5   5   5 1204.37   41.47
   5  -5   5 1220.24   51.62
  -7  -5   5  917.97   37.33
   7   5   5  956.22   44.46
  -7  -5   5  864.67   35.82
  -7   5   5  852.61   42.45
   7  -5   5  908.05   46.21
   1   5   6   85.28    8.73
  -1  -5   6   83.55    6.34
  -1   5  -6   87.22    5.11
  -1   5   6   89.90    7.71
   1  -5   6   80.53    8.30
  -1  -5  -6   75.52    7.32
  -1  -5  -6   83.02    5.39
  -3   5  -6   92.95    7.58
   3   5   6   81.10    9.80
  -3   5   6  105.74    6.56
  -3  -5  -6   94.06    7.63
  -3   5   6   89.74    7.79
  -3  -5  -6  103.81   10.48
   3  -5   6   96.75   10.86
   5   5   6   10.34    5.34
  -5  -5   6    7.93    2.67
  -5   5  -6   13.80    5.16
   5  -5   6   11.70    6.45
  -5   5   6   10.63    4.68
  -5   5   6    6.45    4.35
  -7  -5   6    9.98    4.31
   7   5   6   11.63    6.64
  -7   5   6   12.89    5.12
   7  -5   6    5.93    6.95
   1   5   7 2197.89   74.05
  -1  -5   7 2260.02   68.78
  -1  -5  -7 2196.88   68.04
  -1  -5  -7 2100.10   63.57
   1  -5   7 2260.78   74.29
  -1   5   7 2237.98   71.14
   3   5   7 1509.39   57.13
  -3   5  -7 1439.94   47.56
  -3  -5  -7 1458.19   48.00
   3  -5   7 1478.92   58.13
  -3  -5  -7 1404.16   53.76
   5   5   7 1184.78   51.92
  -5  -5   7 1130.91   35.78
  -5   5  -7 1247.36   45.43
  -5  -5   7 1177.58   36.65
  -5  -5  -7 1172.20   44.81
  -5   5   7 1084.88   37.31
   5  -5   7 1202.50   54.41
  -5   5   7 1138.46   43.39
  -1  -5   8   24.52    5.83
   1   5   8   23.57    6.76
  -1   5   8   25.48    6.23
   1  -5   8   20.93    6.86
  -3   5  -8    1.31    2.51
   3  -5   8    9.40    5.20
  -3   5   8    5.58    3.20
  -3  -5  -8    8.06    5.63
  -5   5  -8   13.54    6.50
   5   5   8    8.13    6.53
  -5   5   8    0.40    5.04
  -5  -5  -8    4.68    3.47
   5  -5   8   14.97    9.29
  -1  -5   9 1017.97   39.36
   1   5   9 1035.21   44.23
  -1   5   9  991.70   40.72
   1  -5   9  989.58   44.04
   3   5   9  902.20   43.29
  -3   5  -9  891.52   29.46
  -3   5   9  829.22   35.25
   3  -5   9  951.36   45.85
  -3  -5  -9  849.49   34.82
  -2  -6   0  106.84    6.69
  -2  -6   0   95.66    6.64
  -2   6   0  105.54    6.63
   2   6   0   90.37    5.78
   2  -6   0  109.03    6.87
  -4  -6   0 5732.62  164.60
   4   6   0 5606.00  160.42
  -4   6   0 5478.19  162.94
   4  -6   0 5902.11  165.44
   6   6   0  298.75   15.67
  -6  -6   0  292.97   19.34
   6  -6   0  279.37   18.04
   8  -6   0 1189.64   47.97
   8   6   0 1107.91   41.75
   8  -6   0 1029.29   42.56
   0  -6   1 1228.00   37.80
   0   6   1 1201.60   38.21
   0  -6  -1 1235.23   37.84
   0   6   1 1260.36   38.13
   0  -6   1 1284.57   37.62
   0   6  -1 1233.20   37.83
   0  -6  -1 1231.23   38.83
   2   6   1  214.75   10.78
  -2   6  -1  209.96   10.52
  -2  -6   1  219.36   10.30
  -2  -6   1  226.27   10.02
   2  -6  -1  209.01   10.86
   2  -6  -1  222.81   11.06
   2   6  -1  223.91    8.98
  -2  -6  -1  238.12   12.13
  -2   6   1  227.43   10.50
  -2   6   1  223.52   11.38
  -2  -6  -1  221.64   10.75
   4  -6  -1  673.27   26.15
   4  -6  -1  704.42   27.81
   4   6   1  699.47   27.13
  -4  -6   1  751.39   27.88
  -4  -6  -1  707.38   29.80
   4  -6   1  664.30   29.29
   4   6  -1  679.31   23.33
  -4   6   1  674.11   27.07
   6  -6  -1   39.28    5.83
   6   6   1   47.05    6.52
  -6  -6   1   47.98    7.03
   6  -6  -1   40.95    6.39
   6  -6   1   62.76   11.42
   6   6  -1   38.34    4.60
  -6  -6  -1   46.98   10.24
   8   6   1   47.01    9.84
   8  -6  -1   52.77    9.78
   8  -6  -1   55.96    8.41
   8   6  -1   54.17    6.07
   8  -6   1   49.87   11.22
   0   6   2  169.08    8.45
   0  -6   2  178.00    8.38
   0  -6  -2  173.57    8.32
   0   6   2  210.33    9.70
   0  -6  -2  171.96    9.39
   0   6  -2  168.57    8.13
   2  -6  -2 7815.83  216.82
   4   6   2  425.96   20.55
   4  -6  -2  433.35   18.94
   4  -6  -2  441.98   18.52
  -4  -6   2  446.91   18.70
  -4  -6  -2  430.08   22.46
   4  -6   2  436.01   22.50
  -4   6   2  433.11   19.29
   6  -6  -2 2580.65   84.74
   6  -6  -2 2535.71   87.71
  -6  -6   2 2596.57   82.72
   6   6   2 2496.54   82.49
  -6   6   2 2425.02   81.43
   6  -6   2 2486.35   86.53
   8   6   2  179.97   14.99
   8  -6  -2  166.09   12.67
   8  -6  -2  172.30   12.61
   8  -6   2  192.70   17.77
   0   6   3   91.32    6.68
   0   6  -3   87.73    5.28
   0  -6  -3   82.71    6.42
   0  -6   3   83.22    5.30
   0  -6  -3   88.46    5.45
   0   6   3   93.35    5.86
   2  -6  -3 1877.14   55.06
  -2  -6   3 1900.34   54.30
   2   6   3 1760.43   58.53
  -2   6  -3 1717.72   55.50
   2  -6   3 1924.93   59.91
  -2  -6  -3 1827.26   56.03
  -2  -6  -3 1774.61   64.18
  -2   6   3 1817.35   54.55
  -2   6   3 1878.00   56.57
  -4  -6   3   20.19    3.09
  -4  -6   3   27.91    5.21
   4  -6  -3   22.26    3.20
   4  -6  -3   23.42    3.27
  -4   6  -3   26.24    5.69
   4   6   3   30.86    7.10
  -4   6   3   21.38    4.60
   4  -6   3   21.74    6.38
  -4  -6  -3   30.82    8.02
  -6  -6   3  247.49   15.30
   6   6   3  239.16   17.00
   6  -6  -3  236.50   12.26
   6  -6  -3  249.13   12.14
  -6   6   3  256.96   15.89
   6  -6   3  242.90   19.02
   8   6   3   10.71    6.29
  -8  -6   3   31.00    8.30
   8  -6   3    6.79    5.49
   0  -6   4 6955.24  187.38
   0   6  -4 6707.93  186.58
   0   6   4 7046.11  191.57
   0  -6  -4 6323.16  186.94
   0   6   4 7043.77  188.31
   0  -6  -4 6574.24  190.49
  -2  -6   4  647.90   20.99
  -2   6  -4  625.68   22.74
   2  -6  -4  585.47   20.66
   2   6   4  614.12   26.16
  -2  -6  -4  620.77   26.89
  -2   6   4  611.41   23.43
   2  -6   4  650.90   26.96
  -2  -6  -4  588.23   22.55
  -2   6   4  602.36   21.44
  -4  -6   4 3596.34  104.42
   4   6   4 3568.13  111.56
  -4  -6   4 3663.32  101.59
  -4   6  -4 3619.95  108.12
  -4  -6  -4 3718.75  114.37
  -4   6   4 3448.55  104.83
   4  -6   4 3638.47  114.45
  -4   6   4 3397.18  106.92
  -6  -6   4  265.56   15.47
  -6  -6   4  273.70   16.50
   6   6   4  299.83   20.09
   6  -6   4  297.23   21.83
  -6   6   4  265.68   16.16
   8   6   4  888.58   42.88
  -8  -6   4  845.02   39.40
   8  -6   4  921.75   47.12
   0  -6  -5 1915.06   57.20
   0   6   5 2074.22   63.10
   0   6  -5 1930.01   56.29
   0  -6  -5 1899.43   60.57
   2   6   5  151.91   11.69
  -2   6  -5  149.25    8.63
  -2  -6   5  141.81    6.81
  -2   6   5  153.01    9.87
  -2  -6  -5  142.49   11.44
   2  -6   5  166.46   12.40
  -2  -6  -5  147.15    8.73
  -2   6   5  146.60    7.65
  -4  -6   5  507.66   19.54
  -4   6  -5  486.21   22.61
   4   6   5  467.83   25.70
  -4   6   5  497.61   20.02
  -4  -6  -5  519.01   27.55
  -4  -6  -5  509.24   23.27
   4  -6   5  516.68   28.04
  -4   6   5  514.29   22.85
   6   6   5    3.25    4.95
  -6  -6   5    3.24    2.47
  -6  -6   5    3.66    3.14
  -6   6   5    4.07    2.80
   8   6   5   72.00   15.26
  -8  -6   5   54.14   10.12
  -8  -6   5   80.56   13.20
   8  -6   5   45.93   13.13
   0  -6  -6  528.86   18.09
   0  -6  -6  530.22   20.68
   0   6   6  535.28   23.87
   0  -6   6  520.83   22.44
   0   6  -6  505.83   16.44
  -2   6  -6 3296.36   92.97
   2   6   6 3192.76  101.33
  -2   6   6 3169.24   96.29
  -2  -6  -6 3121.64   99.98
  -2  -6  -6 3201.44   93.23
  -2   6   6 3177.29   90.18
   2  -6   6 3249.94  102.36
  -4  -6   6  368.32   14.56
  -4   6  -6  369.71   18.68
   4   6   6  348.09   22.31
  -4  -6  -6  363.73   18.73
  -4  -6  -6  348.33   27.34
   4  -6   6  377.59   24.15
  -4   6   6  337.56   20.02
  -4   6   6  369.94   15.68
   6   6   6 1319.71   55.70
  -6  -6   6 1284.00   44.53
  -6   6   6 1261.45   45.21
   6  -6   6 1344.31   59.53
   0  -6   7   48.34    6.56
   0   6   7   46.72    6.59
  -2   6  -7  413.97   16.59
   2   6   7  415.43   23.70
  -2  -6  -7  423.55   21.93
   2  -6   7  434.44   24.53
  -2  -6  -7  428.19   17.33
  -2   6   7  440.03   20.79
  -4   6  -7    5.12    3.39
   4   6   7    5.44    6.66
  -4  -6  -7    3.21    2.64
  -4   6   7    0.53    1.75
   4  -6   7    0.02    3.40
  -4   6   7    8.48    3.70
   6   6   7   84.07   12.82
  -6  -6  -7   74.70    9.37
  -6   6   7   75.15    7.31
   6  -6   7   89.04   17.64
   0  -6   8 1794.81   62.34
   0   6   8 1789.18   63.13
   2   6   8  342.65   22.02
  -2  -6   8  347.71   16.16
  -2   6  -8  351.73   13.71
  -2  -6  -8  344.36   14.73
  -2  -6  -8  342.42   18.67
  -2   6   8  338.57   18.78
   2  -6   8  345.48   22.95
  -4   6  -8 1171.91   41.73
   4   6   8 1145.19   51.58
   4  -6   8 1226.14   54.85
  -4  -6  -8 1164.86   42.04
  -4   6   8 1124.88   44.31
   0  -6   9   94.35   10.32
   0   6   9   94.45   10.79
  -2  -6   9    6.73    3.67
   2   6   9   -3.80    4.01
   2  -6   9   -7.77    4.64
  -2   6   9    0.08    3.67
  -1  -7   0    0.03    0.64
  -1  -7   0    1.12    1.38
   1  -7   0    0.06    0.87
  -1   7   0    0.64    1.35
   1   7   0    0.71    1.09
   1  -7   0   -0.27    1.00
   1   7   0    1.29    1.21
  -3  -7   0    2.01    1.74
  -3  -7   0    0.47    0.88
   3  -7   0    2.46    1.42
   3  -7   0    5.11    2.48
  -3   7   0   -0.20    0.87
   5  -7   0    3.26    3.13
  -5  -7   0    7.61    3.79
   5   7   0   -1.50    1.92
  -5   7   0    1.53    2.39
   7   7   0   -0.83    2.07
  -7  -7   0    8.08    5.96
   7  -7   0    2.18    3.68
   7  -7   0    2.42    3.28
  -7   7   0   -6.46    3.61
   9   7   0    0.55    4.35
   9  -7   0   -3.78    4.90
  -3   7  -1 5684.48  152.79
   3   7   1 5524.89  152.23
  -3  -7   1 5330.55  151.69
  -3  -7   1 5503.75  151.72
   3  -7  -1 5104.68  151.87
  -3  -7  -1 5029.59  152.07
  -3   7   1 5375.34  151.79
   3  -7   1 5468.14  155.42
   3   7  -1 5017.25  147.87
   5  -7  -1 2701.63   83.40
  -5   7  -1 2626.06   85.51
   5  -7  -1 2683.10   85.88
  -5  -7   1 2845.38   86.87
   5   7   1 2732.96   84.25
  -5  -7  -1 2802.74   89.60
   5  -7   1 2704.25   88.90
  -5   7   1 2629.29   84.88
   5   7  -1 2694.93   79.29
   7  -7  -1 1294.08   46.40
   7  -7  -1 1286.14   49.09
   7   7   1 1273.09   47.18
  -7  -7   1 1269.04   51.94
   7   7  -1 1257.53   42.02
   7  -7   1 1261.13   52.18
  -7   7   1 1193.99   49.08
   9   7   1  389.32   22.90
   9  -7  -1  401.55   23.89
   9  -7  -1  360.60   21.94
   9   7  -1  433.75   18.84
   9  -7   1  386.65   26.52
  -1  -7   2   87.15    5.52
  -1  -7   2   80.01    4.83
  -1   7  -2   76.51    5.27
   1   7   2   75.51    6.14
   1  -7  -2   71.71    5.87
   1   7   2   85.74    6.17
   1  -7  -2   74.42    5.50
  -1  -7  -2   86.39    6.85
  -1  -7  -2   76.69    5.37
  -1   7   2   70.46    5.75
  -1   7   2   80.29    5.53
   1   7  -2   77.89    5.48
   1  -7   2   78.45    5.89
   3  -7  -2  168.47   10.13
  -3   7  -2  142.21   13.62
  -3  -7   2  187.17    9.50
   3   7   2  154.68   11.25
  -3  -7   2  175.85    9.94
  -3  -7  -2  205.15   13.07
  -3   7   2  175.93   11.15
  -3  -7  -2  179.31   12.30
  -3   7   2  188.75   10.26
   3  -7   2  174.89   12.51
   5  -7  -2   37.38    5.45
  -5  -7   2   54.21    6.27
   5   7   2   51.25    9.07
  -5   7  -2   44.65    6.34
   5  -7  -2   45.09    5.72
   5  -7   2   42.30    9.32
  -5  -7  -2   68.70   12.33
  -5   7   2   45.49    6.07
   7  -7  -2   21.55    6.37
   7  -7  -2   26.79    6.96
   7   7   2   38.13    8.96
  -7  -7   2   25.14    8.51
  -7   7   2   28.56    7.08
   7  -7   2   22.61    8.16
   9  -7  -2   -2.81    4.27
   9  -7  -2   -1.04    5.26
   9   7   2   -3.55    4.99
   9  -7   2   -3.97    6.07
   1  -7  -3 5590.39  160.33
   1  -7  -3 5629.24  161.91
  -1  -7   3 5725.74  159.74
  -1   7  -3 6124.44  160.31
   1   7   3 5938.88  163.71
  -1   7   3 5879.88  162.28
  -1   7   3 5597.71  160.28
  -1  -7  -3 5648.31  164.43
   1   7  -3 5528.42  159.73
   3  -7  -3 4221.08  122.81
  -3  -7   3 4261.48  122.64
  -3   7  -3 4397.08  124.84
  -3  -7   3 4226.74  120.23
   3   7   3 4386.28  127.71
   3  -7  -3 4355.06  122.70
  -3   7   3 4227.73  122.68
  -3  -7  -3 4174.98  124.63
  -3   7   3 4211.96  125.20
  -3  -7  -3 4309.44  129.91
   3  -7   3 4461.75  130.01
   5   7   3 2337.37   79.48
   5  -7  -3 2399.75   73.69
  -5   7  -3 2314.46   78.04
   5  -7  -3 2472.41   73.13
  -5  -7   3 2497.95   76.86
  -5  -7   3 2415.01   75.23
  -5  -7  -3 2406.20   83.72
   5  -7   3 2487.50   84.17
  -5   7   3 2444.41   76.44
   7   7   3  762.43   35.81
  -7  -7   3  766.65   34.74
   7  -7  -3  755.50   28.64
   7  -7  -3  737.11   27.73
   7  -7   3  741.62   44.49
  -7   7   3  767.21   34.14
   1  -7  -4  487.80   19.27
  -1   7  -4  458.89   17.40
   1  -7  -4  475.51   17.85
  -1  -7   4  488.80   17.30
   1   7   4  464.58   21.25
  -1   7   4  486.38   19.96
  -1   7   4  465.68   17.77
  -1  -7  -4  464.88   21.36
  -1  -7  -4  466.88   17.79
   1   7  -4  457.31   16.98
   3   7   4  189.78   13.45
  -3  -7   4  218.04   10.43
  -3   7  -4  198.58   11.74
   3  -7  -4  209.03    9.65
  -3   7   4  204.07   12.37
  -3   7   4  215.36   10.76
  -3  -7  -4  195.63   11.81
  -3  -7  -4  210.06   14.93
   3  -7   4  210.17   14.82
  -5  -7   4  152.46    9.57
  -5  -7   4  149.66   10.38
   5   7   4  132.31   12.39
  -5   7  -4  129.07   11.40
  -5  -7  -4  128.54   13.65
   5  -7   4  135.46   13.82
  -5   7   4  135.32   10.17
   7   7   4    0.44    3.68
  -7  -7   4   11.76    5.15
  -7  -7   4    6.85    3.56
  -7   7   4    1.85    3.83
   7  -7   4   10.21    6.68
   1  -7  -5 2993.00   84.91
  -1   7  -5 2996.48   84.70
   1  -7  -5 2889.84   86.23
  -1  -7   5 2932.30   83.70
   1   7   5 2923.12   91.20
  -1  -7  -5 2807.92   98.57
  -1   7   5 2888.95   88.76
   1  -7   5 3063.00   91.03
  -1   7   5 2944.44   85.00
  -1  -7  -5 2971.68   85.31
   3   7   5 2614.10   84.90
  -3  -7   5 2553.34   75.47
  -3   7  -5 2694.87   79.49
  -3   7   5 2543.18   76.62
   3  -7   5 2702.05   87.14
  -3  -7  -5 2461.17   85.32
  -3   7   5 2594.37   80.52
  -3  -7  -5 2584.61   79.10
  -5   7  -5  973.34   39.27
  -5  -7   5  995.03   33.53
   5   7   5 1029.21   43.57
  -5  -7   5 1027.69   35.92
  -5  -7  -5  996.53   39.97
   5  -7   5 1028.04   46.50
  -5   7   5  942.42   35.55
   7   7   5  758.36   38.61
  -7  -7   5  723.14   31.80
  -7  -7   5  755.02   32.36
  -7   7   5  713.73   32.17
   7  -7   5  756.56   42.21
   1  -7  -6  204.68    9.25
   1   7   6  222.78   14.61
  -1   7  -6  187.48    9.33
  -1  -7  -6  184.41   13.12
  -1   7   6  217.32   13.29
  -1  -7  -6  196.64   10.06
  -3   7  -6  163.97   10.51
  -3  -7   6  169.49    7.92
   3   7   6  170.48   14.20
   3  -7   6  174.26   15.03
  -3  -7  -6  163.97   10.74
  -3   7   6  164.02    8.86
  -3  -7  -6  159.63   14.33
  -3   7   6  175.10   11.99
  -5  -7   6   21.44    5.47
  -5   7  -6   17.73    5.92
   5   7   6   17.81    7.07
  -5  -7  -6   16.54    5.66
  -5   7   6   35.10    8.03
   5  -7   6   27.19    8.95
  -5   7   6   35.82    6.28
   7   7   6   27.73   10.02
  -7  -7   6   45.37    8.26
  -7  -7   6   26.44    7.30
  -7   7   6   34.69    7.76
   7  -7   6   34.01   11.95
  -7  -7  -6   17.95    6.97
  -1  -7   7 1490.81   49.13
  -1   7  -7 1456.09   43.85
   1   7   7 1432.70   53.88
  -1  -7  -7 1510.79   55.74
  -1   7   7 1452.01   51.71
   1  -7   7 1507.71   54.50
  -1  -7  -7 1453.68   45.35
  -3   7  -7  836.18   30.13
   3   7   7  792.66   37.40
  -3  -7  -7  818.18   37.18
   3  -7   7  821.03   39.34
  -3   7   7  807.40   32.83
  -3  -7  -7  792.71   30.14
  -5  -7   7  680.87   24.34
  -5   7  -7  589.88   29.69
   5   7   7  737.33   37.81
  -5   7   7  716.27   26.60
   5  -7   7  808.62   41.77
  -5   7   7  705.54   32.14
  -5  -7  -7  769.28   32.20
   1   7   8   45.11    9.68
  -1  -7   8   40.73    5.89
   1  -7   8   46.25    9.80
  -1   7   8   47.66    9.09
  -1  -7  -8   31.92    3.37
  -3   7  -8   14.00    3.75
   3   7   8    5.56    6.14
  -3  -7  -8    6.44    6.36
  -3   7   8   11.21    4.53
  -3  -7  -8    9.22    3.86
   3  -7   8    9.88    6.45
   5   7   8   44.15   12.11
  -5   7   8   27.65    7.63
  -5  -7  -8   15.19    5.50
   5  -7   8   11.26    7.26
  -1  -7   9  465.83   22.73
   1   7   9  405.64   28.44
  -1   7   9  409.39   23.18
   1  -7   9  397.01   25.58
  -3   7  -9  443.74   18.27
   3   7   9  461.61   28.78
  -3  -7  -9  471.57   19.64
  -3   7   9  441.50   23.76
   3  -7   9  438.27   30.01
  -4   8   0 8699.10  250.51
  -4  -8   0 9367.89  253.72
   4  -8   0 8689.51  249.98
  -6   8   0 1128.17   47.84
   6  -8   0 1185.78   46.46
   6   8   0 1131.43   40.33
   6  -8   0 1085.40   41.84
  -6  -8   0 1167.46   47.36
   8  -8   0 1305.44   53.64
   8   8   0 1273.92   46.30
   0   8   1 3598.69  103.59
   0  -8   1 3631.42  103.17
   0  -8   1 3740.20  103.52
   0   8  -1 3674.80  103.42
   0   8   1 3381.95  103.36
   0  -8  -1 3684.83  105.01
   0  -8  -1 3545.58  103.19
  -2  -8   1   45.65    4.39
   2  -8  -1   40.23    4.68
   2  -8  -1   43.84    4.90
  -2  -8   1   48.83    4.64
   2   8   1   39.22    4.37
  -2   8  -1   48.61    4.57
  -2   8   1   47.24    5.19
   2  -8   1   46.72    5.23
  -2  -8  -1   46.17    4.62
  -2   8   1   43.04    4.42
   2   8  -1   47.29    3.96
  -2  -8  -1   50.14    5.48
   4   8   1  451.64   20.28
  -4  -8   1  476.34   21.01
   4  -8  -1  464.14   20.52
   4  -8  -1  412.64   25.03
  -4   8  -1  470.36   21.20
   4   8  -1  463.27   17.39
  -4  -8  -1  485.03   23.54
   4  -8   1  453.08   23.15
  -4   8   1  464.03   20.61
  -4  -8  -1  459.27   21.22
   6   8   1  108.88    9.62
   6  -8  -1   90.77    9.93
   6  -8  -1   83.20    8.67
  -6  -8   1  100.61   10.55
  -6   8   1  100.51    9.96
   6   8  -1   98.59    7.27
   6  -8   1   98.24   11.12
   8   8   1   54.24    8.39
   8  -8  -1   71.91   10.13
   8   8  -1   71.83    9.51
   8  -8   1   83.12   18.84
   0  -8  -2 5650.47  164.62
   0   8  -2 5955.41  162.59
   0   8   2 5820.23  163.14
   4  -8  -2 2325.55   73.82
   4  -8  -2 2311.00   72.83
  -4   8  -2 2286.74   74.02
  -4  -8   2 2417.50   72.93
   4   8   2 2428.74   75.12
  -4  -8   2 2431.30   73.53
   4  -8   2 2395.30   78.81
  -4  -8  -2 2250.27   74.22
  -4  -8  -2 2387.92   78.74
  -4   8   2 2315.30   72.97
   6   8   2 3279.04  102.20
   6  -8  -2 3094.94   98.51
   6  -8  -2 3250.37  100.64
  -6  -8   2 3321.94  103.12
  -6   8   2 3161.54  101.10
   6  -8   2 3300.55  108.11
   8  -8  -2  313.24   18.17
   8  -8  -2  328.11   19.33
   8   8   2  284.56   19.82
   8  -8   2  319.83   24.60
   0   8  -3  217.57   10.12
   0   8   3  202.74   11.25
   0   8   3  198.82   10.46
   0  -8  -3  195.26    9.95
   0  -8   3  193.68   10.04
   0  -8  -3  184.87   11.32
  -2  -8   3 2154.68   63.68
   2   8   3 2163.34   68.17
   2  -8  -3 2180.45   65.76
  -2   8  -3 2115.25   64.77
   2  -8  -3 2144.83   65.54
  -2  -8   3 2166.67   62.08
  -2   8   3 2088.10   66.43
  -2  -8  -3 2162.10   65.26
  -2  -8  -3 2108.15   69.67
  -2   8   3 2153.00   64.31
  -4  -8   3   20.67    4.39
  -4  -8   3   21.92    4.92
   4   8   3   13.41    4.54
  -4   8  -3   16.27    4.13
   4  -8  -3   17.80    4.43
   4  -8  -3   17.37    4.64
  -4   8   3   12.46    3.41
  -4  -8  -3   10.85    3.41
   4  -8   3   17.40    6.21
  -4  -8  -3   27.74    7.75
   6  -8  -3  255.57   13.91
   6  -8  -3  263.77   14.68
  -6  -8   3  249.64   16.27
   6   8   3  266.04   17.79
  -6  -8   3  288.86   17.01
  -6   8   3  252.08   16.12
   6  -8   3  281.73   20.97
   8  -8  -3   31.43    6.37
  -8  -8   3   19.35    6.22
  -8  -8   3    5.42    9.92
   8   8   3   27.60    7.80
   8  -8   3   30.73   10.41
   0  -8   4 7706.28  216.14
   0   8   4 7769.96  219.58
   0   8  -4 7975.24  215.48
   0  -8  -4 7676.04  219.77
   0  -8  -4 7602.28  215.88
   0   8   4 7971.70  217.30
   2   8   4 1782.66   58.33
   2  -8  -4 1668.64   53.70
   2  -8  -4 1682.56   53.62
  -2  -8   4 1698.95   52.22
  -2   8  -4 1844.28   53.95
  -2   8   4 1688.92   55.35
  -2  -8  -4 1751.85   59.69
  -2  -8  -4 1707.99   53.72
  -2   8   4 1683.69   53.14
  -4   8  -4 4246.01  123.72
  -4  -8   4 4185.50  118.18
   4  -8  -4 4057.35  118.13
   4  -8  -4 4165.16  117.79
   4   8   4 4049.77  126.95
  -4  -8  -4 4260.42  131.20
   4  -8   4 4332.51  131.42
  -4   8   4 3992.24  120.52
  -4   8   4 4101.00  124.54
  -4  -8  -4 4116.55  123.65
   6   8   4  507.19   27.95
  -6  -8   4  555.99   25.02
  -6  -8   4  490.32   23.46
  -6   8   4  498.04   24.02
   6  -8   4  521.10   31.23
  -8  -8   4  823.50   38.33
   8   8   4  779.39   39.52
  -8  -8   4  817.22   37.29
   8  -8   4  779.10   44.17
   0   8   5 1163.49   41.11
   0   8  -5 1107.55   35.57
   0  -8  -5 1113.62   36.37
   0  -8  -5 1137.60   40.15
  -2   8  -5   12.33    3.65
   2  -8  -5   20.38    3.92
   2   8   5   12.96    4.80
  -2  -8   5   22.35    3.83
  -2  -8  -5   19.47    5.92
   2  -8   5   23.72    6.60
  -2   8   5    9.37    6.13
  -2   8   5   11.56    2.90
  -4  -8   5  592.40   22.63
   4   8   5  544.11   28.48
  -4   8  -5  610.26   26.04
  -4   8   5  593.12   23.50
  -4   8   5  617.35   27.14
  -4  -8  -5  572.00   25.67
   4  -8   5  609.63   31.97
  -6  -8   5   12.16    3.79
   6   8   5   12.99    5.84
  -6  -8   5    7.75    4.03
  -6   8   5    6.92    3.63
  -6  -8  -5    9.41    4.14
   6  -8   5   13.32    7.59
   0   8  -6  559.54   19.62
   0  -8  -6  584.77   20.96
   0   8   6  565.02   25.83
   0  -8   6  574.39   24.51
   0  -8  -6  566.23   23.92
   2   8   6 2518.24   83.91
  -2  -8   6 2539.38   72.94
  -2   8  -6 2621.50   76.15
  -2  -8  -6 2549.77   76.41
  -2   8   6 2558.16   80.18
  -2   8   6 2562.00   75.07
   2  -8   6 2542.52   85.10
  -2  -8  -6 2474.88   83.69
  -4  -8   6  380.11   15.94
  -4   8  -6  382.44   19.34
   4   8   6  389.64   23.62
  -4  -8  -6  399.48   19.78
  -4   8   6  372.11   16.91
  -4  -8  -6  343.43   23.36
   4  -8   6  399.76   25.99
  -4   8   6  385.88   20.72
   6   8   6 1070.95   47.24
  -6  -8   6  990.25   36.20
  -6  -8   6  960.93   34.99
  -6  -8  -6 1019.96   42.84
  -6   8   6  947.01   37.01
   6  -8   6  982.27   49.95
   0  -8  -7    6.89    2.97
   0  -8   7    6.11    3.12
   2   8   7  338.15   21.23
  -2   8  -7  356.95   15.34
  -2  -8  -7  334.12   20.48
   2  -8   7  397.84   23.41
  -2   8   7  349.88   19.05
  -2  -8  -7  343.34   15.71
  -4  -8   7    5.10    1.75
  -4   8  -7    7.54    3.46
   4   8   7    4.62    5.10
  -4   8   7    3.25    2.47
  -4  -8  -7    3.74    2.78
   4  -8   7    2.19    4.86
  -4   8   7    7.23    4.11
   6   8   7  104.79   18.40
  -6  -8   7   75.59    6.69
   6  -8   7   81.32   17.66
  -6  -8  -7   76.70    9.61
  -6   8   7   68.63    8.09
   0   8   8  956.56   40.14
   0  -8   8  958.99   39.26
  -2   8  -8  164.69    8.86
   2   8   8  146.13   14.26
  -2  -8   8  160.10   10.15
  -2  -8  -8  150.49   13.17
  -2   8   8  157.33   12.76
   2  -8   8  140.68   14.49
  -4   8  -8  725.91   29.16
   4   8   8  674.03   36.67
   4  -8   8  745.05   40.60
  -4   8   8  687.71   32.32
  -4  -8  -8  684.42   28.92
   0  -8   9   88.43   10.78
   0   8   9   86.05   10.57
  -2  -8   9    0.63    3.79
   2   8   9    1.95    5.32
  -2   8   9   -1.39    4.74
  -2  -8  -9    4.87    2.89
   2  -8   9    6.46    5.72
   1   9   0    2.58    2.01
   1  -9   0   -0.68    1.15
  -1   9   0    0.60    1.42
   1   9   0   -0.31    1.16
   1  -9   0    0.48    1.14
  -1  -9   0    0.23    0.89
  -3  -9   0   -0.11    1.18
  -3   9   0    0.22    1.35
   3   9   0    1.88    1.84
   3  -9   0    0.58    1.57
   5   9   0    1.70    2.07
  -5  -9   0    4.01    3.69
  -5   9   0   -0.66    2.19
   5  -9   0   -2.52    1.69
   5  -9   0    3.12    2.98
  -5  -9   0    1.92    2.63
  -7  -9   0   -3.38    3.54
   7  -9   0   -0.54    3.61
   7  -9   0    1.56    3.45
   7   9   0   -0.77    2.48
   9   9   0    2.13    3.98
   9  -9   0   -1.22    5.25
  -3   9  -1 7166.55  200.33
   3   9   1 7215.12  200.03
  -3  -9   1 7164.57  200.65
  -3  -9   1 7332.59  201.11
  -3  -9  -1 7102.98  203.81
  -3  -9  -1 7171.01  200.38
  -3   9   1 6633.78  199.19
   3   9  -1 6990.26  196.64
  -5  -9   1 3045.11   92.97
   5  -9  -1 2933.47   91.25
  -5  -9   1 3110.07   94.93
   5  -9  -1 2937.66   94.25
   5   9   1 3019.86   91.31
  -5   9  -1 2827.90   92.36
  -5   9   1 2871.96   91.85
   5   9  -1 2930.11   86.34
  -5  -9  -1 2982.82   97.26
   5  -9   1 2962.60   97.11
   7   9   1 1127.48   42.92
   7  -9  -1 1137.75   42.94
   7  -9  -1 1094.71   45.56
  -7  -9   1 1128.01   48.53
   7  -9   1 1095.42   48.77
   7   9  -1 1094.66   37.54
   9  -9  -1  331.53   22.61
   9   9   1  326.39   20.46
   9  -9   1  353.01   25.64
  -1  -9   2   72.24    5.36
   1   9   2   64.07    5.92
   1  -9  -2   70.38    6.00
  -1   9  -2   69.39    5.47
   1  -9  -2   70.35    6.42
  -1  -9   2   74.21    5.68
   1   9   2   70.11    6.32
  -1  -9  -2   69.17    5.59
  -1   9   2   69.93    6.30
   1  -9   2   68.98    6.18
   1   9  -2   72.83    5.89
  -1   9   2   77.66    6.05
  -1  -9  -2   73.76    7.03
  -3   9  -2   15.40    4.38
   3  -9  -2   15.00    4.44
  -3  -9   2   11.57    3.09
  -3  -9   2   23.19    4.65
   3   9   2   15.83    4.64
  -3  -9  -2   12.87    4.31
  -3  -9  -2   15.24    4.28
  -3   9   2   14.46    4.44
  -3   9   2   13.82    3.48
  -5   9  -2   11.20    4.07
  -5  -9   2   11.55    3.73
   5   9   2   17.39    4.99
   5  -9  -2   10.93    4.39
   5  -9  -2    7.32    3.72
  -5  -9   2   10.30    4.31
  -5  -9  -2   16.29    5.30
  -5  -9  -2   17.85    5.87
  -5   9   2   12.83    4.60
   5  -9   2    8.88    5.17
   7   9   2    0.67    2.91
  -7  -9   2    0.33    6.62
   7  -9  -2    1.72    3.49
   7  -9  -2   -1.45    3.50
  -7  -9   2   -2.85    2.43
   7  -9   2   -2.36    3.51
  -9  -9   2   -3.09    3.96
   1  -9  -3 6326.36  180.90
  -1   9  -3 6830.61  178.39
   1  -9  -3 6168.63  178.79
   1   9   3 6494.84  180.82
   1   9   3 6346.26  181.68
  -1  -9   3 6315.73  177.89
  -1  -9  -3 6386.00  183.24
  -1  -9  -3 6444.33  178.24
  -1   9   3 6171.70  180.15
   1  -9   3 6478.35  180.30
  -1   9   3 6336.76  178.80
   1   9  -3 6069.56  178.25
   3  -9  -3 3376.27   98.97
  -3   9  -3 3499.02   99.50
  -3  -9   3 3257.50   96.08
   3   9   3 3453.90  102.06
  -3  -9   3 3340.70   97.34
  -3  -9  -3 3389.21   99.41
  -3   9   3 3160.76  101.78
  -3   9   3 3031.48  105.08
   3  -9   3 3494.36  105.22
  -3  -9  -3 3255.79  104.47
   5   9   3 1946.12   68.51
  -5   9  -3 2024.69   67.67
   5  -9  -3 2013.96   65.22
   5  -9  -3 2017.29   64.40
  -5  -9   3 2045.87   65.76
  -5  -9   3 2152.70   66.19
  -5   9   3 1980.76   65.61
   5  -9   3 2002.37   73.52
  -5  -9  -3 1960.11   67.88
   7  -9  -3  680.24   28.04
  -7  -9   3  669.20   32.97
  -7  -9   3  743.48   33.23
   7   9   3  709.96   33.78
   7  -9  -3  716.72   29.22
  -7   9   3  680.66   39.29
   7  -9   3  659.54   37.68
  -1   9  -4   42.72    4.42
   1  -9  -4   48.81    5.62
  -1  -9   4   45.88    4.53
   1   9   4   52.87    6.26
   1  -9  -4   45.56    4.77
  -1  -9  -4   49.63    4.80
  -1   9   4   41.47    5.43
   1   9  -4   40.24    4.35
  -1   9   4   43.79    4.76
  -1  -9  -4   41.18    6.17
   3  -9  -4   53.99    5.37
  -3  -9   4   47.43    4.80
  -3  -9   4   55.21    4.54
   3   9   4   49.43    9.06
  -3   9  -4   43.06    5.33
  -3   9   4   61.84   10.01
  -3  -9  -4   50.94    5.65
  -3   9   4   59.41    6.89
   3  -9   4   47.20    7.22
  -3  -9  -4   58.14    7.97
  -5   9  -4   -0.87    2.93
   5  -9  -4    0.17    1.93
  -5  -9   4    1.72    1.93
  -5  -9   4    5.71    3.35
   5   9   4    6.79    4.12
   5  -9  -4   -0.28    2.22
   5  -9   4    6.55    4.12
  -5  -9  -4   -1.09    3.86
  -5   9   4    1.73    2.50
  -5  -9  -4   -0.14    1.78
   7   9   4    7.39    5.14
  -7  -9   4    6.78    5.30
  -7  -9   4    3.60    3.44
   7  -9   4    4.25    4.94
  -7  -9  -4    4.12    3.81
  -7   9   4    6.34    4.01
   1  -9  -5 1713.88   55.91
   1   9   5 1739.76   58.88
  -1  -9   5 1677.78   52.91
   1  -9  -5 1750.46   53.97
  -1   9  -5 1825.88   53.70
  -1  -9  -5 1845.13   54.20
   1   9  -5 1652.08   52.45
  -1  -9  -5 1646.66   59.01
  -1   9   5 1707.58   57.23
  -1   9   5 1753.01   54.42
  -3  -9   5 1451.60   46.50
  -3   9  -5 1587.20   49.48
   3   9   5 1534.37   54.66
   3  -9  -5 1396.77   44.85
   3  -9   5 1474.18   56.31
  -3   9   5 1437.38   47.58
  -3  -9  -5 1463.23   56.23
  -3  -9  -5 1491.65   49.28
  -3   9   5 1426.06   51.13
   5   9   5  724.74   35.03
  -5   9  -5  744.99   32.03
  -5  -9   5  716.77   28.42
  -5  -9   5  737.43   27.39
  -5  -9  -5  748.33   32.54
  -5   9   5  727.74   29.22
   5  -9   5  780.20   39.34
   7   9   5  606.24   33.11
  -7  -9   5  530.35   26.49
  -7  -9   5  570.43   27.07
  -7  -9  -5  573.08   31.05
   7  -9   5  558.37   36.14
  -7   9   5  529.48   26.32
   1  -9  -6   28.01    4.38
  -1   9  -6   28.52    3.79
   1   9   6   35.76    7.55
   1  -9  -6   27.46    4.81
  -1  -9  -6   35.71    5.74
  -1  -9  -6   36.12    7.85
  -1   9   6   22.54    5.91
   1  -9   6   34.31    7.79
  -3   9  -6   -1.75    1.99
  -3  -9   6    8.42    2.50
   3   9   6    3.13    3.83
  -3   9   6    6.65    2.48
   3  -9   6   -3.28    3.61
  -3  -9  -6    3.36    2.32
  -3   9   6    3.68    2.69
  -3  -9  -6    2.30    5.15
   5   9   6   25.09    8.33
  -5  -9   6   28.50    5.37
  -5   9  -6    7.18    3.95
  -5   9   6   22.31    5.19
  -5  -9  -6   11.57    4.26
  -5   9   6   12.27    5.88
   5  -9   6   11.38    6.92
  -7  -9   6    2.34    5.70
  -7  -9   6   18.86    4.83
   7   9   6    6.27    7.28
  -7  -9  -6   12.39    6.32
  -7   9   6    0.17    4.72
   7  -9   6    7.46    8.77
  -1  -9   7  459.38   20.94
  -1   9  -7  448.81   17.43
   1   9   7  422.14   23.70
   1  -9   7  453.72   24.56
  -1   9   7  455.31   23.06
  -1  -9  -7  480.63   18.67
  -1  -9  -7  440.68   22.79
   3   9   7  377.88   23.72
  -3   9  -7  407.64   18.19
  -3   9   7  354.41   15.62
  -3  -9  -7  412.84   18.65
  -3   9   7  349.32   20.33
   3  -9   7  379.01   25.06
   5   9   7  461.23   28.89
  -5  -9   7  463.88   18.66
   5  -9   7  486.08   32.20
  -5  -9  -7  481.26   24.21
  -5   9   7  461.82   25.51
  -5   9   7  419.81   19.88
   1   9   8    0.10    4.09
  -1  -9   8    4.78    3.42
  -1   9   8    3.37    3.66
  -1  -9  -8   -0.36    2.08
   1  -9   8    0.05    3.80
  -3   9  -8    4.88    3.27
   3   9   8    9.42    5.58
   3  -9   8    7.59    7.49
  -3  -9  -8    4.46    3.02
  -3   9   8    7.93    5.05
  -3  -9  -8   15.25    7.01
   1   9   9  166.64   15.71
  -1  -9   9  200.19   14.25
  -1   9   9  174.20   14.75
   1  -9   9  173.57   16.03
  -2 -10   0 5804.10  167.73
   2 -10   0 5752.81  167.84
   2  10   0 5702.16  167.72
  -2  10   0 5656.65  165.27
  -2 -10   0 5950.37  165.52
   2  10   0 6245.44  165.29
  -4 -10   0 6809.22  193.40
  -4 -10   0 6907.87  196.57
   4  10   0 6863.08  190.57
   4 -10   0 6781.35  197.16
   4 -10   0 6608.60  192.62
  -4  10   0 6542.71  192.76
   6 -10   0 1143.47   44.23
   6 -10   0 1183.01   49.12
  -6 -10   0 1287.54   53.98
   6  10   0 1180.88   41.92
  -6 -10   0 1236.36   47.24
   8  10   0 1040.03   39.95
  -8 -10   0 1136.70   49.08
   8 -10   0 1069.16   48.43
   0 -10   1   46.02    4.82
   0 -10  -1   49.20    5.00
   0  10   1   43.33    4.76
   0  10   1   43.02    4.81
   0 -10  -1   43.24    5.16
   0  10  -1   41.51    4.45
   0 -10   1   43.83    4.76
  -2  10  -1 1350.73   50.88
   2 -10  -1 1478.76   49.11
  -2 -10   1 1492.24   46.83
   2 -10  -1 1565.41   50.45
  -2 -10   1 1511.51   48.03
   2  10   1 1357.02   47.01
  -2 -10  -1 1456.98   47.07
   2  10  -1 1462.90   48.69
  -2  10   1 1480.33   46.99
  -2 -10  -1 1505.21   50.45
   2 -10   1 1403.69   47.51
   2  10  -1 1488.76   45.63
  -2  10   1 1463.53   49.38
   2 -10   1 1513.52   49.78
  -4 -10   1  250.36   14.15
   4 -10  -1  250.46   15.66
   4  10   1  247.72   13.74
  -4  10  -1  232.03   14.10
  -4 -10   1  260.39   15.24
   4 -10  -1  214.09   13.73
   4  10  -1  243.13   11.53
  -4 -10  -1  232.40   15.97
  -4 -10  -1  222.76   13.95
  -4  10   1  252.22   14.09
   4 -10   1  245.21   16.68
   6  10   1  181.31   13.07
  -6 -10   1  180.96   14.07
   6 -10  -1  189.87   13.56
  -6 -10   1  198.73   15.79
   6 -10  -1  203.64   15.67
  -6 -10  -1  201.12   15.12
   6 -10   1  167.61   15.64
   6  10  -1  186.86   10.44
  -6 -10  -1  197.97   17.02
  -6  10   1  198.75   14.31
   8 -10  -1   56.29   10.38
  -8 -10   1   57.76   11.37
   8 -10  -1   49.37   11.38
   8  10   1   63.78   11.18
  -8 -10  -1   35.66    8.60
   8 -10   1   45.22   11.37
   0  10   2 6180.02  178.08
   0  10  -2 6714.42  177.93
   0 -10   2 6244.82  176.77
   0 -10  -2 6263.75  180.46
   0 -10   2 6122.93  177.51
   2  10  -2 9999.00  278.71
  -4 -10   2 2524.96   80.53
   4 -10  -2 2357.77   75.25
   4  10   2 2429.09   76.21
   4 -10  -2 2385.49   76.62
  -4  10  -2 2397.27   75.62
  -4 -10   2 2329.85   74.23
   4 -10   2 2355.49   80.51
  -4 -10  -2 2385.51   80.65
  -4 -10  -2 2422.57   75.94
  -4  10   2 2230.93   73.64
   6 -10  -2 2413.51   79.87
   6 -10  -2 2341.23   77.58
   6  10   2 2494.48   79.67
  -6 -10   2 2489.75   81.86
  -6 -10   2 2551.62   80.37
  -6  10   2 2318.36   78.88
  -6 -10  -2 2550.31   82.31
   6 -10   2 2408.25   86.46
  -6 -10  -2 2069.41   84.46
   8 -10  -2  329.15   19.93
   8  10   2  290.07   30.29
   8 -10  -2  321.25   20.60
  -8 -10   2  367.58   23.34
   8 -10   2  341.43   25.70
  -8 -10  -2  369.62   25.04
   0  10   3 2556.62   76.99
   0  10  -3 2633.79   75.84
   0 -10  -3 2572.76   84.52
   0 -10  -3 2570.81   76.02
   0 -10   3 2483.38   76.02
   0  10   3 2370.18   78.51
   2 -10  -3    2.00    2.06
   2  10   3    0.74    1.80
  -2 -10   3   -0.11    1.32
  -2  10  -3    0.05    1.21
  -2 -10   3    1.14    1.59
   2 -10  -3    1.42    1.37
  -2 -10  -3    0.00    0.91
   2  10  -3    0.18    1.00
  -2  10   3    2.34    2.07
  -2  10   3   -1.16    2.24
  -2 -10  -3    0.11    2.03
  -4  10  -3  649.75   26.93
  -4 -10   3  630.02   25.19
  -4 -10   3  643.22   25.11
   4  10   3  591.68   27.38
   4 -10  -3  571.58   28.42
  -4 -10  -3  652.42   31.59
  -4 -10  -3  593.47   26.31
  -4  10   3  627.47   25.36
   4 -10   3  594.85   30.60
   6 -10  -3   44.51    6.73
   6  10   3   49.76   10.07
   6 -10  -3   43.29    6.45
  -6 -10   3   48.54    8.59
  -6 -10   3   63.44   10.57
   6 -10   3   66.54   13.85
  -6  10   3   42.87    9.21
  -6 -10  -3   47.23    9.10
   8  10   3   71.30   10.49
   8 -10  -3   56.26    7.70
  -8 -10   3   83.02   14.07
   8 -10  -3   66.16    8.35
   8 -10   3   68.84   15.75
  -8 -10  -3   60.12   12.58
   0  10   4 6672.30  190.66
   0  10  -4 6740.02  186.84
   0  10   4 6743.92  188.98
   0 -10   4 6593.04  188.01
   0 -10  -4 6660.27  187.19
   0 -10  -4 6579.28  191.88
   2  10   4 2373.23   74.43
  -2  10  -4 2386.50   69.91
  -2 -10   4 2369.72   69.19
   2 -10  -4 2254.31   71.40
  -2 -10   4 2268.87   67.01
   2 -10  -4 2234.57   70.69
  -2 -10  -4 2239.96   76.01
  -2  10   4 2224.29   69.68
  -2  10   4 2172.03   72.00
  -2 -10  -4 2314.34   69.89
  -4 -10   4 3273.21   98.79
   4  10   4 3326.95  105.10
   4 -10  -4 3246.57   99.08
   4 -10  -4 3323.35   98.88
  -4 -10   4 3337.01   98.13
  -4  10  -4 3465.92  102.24
   4 -10   4 3377.69  109.97
  -4 -10  -4 3422.82  102.24
  -4  10   4 3258.93  104.09
  -4  10   4 3287.55   99.57
  -6 -10   4  539.88   24.94
   6 -10  -4  510.31   20.68
   6  10   4  502.94   27.85
   6 -10  -4  506.96   21.25
  -6 -10   4  495.30   24.33
  -6 -10  -4  508.71   26.85
   6 -10   4  536.95   48.44
   8  10   4  617.09   33.84
  -8 -10   4  665.57   32.48
   8 -10   4  604.55   39.15
  -8 -10  -4  675.87   36.05
   0  10  -5    8.23    3.04
   0  10   5    2.69    2.53
   0  10   5   -0.30    1.58
   0 -10  -5    2.21    2.61
   0 -10   5    4.54    2.30
   0 -10  -5    0.09    1.36
   2 -10  -5  806.80   30.21
   2  10   5  770.80   33.66
  -2 -10   5  822.26   28.69
  -2  10  -5  778.41   29.17
   2 -10  -5  818.58   30.45
  -2  10   5  862.20   32.99
  -2 -10  -5  835.88   29.95
   2 -10   5  827.83   35.67
  -2 -10  -5  796.03   35.56
  -2  10   5  844.53   30.09
  -4 -10   5    1.31    2.62
   4  10   5    1.53    3.17
  -4 -10   5   11.96    3.70
  -4  10  -5    1.18    3.00
  -4  10   5   10.50    3.71
  -4  10   5    7.66    4.65
  -4 -10  -5    5.55    3.50
   4 -10   5   10.93    5.36
  -4 -10  -5    1.61    5.29
   6  10   5  109.45   12.92
  -6 -10   5  165.52   11.75
  -6 -10   5  155.34   11.46
   6 -10   5  143.57   16.46
  -6 -10  -5  149.01   13.79
  -6  10   5  140.84   11.64
   0  10  -6  924.90   30.74
   0 -10  -6  899.93   35.74
   0 -10  -6  921.61   31.69
   0  10   6  874.68   36.05
   2  10   6 2205.29   74.97
   2 -10  -6 2209.28   66.44
  -2 -10   6 2241.70   66.23
  -2  10  -6 2239.82   67.61
  -2  10   6 2164.47   72.08
   2 -10   6 2095.90   75.94
  -2 -10  -6 2275.34   68.30
  -2  10   6 2219.33   67.99
  -2 -10  -6 2174.59   76.17
  -4  10  -6  466.09   22.25
  -4 -10   6  487.93   19.76
   4  10   6  497.18   27.29
  -4  10   6  469.36   20.85
   4 -10   6  459.27   29.08
  -4 -10  -6  484.97   22.78
  -4  10   6  451.10   24.32
  -6 -10   6  781.04   30.81
   6  10   6  854.02   41.26
  -6 -10   6  790.27   31.57
   6 -10   6  872.63   46.47
  -6 -10  -6  873.92   37.52
  -6  10   6  773.24   32.77
   0 -10  -7  332.13   14.88
   0 -10   7  347.31   19.41
   0  10   7  352.46   20.13
   0 -10  -7  311.09   21.55
   0  10  -7  323.48   13.47
   2  10   7   11.66    5.75
  -2  10  -7   10.03    3.39
   2 -10   7   13.06    5.85
  -2 -10  -7    5.65    5.62
  -2 -10  -7    8.58    3.23
  -2  10   7    8.45    4.33
   4  10   7  142.56   14.10
  -4 -10   7  129.64    8.04
  -4  10  -7  172.39   11.89
  -4 -10  -7  148.34   11.40
  -4  10   7  148.87   13.45
   0  10   8  892.97   38.74
   0 -10   8  933.28   38.55
   0 -10  -8  852.31   29.47
  -2 -10   8  253.11   14.06
   2  10   8  236.93   18.36
  -2 -10  -8  218.77   17.44
  -2  10   8  260.38   17.35
   2 -10   8  212.73   18.70
  -2 -10  -8  253.81   13.40
   4  10   8  596.01   33.64
  -4  10  -8  634.18   27.39
  -4  10   8  574.17   29.84
   4 -10   8  583.77   35.90
  -4  10   8  532.83   20.38
  -4 -10  -8  610.73   26.60
   0 -10   9   19.70    8.72
   0  10   9   35.23    8.69
  -2  10  -9   35.79    4.86
  -1  11   0    0.38    1.38
  -1 -11   0    0.66    1.45
   1  11   0    1.08    1.40
   1 -11   0    5.69    2.74
  -1 -11   0   -0.19    1.10
   1  11   0   -1.46    0.80
  -1  11   0    2.25    1.59
  -3 -11   0    0.67    1.51
   3 -11   0    5.37    3.13
  -3  11   0    0.33    1.56
   3  11   0    1.21    1.97
  -3 -11   0    0.20    2.18
  -5 -11   0    0.60    3.82
   5 -11   0   -2.84    2.39
  -5 -11   0   -0.45    1.60
   5  11   0   -0.98    1.61
  -5  11   0    2.00    2.52
   5 -11   0    4.61    3.70
   7  11   0   -0.80    2.72
  -7 -11   0   -3.96    2.65
   7 -11   0   -2.31    4.04
  -1 -11   1 4546.51  129.47
   1  11   1 4543.58  131.66
   1  11   1 4604.16  130.05
   1 -11  -1 4497.42  130.78
  -1 -11   1 4482.19  130.09
  -1  11  -1 4621.25  129.62
   1 -11  -1 4470.79  137.75
   1  11  -1 4282.32  130.29
  -1  11   1 4710.48  131.63
   1 -11   1 4552.85  131.29
  -1  11   1 4274.22  129.35
  -1 -11  -1 4425.58  132.53
   1  11  -1 4538.86  128.96
  -3 -11   1 2309.10   72.06
   3 -11  -1 2282.69   74.07
   3 -11  -1 2258.37   75.14
  -3 -11   1 2369.94   74.03
   3  11   1 2381.54   72.52
  -3  11  -1 2403.38   72.73
  -3 -11  -1 2329.33   76.65
   3 -11   1 2371.79   73.41
  -3  11   1 2325.80   72.33
   3  11  -1 2296.01   69.77
  -3 -11  -1 2417.68   73.07
  -5 -11   1 1359.73   48.79
   5 -11  -1 1387.36   51.96
   5  11   1 1353.94   47.37
  -5 -11   1 1390.78   51.67
   5 -11  -1 1378.18   49.03
  -5 -11  -1 1366.50   49.72
   5 -11   1 1292.79   48.31
   5 -11   1 1371.00   53.96
  -5 -11  -1 1322.73   53.25
   5  11  -1 1385.13   43.64
  -5  11   1 1336.99   48.47
  -7 -11   1  728.47   35.33
   7 -11  -1  713.33   35.29
   7  11   1  779.76   31.92
  -7 -11   1  731.26   37.70
   7 -11  -1  694.32   32.50
  -7 -11  -1  720.24   35.19
   7  11  -1  679.17   29.30
   7 -11   1  734.43   38.26
   1  11   2   73.80    9.92
  -1 -11   2   92.30    7.10
   1 -11  -2   90.21    8.12
   1 -11  -2   84.34    7.27
  -1  11  -2   76.60    6.52
  -1 -11   2   80.50    6.69
   1 -11   2   83.17    6.91
   1 -11   2   88.07    7.67
  -1  11   2   85.52    7.04
   1  11  -2   91.39    7.42
  -1 -11  -2   92.12    7.08
  -1  11   2   90.59    7.85
  -1 -11  -2   93.23    8.67
  -3 -11   2   62.33    6.38
  -3  11  -2   57.89    6.19
  -3 -11   2   66.01    6.18
   3 -11  -2   70.19    7.42
   3 -11  -2   63.06    7.05
   3  11   2   64.97    6.74
  -3  11   2   61.35    6.10
  -3 -11  -2   68.59    6.61
  -3 -11  -2   55.28    7.64
  -3  11   2   67.14    7.58
  -5 -11   2   61.26    7.90
   5 -11  -2   59.87    7.60
   5  11   2   59.96    7.43
  -5  11  -2   66.28    8.24
  -5 -11   2   57.59    7.15
   5 -11  -2   55.12    7.49
   5 -11   2   65.26   12.70
  -5  11   2   56.72    7.33
  -5 -11  -2   58.38    7.63
   7 -11  -2    6.32    4.90
  -7 -11   2   -0.31    3.33
   7  11   2    4.99    3.93
   7 -11  -2    1.25    3.89
   7 -11   2    2.68    5.30
  -7 -11  -2   -0.21    2.96
   1  11   3 2228.03   68.47
  -1 -11   3 2137.66   65.54
   1  11   3 2221.19   68.71
  -1 -11   3 2142.41   64.60
  -1  11  -3 2369.18   71.29
   1 -11  -3 2086.56   68.70
   1 -11  -3 2148.63   66.78
  -1  11   3 2055.77   66.13
  -1  11   3 2012.53   67.32
  -1 -11  -3 2022.40   70.97
  -1 -11  -3 2123.35   70.60
   1  11  -3 2128.41   66.32
   1 -11   3 2162.69   67.89
   3 -11  -3 1856.21   62.51
  -3  11  -3 2022.85   61.87
  -3 -11   3 1919.10   60.22
   3  11   3 1968.18   64.27
  -3 -11   3 1875.68   60.14
  -3  11   3 1838.26   60.45
  -3 -11  -3 2003.16   62.02
  -3 -11  -3 1835.19   67.34
  -3  11   3 1964.75   64.46
  -5 -11   3 1372.98   47.82
  -5 -11   3 1395.39   48.63
   5  11   3 1393.59   50.38
   5 -11  -3 1323.29   48.38
   5 -11  -3 1311.03   47.46
  -5  11  -3 1206.84   49.81
  -5 -11  -3 1363.30   49.63
   5 -11   3 1349.21   55.76
  -5  11   3 1297.17   47.08
  -7 -11   3  536.66   27.15
   7 -11  -3  481.52   25.00
   7  11   3  494.83   28.30
   7 -11  -3  523.78   24.37
  -7 -11   3  495.84   31.32
  -7 -11  -3  532.18   29.01
   7 -11   3  537.48   33.56
   1  11   4  223.69   14.07
  -1  11  -4  215.24   17.89
   1 -11  -4  231.30   12.77
   1 -11  -4  236.01   14.44
  -1 -11   4  239.32   12.47
  -1 -11  -4  222.53   12.16
   1  11  -4  237.49   12.54
   1 -11   4  236.35   13.77
  -1  11   4  211.49   13.43
  -1 -11  -4  241.54   15.89
  -1  11   4  247.53   14.40
  -3 -11   4  191.85   11.17
   3  11   4  187.92   13.72
   3 -11  -4  187.55   12.26
  -3  11  -4  167.80   11.28
  -3 -11   4  211.06   10.79
  -3  11   4  190.17   11.59
  -3 -11  -4  171.65   14.99
   3 -11   4  184.47   15.15
  -3 -11  -4  187.83   11.88
  -3  11   4  189.66   13.47
   5  11   4   17.00    6.10
  -5 -11   4   24.88    5.53
   5 -11  -4   29.04    6.21
  -5  11  -4    8.65    4.40
  -5 -11   4   23.32    5.65
   5 -11  -4   23.00    6.72
  -5 -11  -4   20.18    6.15
   5 -11   4   22.62    7.98
  -5  11   4   16.70    4.35
  -7 -11   4   22.20    5.98
   7 -11  -4   37.43    6.79
   7 -11  -4   35.94    6.47
   7  11   4   21.97    8.05
  -7 -11   4   16.53    7.59
  -7 -11  -4   23.07    6.68
   7 -11   4   39.42   12.13
   1  11   5 1398.24   51.17
   1 -11  -5 1467.86   50.45
  -1  11  -5 1537.26   51.17
  -1 -11   5 1456.34   47.02
   1 -11  -5 1503.57   47.96
  -1  11   5 1374.13   50.03
  -1 -11  -5 1397.43   52.74
  -1 -11  -5 1490.58   47.29
   1  11  -5 1444.45   46.52
  -1  11   5 1288.02   52.30
   3 -11  -5 1344.79   46.65
  -3 -11   5 1389.29   46.29
  -3 -11   5 1422.04   44.55
  -3  11  -5 1475.48   48.29
   3  11   5 1413.78   52.67
   3 -11   5 1397.63   55.61
  -3  11   5 1472.28   51.96
  -3 -11  -5 1400.69   47.86
  -3 -11  -5 1311.99   55.02
  -3  11   5 1452.08   47.66
  -5 -11   5  663.87   26.76
  -5  11   5  602.00   26.92
  -5 -11  -5  667.60   30.09
   5 -11   5  660.34   37.03
  -7 -11   5  404.08   24.05
  -7 -11   5  475.08   24.18
   7  11   5  458.93   28.36
   7 -11   5  500.10   34.32
  -7 -11  -5  490.49   28.09
   1 -11  -6  141.33   11.11
   1  11   6  143.48   12.25
   1 -11  -6  137.87    9.38
  -1 -11   6  136.01    8.91
   1  11  -6  117.93    8.10
   1 -11   6  140.61   12.18
  -1  11   6  136.12    9.72
  -1 -11  -6  150.45    9.68
  -1  11   6  121.36   11.05
  -1 -11  -6  139.18   12.35
  -3 -11   6   38.22    5.57
  -3  11  -6   34.53    6.01
  -3 -11   6   31.75    5.38
   3  11   6   30.98    8.84
  -3  11   6   37.49    6.42
  -3  11   6   43.19    8.97
  -3 -11  -6   48.38    9.60
   3 -11   6   33.61    9.28
  -3 -11  -6   43.72    7.47
   5  11   6   42.24   10.55
  -5 -11   6   42.80    5.51
  -5 -11   6   38.19    5.55
  -5  11   6   56.96   10.99
   5 -11   6   61.04   14.43
  -5 -11  -6   68.45   11.27
  -5  11   6   48.87    6.89
  -1  11  -7  950.11   32.75
   1  11   7  940.49   40.30
   1 -11  -7  899.44   32.88
   1 -11  -7  954.19   34.21
  -1  11   7  984.34   39.64
  -1 -11  -7  967.88   33.60
  -1 -11  -7  879.36   38.77
   1 -11   7  991.69   41.41
  -3  11  -7  595.80   24.79
  -3 -11   7  568.01   21.48
   3  11   7  593.38   31.22
  -3  11   7  592.14   24.29
   3 -11   7  575.52   33.23
  -3  11   7  595.26   29.09
  -3 -11  -7  608.59   25.28
   5  11   7  510.75   30.44
  -5 -11   7  533.22   21.20
  -5  11   7  490.84   27.74
  -5  11   7  465.81   22.27
   5 -11   7  481.58   33.25
  -1  11  -8    9.32    2.92
   1  11   8   -0.39    6.08
  -1 -11   8   18.91    5.46
  -1 -11  -8    9.63    6.06
  -1  11   8    7.07    4.98
  -1 -11  -8    7.24    3.32
   1 -11   8   19.02    6.66
   3  11   8   31.45    9.46
  -3  11  -8   16.51    5.13
  -3  11   8   23.38    6.92
   3 -11   8   12.98   10.38
  -3 -11  -8   31.02    6.34
   1  11   9  388.58   24.82
  -1 -11   9  404.46   22.59
  -1  11   9  397.47   24.24
  -1 -11  -9  404.33   20.71
  -1 -11  -9  398.14   16.50
   1 -11   9  384.58   25.88
   0  12   0 2734.49   80.90
   0 -12   0 2629.44   80.28
   0  12   0 2478.13   82.19
   0 -12   0 2723.98   81.73
   2  12   0  896.77   34.69
   2  12   0  903.74   32.04
  -2 -12   0  897.38   32.24
  -2 -12   0  882.26   34.66
  -2  12   0  855.24   32.00
   2 -12   0  951.35   34.45
  -4  12   0 2183.45   71.92
   4  12   0 2446.39   70.79
   4 -12   0 2292.44   73.26
  -4 -12   0 2181.88   75.83
  -4 -12   0 2223.49   72.48
  -6 -12   0  419.93   23.33
   6  12   0  455.09   20.38
   6 -12   0  424.43   26.18
   6 -12   0  454.49   23.07
  -6 -12   0  380.85   25.13
   8 -12   0  583.21   33.96
  -8 -12   0  625.31   33.02
   8  12   0  556.55   25.47
   0  12  -1  410.06   23.26
   0  12   1  413.52   19.07
   0 -12  -1  426.64   22.25
   0 -12  -1  393.25   19.73
   0 -12   1  416.65   18.68
   0 -12   1  445.90   21.68
   0  12   1  434.43   19.26
   2 -12  -1  907.83   35.36
  -2  12  -1  916.99   32.95
  -2 -12   1  947.13   32.91
   2  12   1  860.39   33.54
   2  12   1  941.53   36.03
  -2 -12   1  911.34   34.48
   2 -12  -1  949.73   35.38
   2  12  -1  943.80   35.34
  -2  12   1  974.40   36.06
  -2 -12  -1  937.08   36.54
   2  12  -1  936.34   32.01
  -2 -12  -1  912.10   32.92
   2 -12   1  952.45   36.03
  -2  12   1  881.45   32.64
   2 -12   1  873.42   33.52
   4 -12  -1  122.15   10.21
  -4 -12   1  115.31    9.40
  -4  12  -1  108.92    9.26
  -4 -12   1  112.63   10.53
   4  12   1  101.38    8.74
  -4  12   1   96.46    8.72
  -4 -12  -1  113.46   11.33
  -4 -12  -1  122.89    9.78
   4  12  -1  113.09    7.75
   4 -12   1   98.31    9.11
  -6 -12   1  176.08   24.06
   6 -12  -1  216.90   15.27
   6  12   1  195.82   13.42
   6 -12  -1  181.15   15.95
  -6 -12   1  205.28   14.95
   6 -12   1  189.63   17.12
   6  12  -1  187.31   10.87
  -6 -12  -1  192.46   17.40
  -6  12   1  175.71   14.15
  -6 -12  -1  213.11   15.67
  -8 -12   1   40.10    9.63
   8  12   1   58.82   10.39
   8 -12  -1   69.13   13.49
   8 -12   1   88.07   17.28
  -8 -12  -1   53.16   11.09
   0 -12   2  992.17   38.01
   0 -12  -2  828.56   36.90
   0  12   2  939.82   33.63
   0 -12   2  911.80   32.91
   0 -12  -2  932.34   35.72
   0  12  -2  771.11   42.80
   0  12   2  895.04   33.23
   2  12   2 2968.22   88.15
  -2 -12   2 2858.77   86.07
   2 -12  -2 2817.48   89.43
  -2 -12   2 2910.44   86.84
   2 -12  -2 2843.29   88.93
  -2  12  -2 2984.91   86.53
   2 -12   2 2889.30   87.56
  -2 -12  -2 2907.24   91.98
   2  12  -2 2808.43   88.14
  -2  12   2 2777.22   86.30
  -2 -12  -2 2904.62   86.42
   2 -12   2 2907.21   90.01
  -2  12   2 2714.29   88.60
  -4 -12   2  623.31   27.48
  -4  12  -2  609.06   26.70
   4  12   2  653.06   27.34
   4 -12  -2  625.66   27.56
  -4 -12   2  621.93   26.04
  -4  12   2  589.60   25.86
   4 -12   2  615.63   31.23
  -4 -12  -2  644.64   27.26
  -4 -12  -2  606.12   31.02
   6 -12  -2 1121.10   46.18
   6 -12  -2 1158.45   44.38
   6  12   2 1182.20   44.80
  -6 -12   2 1137.27   47.33
  -6 -12   2 1167.59   45.06
   6 -12   2 1188.43   52.16
  -6 -12  -2 1178.60   46.53
  -6  12   2 1069.17   43.89
   8 -12  -2  212.10   17.45
   8 -12  -2  225.82   17.16
   8  12   2  251.17   17.74
  -8 -12   2  243.56   18.93
   8 -12   2  239.96   22.09
  -8 -12  -2  273.15   20.83
   0 -12   3 1669.86   53.48
   0 -12   3 1672.56   54.88
   0  12   3 1700.29   55.76
   0  12  -3 1565.56   57.94
   0  12   3 1648.59   55.77
   0 -12  -3 1787.86   54.57
   0 -12  -3 1776.67   58.95
   2 -12  -3   -2.78    2.17
  -2 -12   3    0.07    1.30
   2  12   3    1.45    2.00
  -2 -12   3    4.42    2.62
  -2  12  -3   15.11    4.17
   2 -12  -3    1.73    1.84
  -2  12   3    1.77    1.49
   2  12  -3    2.83    2.23
  -2 -12  -3    1.06    2.51
  -2 -12  -3    0.60    1.16
  -2  12   3    0.93    2.26
  -4 -12   3  757.03   28.98
   4 -12  -3  690.17   29.96
  -4  12  -3  711.27   29.80
   4  12   3  689.20   30.99
  -4 -12   3  733.05   29.50
  -4 -12  -3  690.09   29.71
   4 -12   3  771.45   36.32
  -4  12   3  717.67   28.86
   6 -12  -3   60.84   10.81
  -6 -12   3   50.86   10.74
   6  12   3   41.73    9.39
   6 -12  -3   45.84    9.34
  -6 -12   3   53.92    9.64
  -6  12   3   47.10    6.67
   6 -12   3   41.97   11.10
  -6 -12  -3   56.67   10.74
   8 -12  -3   58.09    9.01
   8 -12  -3   74.96   11.68
  -8 -12   3   60.29   11.93
   8  12   3   55.77   12.30
  -8 -12  -3   75.35   14.94
   8 -12   3   44.85   14.09
   0 -12   4 2844.89   86.81
   0 -12  -4 2772.96   90.50
   0 -12  -4 2977.71   85.99
   0  12   4 2867.87   88.73
   0  12  -4 2695.57   90.10
   0  12   4 2888.90   87.93
   2 -12  -4  798.71   32.44
  -2 -12   4  768.45   28.26
  -2  12  -4  831.43   30.02
   2  12   4  791.60   32.76
   2 -12  -4  792.64   31.28
  -2 -12  -4  802.90   29.85
  -2 -12  -4  792.67   35.79
  -2  12   4  771.75   32.44
  -2  12   4  785.16   30.25
  -4  12  -4 1650.67   55.04
   4  12   4 1663.80   58.49
   4 -12  -4 1553.14   54.28
   4 -12  -4 1533.43   53.91
  -4 -12   4 1587.11   52.73
  -4  12   4 1492.63   52.72
   4 -12   4 1656.01   63.34
  -4  12   4 1577.95   58.02
  -4 -12  -4 1632.81   55.26
   6  12   4  398.60   24.11
  -6 -12   4  398.91   22.18
   6 -12  -4  404.11   20.30
  -6 -12   4  406.28   21.37
   6 -12  -4  416.00   21.71
   6 -12   4  406.99   28.91
  -6 -12  -4  415.30   23.51
  -6  12   4  381.03   21.16
   0  12   5   57.63    9.93
   0 -12  -5   38.82    4.88
   0 -12  -5   38.33    8.44
   0 -12   5   37.08    5.11
   0  12   5   47.43    8.05
  -2 -12   5  914.51   32.83
   2 -12  -5  925.03   35.67
   2  12   5  969.65   38.46
  -2  12  -5  865.02   32.72
  -2 -12   5  925.81   31.50
   2 -12  -5  935.51   34.83
  -2  12   5  926.21   34.16
  -2  12   5  915.81   36.82
  -2 -12  -5  860.77   32.92
  -2 -12  -5  913.48   40.40
   4 -12  -5   10.84    3.72
  -4 -12   5    4.59    3.22
  -4 -12   5   12.42    3.85
  -4  12  -5   10.24    4.02
   4 -12  -5    7.24    3.72
   4  12   5    8.55    4.91
  -4  12   5   12.42    4.28
  -4  12   5   15.83    6.36
  -4 -12  -5    5.38    3.79
   4 -12   5    3.44    4.64
  -6 -12   5  118.49   10.43
  -6 -12   5  122.38   11.08
   6  12   5  125.62   13.53
  -6 -12  -5  131.74   12.72
   6 -12   5  138.77   17.18
  -6  12   5  129.26   11.19
   0  12  -6  753.34   28.13
   0 -12  -6  746.20   33.21
   0  12   6  790.70   33.58
   0 -12  -6  764.60   29.02
  -2 -12   6 1537.78   51.63
   2 -12  -6 1605.97   53.75
   2 -12  -6 1611.48   53.75
  -2 -12   6 1551.80   50.62
   2  12   6 1634.33   59.61
  -2  12  -6 1667.87   52.98
  -2 -12  -6 1685.86   53.46
   2 -12   6 1638.94   61.62
  -2 -12  -6 1582.65   61.32
  -2  12   6 1581.30   53.52
  -2  12   6 1596.68   57.32
   4  12   6  551.17   29.51
  -4  12  -6  571.88   26.85
  -4 -12   6  565.70   23.03
  -4 -12   6  492.20   21.28
  -4  12   6  594.35   29.35
   4 -12   6  534.92   32.39
  -4 -12  -6  540.23   25.15
  -4  12   6  542.86   24.17
  -6 -12   6  684.76   28.30
  -6 -12   6  612.15   27.20
   6  12   6  667.63   35.56
   6 -12   6  712.72   41.76
  -6 -12  -6  709.04   33.27
  -6  12   6  600.99   28.89
   0 -12  -7  318.13   15.74
   0 -12  -7  314.51   18.74
   0  12  -7  289.94   14.40
   0  12   7  342.03   20.56
   0 -12   7  363.82   20.48
  -2  12  -7   10.22    3.63
   2  12   7   12.10    5.53
  -2 -12   7    6.66    2.68
   2 -12   7    9.43    6.07
  -2  12   7    0.95    2.79
  -2 -12  -7   10.83    3.96
  -2  12   7   19.80    6.16
  -4 -12   7  125.39    8.73
  -4  12  -7  132.56   10.95
   4  12   7  147.27   14.76
  -4  12   7  128.32   10.38
  -4 -12  -7  132.01   11.00
  -4  12   7  134.20   13.24
   4 -12   7  130.94   16.15
   0 -12   8 1091.09   44.19
   0 -12  -8 1010.69   35.96
   0  12   8  983.08   43.96
   2  12   8  466.67   27.80
  -2 -12   8  502.11   22.89
  -2  12  -8  468.91   20.44
  -2  12   8  435.23   25.14
   2 -12   8  491.84   29.99
  -2 -12  -8  471.21   21.31
   1  13   0    1.85    1.82
  -1  13   0   -0.67    0.95
  -1 -13   0    1.50    2.09
  -1  13   0    3.30    2.69
   1  13   0    3.38    2.29
   3 -13   0   14.54    4.59
  -3  13   0   -0.36    1.56
  -3 -13   0   -2.82    1.74
   3 -13   0    1.83    2.53
   3  13   0    5.71    3.60
   5  13   0    5.46    3.15
   5 -13   0    4.46    3.24
  -5 -13   0   -2.39    1.80
  -5 -13   0    3.00    4.01
   5 -13   0    2.15    3.43
  -5  13   0    0.63    1.99
  -7 -13   0   -1.50    2.74
   7  13   0    0.30    2.88
   7 -13   0   -1.07    4.37
   1 -13  -1  433.68   20.20
  -1 -13   1  419.72   19.64
   1 -13  -1  402.68   20.47
   1  13   1  396.05   20.18
   1  13   1  420.73   19.27
  -1 -13   1  441.56   19.18
  -1  13  -1  416.34   18.89
   1 -13   1  444.05   20.53
   1 -13   1  443.25   19.99
  -1  13   1  423.53   20.22
   1  13  -1  413.52   19.87
  -1 -13  -1  408.93   21.07
  -1  13   1  400.69   18.93
   1  13  -1  439.18   19.03
  -1 -13  -1  418.24   18.89
   3 -13  -1  870.94   34.39
  -3 -13   1  779.71   31.35
   3 -13  -1  829.48   35.32
  -3 -13   1  823.15   34.12
   3  13   1  924.87   32.72
  -3  13  -1  873.23   32.53
  -3 -13  -1  838.94   36.34
  -3  13   1  742.58   31.15
   3 -13   1  913.46   33.65
   3 -13   1  866.52   36.12
  -3 -13  -1  854.85   32.38
   3  13  -1  886.73   30.36
   5 -13  -1  743.78   32.33
  -5 -13   1  726.88   31.37
   5  13   1  805.84   30.89
   5 -13  -1  679.54   33.92
  -5 -13   1  689.41   33.67
  -5 -13  -1  711.55   31.55
  -5 -13  -1  673.61   35.40
   5 -13   1  733.65   31.46
   5  13  -1  770.69   27.18
   5 -13   1  717.09   36.15
   7  13   1  569.30   25.54
  -7 -13   1  471.46   26.76
   7 -13  -1  468.23   28.80
   7 -13   1  500.31   32.42
  -7 -13  -1  465.42   27.19
   1 -13  -2    9.32    3.75
   1  13   2   17.11    4.37
   1  13   2   14.82    4.42
  -1  13  -2   19.92    4.53
  -1 -13   2   18.98    4.86
  -1 -13   2   21.82    4.81
   1 -13  -2   17.07    4.70
  -1  13   2   11.13    3.09
  -1 -13  -2   12.39    4.72
  -1  13   2   13.49    4.74
  -1 -13  -2   15.27    4.14
   1  13  -2   13.19    4.28
   1 -13   2   12.97    4.19
   1 -13   2    7.72    3.10
   3  13   2    7.46    3.25
   3 -13  -2    5.24    3.27
  -3  13  -2    2.49    2.26
   3 -13  -2    5.68    3.36
  -3 -13   2    2.70    1.93
  -3 -13   2    5.80    3.23
  -3 -13  -2    5.57    2.98
  -3  13   2   -0.93    2.12
  -3  13   2    4.01    2.39
  -3 -13  -2    4.07    4.10
   3 -13   2    9.05    3.30
  -5 -13   2    0.24    2.14
   5 -13  -2   -2.95    2.78
  -5 -13   2    0.61    3.66
   5  13   2    1.37    2.35
  -5  13  -2   -2.99    2.84
   5 -13  -2   -1.99    2.93
   5 -13   2    1.64    3.19
  -5 -13  -2   -3.63    1.76
  -5  13   2   -1.31    3.13
  -5 -13  -2   -1.14    2.83
   7  13   2    5.17    3.83
   7 -13  -2    3.86    5.15
  -7 -13   2    3.17    2.96
   7 -13  -2    1.77    4.52
   7 -13   2    4.62    4.52
  -7 -13  -2    4.67    4.06
  -1 -13   3 1507.57   48.63
  -1 -13   3 1516.58   49.29
   1  13   3 1436.29   50.62
   1 -13  -3 1399.26   52.27
   1 -13  -3 1499.32   50.30
  -1  13  -3 1524.85   49.12
   1  13   3 1514.14   52.25
  -1  13   3 1534.46   50.26
   1 -13   3 1483.84   51.46
  -1 -13  -3 1473.63   48.97
  -1 -13  -3 1441.36   53.98
   1 -13   3 1400.72   49.03
  -1  13   3 1438.01   51.00
   1  13  -3 1520.41   50.20
  -3 -13   3 1007.20   37.59
   3  13   3 1035.93   39.76
   3 -13  -3 1028.08   40.50
  -3  13  -3 1082.24   38.28
   3 -13  -3 1034.98   40.16
  -3 -13   3 1060.17   37.33
  -3  13   3 1048.91   40.99
  -3 -13  -3 1042.09   37.97
  -3 -13  -3 1025.91   44.22
  -3  13   3 1004.30   37.56
   5 -13  -3  731.58   33.33
  -5 -13   3  737.72   33.08
   5 -13  -3  758.47   32.82
  -5 -13   3  737.50   31.27
   5  13   3  798.11   34.26
  -5 -13  -3  798.04   33.65
   5 -13   3  838.01   40.59
  -5  13   3  707.24   32.32
  -7 -13   3  440.33   24.60
   7 -13  -3  399.00   23.64
   7 -13  -3  407.50   22.77
   7  13   3  457.56   25.63
  -7 -13   3  432.15   26.23
  -7 -13  -3  460.88   26.65
   7 -13   3  448.12   31.25
  -1 -13   4    6.60    2.98
   1 -13  -4    4.85    3.75
  -1 -13   4   11.19    3.60
   1  13   4    8.76    3.21
   1  13   4    6.55    3.25
  -1  13  -4    7.74    3.05
   1 -13  -4    5.83    3.00
   1 -13   4   10.33    3.88
  -1  13   4    9.52    4.06
  -1  13   4   12.23    4.17
  -1 -13  -4   21.65    6.48
  -1 -13  -4    8.97    3.50
   1  13  -4   12.58    4.13
   3  13   4    2.71    3.32
   3 -13  -4   10.64    4.67
  -3 -13   4    3.73    3.96
  -3 -13   4    5.52    2.65
   3 -13  -4    9.41    3.51
  -3  13  -4    5.77    2.80
  -3  13   4    2.58    2.16
  -3 -13  -4    3.43    2.73
  -3  13   4   20.97    6.58
   5 -13  -4    5.43    4.12
   5 -13  -4    3.78    3.81
  -5 -13   4   14.05    4.37
  -5 -13   4    6.26    4.00
   5  13   4    5.65    4.01
   5 -13   4    2.89    4.51
  -5  13   4    9.48    3.80
  -5 -13  -4    6.35    3.66
  -7 -13   4    6.50    4.51
   7  13   4    2.38    4.98
   7 -13  -4    5.46    4.62
  -7 -13   4   -0.09    8.02
   7 -13  -4   -2.86    4.72
   7 -13   4   17.58    8.05
  -7 -13  -4   12.55    6.15
  -1 -13   5 1635.94   54.05
   1  13   5 1612.87   57.70
   1 -13  -5 1641.67   54.51
  -1 -13   5 1579.07   52.32
   1 -13  -5 1570.21   57.59
  -1  13  -5 1667.90   53.41
  -1  13   5 1655.31   55.54
  -1 -13  -5 1613.16   60.39
  -1  13   5 1638.39   57.08
   1  13  -5 1642.34   53.80
  -1 -13  -5 1671.34   53.73
  -3  13  -5 1280.53   44.52
   3 -13  -5 1250.35   45.43
   3  13   5 1263.54   49.19
  -3 -13   5 1323.20   43.72
  -3 -13  -5 1203.05   44.08
   3 -13   5 1233.55   52.47
  -3  13   5 1262.94   44.69
  -3  13   5 1281.23   48.72
  -3 -13  -5 1202.42   52.39
  -5 -13   5  679.19   28.42
   5 -13  -5  688.61   27.52
   5  13   5  741.83   34.97
   5 -13  -5  668.15   26.93
  -5 -13   5  682.93   28.95
  -5  13   5  660.74   29.20
   5 -13   5  665.56   38.81
  -5 -13  -5  693.52   31.28
   7  13   5  479.84   29.22
  -7 -13  -5  455.46   27.58
   7 -13   5  462.57   34.07
   1 -13  -6    5.37    2.84
   1 -13  -6   -2.11    3.67
  -1  13  -6    7.00    3.46
  -1 -13   6    7.28    3.28
   1  13   6    3.35    3.39
  -1  13   6   12.25    4.40
  -1  13   6    3.74    4.22
  -1 -13  -6    4.28    2.75
  -1 -13  -6    2.45    4.67
   1  13  -6    7.88    4.01
  -3  13  -6    5.98    3.70
  -3 -13   6   12.42    3.84
   3  13   6    9.58    5.31
   3 -13  -6   12.68    4.35
   3 -13   6   19.56    8.27
  -3  13   6   12.60    5.39
  -3 -13  -6    5.81    3.31
  -3  13   6   11.30    4.45
  -5 -13   6    5.37    3.13
   5  13   6    0.90    4.22
  -5 -13   6   12.75    4.56
  -5 -13  -6    0.11    3.06
  -5  13   6    3.50    4.78
  -5  13   6   -3.60    3.61
   5 -13   6    8.29    6.01
   1 -13  -7 1235.98   45.65
   1 -13  -7 1250.12   43.50
   1  13   7 1267.32   49.89
  -1  13  -7 1256.04   42.54
   1 -13   7 1246.86   51.08
  -1 -13  -7 1207.13   49.94
  -1 -13  -7 1284.46   43.58
  -1  13   7 1204.39   48.29
  -3 -13   7  886.10   32.06
   3  13   7  902.32   41.41
  -3  13  -7  888.63   34.33
  -3 -13   7  859.56   31.30
  -3  13   7  879.27   34.23
  -3  13   7  876.77   39.28
  -3 -13  -7  897.56   34.70
   3 -13   7  877.18   44.37
  -5 -13   7  556.21   23.62
   5  13   7  565.43   32.91
  -5 -13  -7  580.71   27.92
   5 -13   7  626.04   39.36
  -5  13   7  549.18   25.90
  -1 -13   8   25.68    6.43
   1  13   8   16.92    6.80
  -1 -13  -8    9.49    6.63
   1 -13   8   18.58    6.84
  -1 -13  -8   11.94    4.34
   3  13   8   -1.62    4.42
  -3  13  -8    0.59    4.32
  -3 -13   8    2.55    4.17
  -3  13   8   11.95    8.62
   3 -13   8    6.29    7.01
  -3 -13  -8    9.11    4.20
   0 -14   0 2188.50   69.54
   0  14   0 2231.22   69.85
   0 -14   0 2161.21   70.94
   0  14   0 2195.89   70.04
   2 -14   0  355.72   18.82
  -2 -14   0  354.75   17.30
   2  14   0  390.46   17.84
   2  14   0  320.11   18.80
  -2  14   0  349.32   17.42
  -2 -14   0  358.88   19.77
   2 -14   0  355.21   19.65
  -4 -14   0  774.39   36.30
   4  14   0  925.39   31.99
   4 -14   0  813.90   33.92
  -4 -14   0  756.98   32.24
  -6 -14   0  298.56   19.21
   6 -14   0  305.07   22.43
  -6 -14   0  276.06   23.35
  -8 -14   0  390.96   25.33
   8 -14   0  357.40   26.82
   8  14   0  383.82   19.76
   0 -14   1  653.31   26.26
   0  14  -1  660.61   26.34
   0  14   1  634.97   26.49
   0 -14  -1  615.82   27.70
   0 -14   1  624.82   26.31
   0 -14  -1  623.03   25.55
   0  14   1  554.87   25.45
  -2 -14   1  237.83   13.63
   2 -14  -1  249.96   15.42
   2  14   1  269.43   16.59
   2  14   1  226.73   13.54
  -2 -14   1  261.10   15.40
  -2  14  -1  240.82   13.65
   2 -14  -1  252.41   15.83
   2 -14   1  247.93   14.56
   2  14  -1  238.20   12.94
   2  14  -1  228.26   15.25
  -2 -14  -1  252.05   13.83
  -2  14   1  243.73   13.99
  -2  14   1  264.52   16.21
  -2 -14  -1  231.79   15.93
   2 -14   1  261.99   16.20
   4  14   1  362.06   18.61
  -4 -14   1  427.43   20.10
  -4 -14   1  385.63   22.01
   4 -14  -1  360.25   20.46
  -4 -14  -1  377.25   23.16
  -4  14   1  360.72   18.99
   4  14  -1  403.86   17.38
   4 -14   1  322.17   18.89
  -4 -14  -1  382.73   19.68
   6 -14  -1   78.79   10.98
   6 -14  -1   70.14    9.67
   6  14   1   87.23    8.99
  -6 -14   1   80.70   11.96
  -6 -14   1   88.88    9.72
   6 -14   1   85.78   11.84
  -6 -14  -1   85.10   10.32
   8 -14  -1   69.45   14.66
  -8 -14   1   57.65   11.53
   8  14   1   51.39    9.99
   8 -14   1   63.94   14.64
  -8 -14  -1   30.23    8.44
   0  14   2  479.47   22.62
   0 -14  -2  516.15   22.10
   0  14  -2  486.31   21.82
   0 -14   2  523.18   22.36
   0 -14   2  499.82   22.49
   0 -14  -2  495.83   24.83
   0  14   2  487.26   22.65
  -2 -14   2 1207.70   43.48
  -2  14  -2 1301.88   42.99
   2  14   2 1214.40   46.66
  -2 -14   2 1190.28   42.46
   2  14   2 1334.97   44.57
   2 -14  -2 1250.35   45.74
   2 -14  -2 1195.54   45.99
  -2 -14  -2 1255.91   42.74
  -2 -14  -2 1191.10   47.76
   2 -14   2 1191.20   46.08
   2  14  -2 1205.36   45.11
  -2  14   2 1235.56   45.54
  -2  14   2 1172.60   42.73
   2 -14   2 1247.95   43.79
  -4  14  -2  421.34   21.55
  -4 -14   2  434.25   21.09
   4 -14  -2  477.08   23.63
   4  14   2  479.33   22.61
  -4 -14   2  445.23   23.13
  -4  14   2  422.36   21.17
  -4 -14  -2  424.74   21.53
  -6 -14   2  653.28   33.72
   6  14   2  689.24   30.22
   6 -14  -2  699.37   41.44
  -6 -14   2  601.82   29.37
   6 -14  -2  568.44   31.43
   6 -14   2  587.15   37.01
  -6 -14  -2  645.74   31.60
  -8 -14   2  170.80   16.27
   8  14   2  203.37   16.06
   8 -14  -2  212.33   18.38
   8 -14   2  204.22   21.59
  -8 -14  -2  208.30   18.22
   0 -14   3   40.77    5.31
   0  14  -3   36.47    4.99
   0 -14  -3   34.08    7.56
   0 -14  -3   38.46    5.13
   0 -14   3   40.39    5.58
   0  14   3   41.60    5.78
   0  14   3   47.43    8.54
   2  14   3  747.40   32.31
  -2  14  -3  765.78   30.32
  -2 -14   3  822.18   30.94
   2 -14  -3  807.14   33.29
  -2 -14   3  799.45   30.83
   2 -14  -3  806.35   34.37
   2  14  -3  793.60   32.59
  -2 -14  -3  766.86   36.14
  -2  14   3  839.59   31.86
  -2  14   3  832.33   33.95
  -2 -14  -3  817.88   30.89
   2 -14   3  826.09   34.73
   4  14   3   35.00    7.81
  -4 -14   3   36.00    6.85
  -4  14  -3   39.87    9.54
   4 -14  -3   42.06    8.85
  -4 -14   3   45.64    8.78
  -4  14   3   41.50    7.66
  -4 -14  -3   20.57    5.33
   4 -14   3   36.52   10.19
   6 -14  -3  170.89   14.04
  -6 -14   3  174.14   13.30
   6 -14  -3  141.12   13.39
  -6 -14   3  135.31   13.73
   6  14   3  164.98   14.41
   6 -14   3  166.84   18.22
  -6 -14  -3  160.88   14.06
   0  14   4 1289.02   48.41
   0 -14   4 1325.07   45.68
   0 -14   4 1353.05   47.77
   0  14  -4 1417.92   46.82
   0 -14  -4 1316.19   51.33
   0 -14  -4 1404.16   46.86
   0  14   4 1351.27   48.76
  -2 -14   4  721.83   28.66
   2  14   4  763.39   32.23
  -2  14  -4  744.38   29.30
   2 -14  -4  720.22   32.35
   2 -14  -4  747.81   31.37
  -2 -14   4  719.36   28.37
  -2  14   4  753.84   30.06
   2  14  -4  708.37   30.17
  -2 -14  -4  739.67   29.24
  -2 -14  -4  757.50   36.01
  -2  14   4  740.22   32.35
  -4  14  -4 1051.94   40.53
  -4 -14   4 1069.58   39.17
  -4 -14   4 1063.83   40.31
   4  14   4 1046.10   42.80
   4 -14  -4 1078.36   41.98
  -4 -14  -4 1095.29   40.89
  -4  14   4 1051.56   39.94
  -4  14   4 1012.56   43.68
   4 -14   4 1088.10   48.93
  -6 -14   4  330.55   21.23
  -6 -14   4  316.22   18.81
   6 -14  -4  322.57   19.11
   6 -14  -4  317.91   19.48
   6  14   4  361.96   22.48
   6 -14   4  332.18   26.70
  -6 -14  -4  347.02   21.55
   0 -14   5  811.29   32.33
   0  14   5  768.48   33.49
   0  14   5  786.04   33.11
   0 -14  -5  807.73   30.97
   0  14  -5  783.19   30.44
   0 -14  -5  768.04   35.39
  -2  14  -5   -0.07    2.00
   2 -14  -5    1.05    3.15
   2 -14  -5    0.81    2.22
   2  14   5    2.96    3.43
  -2 -14   5    5.65    3.05
  -2 -14   5   -1.53    1.45
  -2 -14  -5   -6.47    3.86
  -2 -14  -5    0.71    2.13
  -2  14   5    2.41    3.43
  -2  14   5    3.57    3.10
  -4 -14   5  307.90   16.48
   4 -14  -5  283.85   16.95
  -4 -14   5  279.87   16.12
   4 -14  -5  308.13   17.35
   4  14   5  266.10   27.34
   4 -14   5  300.77   23.42
  -4  14   5  318.57   17.45
  -4 -14  -5  289.22   17.25
  -4  14   5  308.08   20.11
  -6 -14   5    9.82    6.64
  -6 -14   5   26.25    6.51
   6 -14  -5   38.88    6.54
   6  14   5   12.62    6.72
   6 -14  -5   28.14    8.25
   6 -14   5   41.35   13.33
  -6 -14  -5   24.68    6.37
   0 -14  -6  884.30   39.09
   0 -14  -6  901.55   34.25
   0 -14   6  922.89   35.78
   0  14   6  873.79   37.92
   0  14  -6  904.14   33.55
  -2 -14   6 1224.83   41.36
   2 -14  -6 1227.18   45.62
   2  14   6 1183.20   48.02
   2 -14  -6 1232.17   44.60
  -2 -14   6 1199.75   42.60
  -2  14  -6 1232.72   42.99
   2 -14   6 1236.63   51.58
  -2 -14  -6 1160.60   50.95
  -2 -14  -6 1167.47   42.92
  -2  14   6 1200.83   47.50
  -2  14   6 1194.77   44.25
   4 -14  -6  463.27   20.02
  -4 -14   6  429.05   20.93
   4  14   6  487.95   27.72
  -4 -14   6  499.27   21.91
  -4  14   6  470.67   23.06
  -4 -14  -6  484.66   23.63
  -4  14   6  491.26   27.44
   4 -14   6  456.93   33.51
   6  14   6  453.47   28.79
  -6 -14   6  431.20   22.68
  -6 -14   6  442.05   22.22
   6 -14   6  449.15   33.63
  -6 -14  -6  453.68   25.60
   0 -14  -7    0.78    6.03
   0  14   7    6.67    5.41
   0 -14  -7    7.76    3.71
   0  14  -7    8.70    3.69
  -2 -14   7  197.73   12.10
  -2  14  -7  202.15   12.79
  -2 -14   7  182.65   11.57
   2 -14  -7  201.68   13.28
   2  14   7  199.34   16.60
  -2 -14  -7  192.20   12.80
  -2  14   7  199.90   13.45
  -2  14   7  209.20   16.11
   2 -14   7  188.73   17.33
  -4 -14   7   17.60    4.25
  -4 -14   7    8.07    4.85
   4  14   7   11.19    6.24
  -4  14   7   20.28    5.41
  -4 -14  -7   13.46    5.11
   4 -14   7   18.06    8.99
  -4  14   7   14.95    6.45
   0  14   8  839.10   39.59
   0 -14   8  866.38   39.94
   0 -14  -8  863.40   36.84
   0 -14  -8  848.75   32.89
  -2  14  -8  508.31   22.34
  -2 -14   8  454.26   20.86
   2  14   8  477.09   28.27
  -2  14   8  509.49   27.82
   2 -14   8  465.85   31.01
  -2 -14  -8  482.48   22.41
  -1 -15   0   -1.23    1.08
   1  15   0    1.28    2.10
  -1  15   0    3.84    2.25
   1 -15   0    2.63    2.63
  -1 -15   0    1.42    2.62
   1 -15   0    5.11    3.43
   1  15   0    1.06    1.66
  -3 -15   0    8.35    4.60
  -3 -15   0   -0.19    1.18
   3 -15   0    1.18    2.16
   3  15   0   -2.90    1.56
  -3  15   0    5.55    3.30
   3 -15   0    2.98    2.48
  -5  15   0    3.20    3.36
  -5 -15   0    5.66    4.82
   5  15   0    4.46    3.57
   5 -15   0    4.97    4.39
   5 -15   0    7.53    4.77
  -5 -15   0    0.19    1.98
   7 -15   0   -3.42    5.00
  -7 -15   0   -4.26    2.62
   7  15   0    1.34    3.01
   1 -15  -1 3293.97  100.75
   1  15   1 3319.92   99.67
   1  15   1 3200.70  101.82
  -1 -15   1 3375.78  101.08
  -1 -15   1 3218.67   98.78
  -1  15  -1 3268.19   99.15
   1 -15  -1 3258.27  102.10
  -1  15   1 3156.00   99.22
   1  15  -1 3294.59  101.12
  -1  15   1 3429.51  101.49
  -1 -15  -1 3191.95  103.02
   1 -15   1 3236.99  100.97
  -1 -15  -1 3217.46   98.58
   1 -15   1 3274.76  100.48
  -3 -15   1 1925.93   67.16
   3  15   1 2018.91   63.74
  -3  15  -1 1972.94   63.72
   3 -15  -1 1947.25   66.24
  -3 -15   1 1844.19   62.76
   3 -15  -1 1855.10   67.65
  -3 -15  -1 1916.63   69.42
  -3  15   1 1836.91   62.90
   3  15  -1 2098.18   61.95
   3 -15   1 1931.54   64.94
  -3 -15  -1 2004.50   63.89
   3 -15   1 1939.86   68.92
   5 -15  -1 1133.74   43.29
  -5 -15   1 1016.48   40.43
   5 -15  -1 1031.39   45.85
   5  15   1 1066.73   39.48
  -5 -15   1 1019.63   53.64
   5 -15   1 1053.61   47.96
  -5 -15  -1  989.70   46.71
  -5  15   1  951.08   39.86
  -5 -15  -1 1021.25   40.94
   7 -15  -1  455.40   35.76
   7  15   1  503.44   24.97
  -7 -15   1  498.87   27.84
   7 -15   1  518.94   33.59
  -7 -15  -1  473.82   27.86
   7  15  -1  548.09   25.24
   1 -15  -2  262.31   15.78
  -1  15  -2  279.26   15.25
  -1 -15   2  278.92   15.02
   1  15   2  255.23   15.28
  -1 -15   2  271.44   15.37
   1 -15  -2  243.86   16.65
   1  15   2  268.64   16.66
  -1 -15  -2  258.61   14.62
  -1  15   2  284.56   15.65
  -1  15   2  244.62   15.62
  -1 -15  -2  297.51   18.61
   1 -15   2  241.29   14.69
   1 -15   2  260.92   16.26
   1  15  -2  289.54   16.37
  -3  15  -2  109.61    9.33
  -3 -15   2  112.87   10.39
   3 -15  -2  130.60   11.50
   3  15   2  103.33    9.58
  -3 -15   2  108.91    9.27
   3 -15  -2   99.36   10.43
  -3  15   2  116.59    9.82
  -3  15   2  127.31   12.10
   3 -15   2  109.00    9.73
  -3 -15  -2   97.09    8.99
   5 -15  -2   21.54    6.45
  -5 -15   2   18.50    5.75
  -5 -15   2   30.53    8.20
   5  15   2   24.69    6.68
   5 -15  -2   18.67    7.36
  -5  15   2   20.09    5.53
  -5 -15  -2   11.08    4.71
   5 -15   2   13.98    6.88
  -7 -15   2   16.17    5.84
   7 -15  -2   16.55    7.50
   7 -15   2   21.09    8.93
  -7 -15  -2   23.67    7.54
   1 -15  -3 1890.48   68.36
  -1 -15   3 1991.38   64.08
   1  15   3 1921.20   65.32
  -1  15  -3 2001.04   63.93
  -1 -15   3 2002.64   64.05
   1  15   3 1949.77   67.30
   1 -15  -3 2110.11   65.95
   1  15  -3 1950.91   65.13
  -1 -15  -3 2002.58   63.76
   1 -15   3 1971.85   66.80
  -1  15   3 1961.34   66.30
  -1  15   3 1954.86   64.97
   1 -15   3 1942.79   63.87
  -1 -15  -3 1901.86   69.74
   3 -15  -3 1411.20   52.97
  -3 -15   3 1448.54   49.31
   3  15   3 1435.08   51.69
   3 -15  -3 1431.70   53.45
  -3 -15   3 1439.97   50.69
  -3  15  -3 1491.69   50.10
  -3 -15  -3 1402.36   57.42
  -3  15   3 1418.19   49.86
  -3 -15  -3 1426.06   49.64
   3 -15   3 1408.40   52.65
  -3  15   3 1371.97   52.91
   5 -15  -3  941.94   39.54
  -5 -15   3  865.09   39.46
   5  15   3  943.74   39.01
  -5 -15   3  915.57   36.89
   5 -15  -3  936.85   40.84
   5 -15   3 1008.88   47.57
  -5  15   3  888.21   36.97
  -5 -15  -3  949.04   38.71
  -7 -15   3  391.17   23.27
   7 -15  -3  389.55   24.99
   7  15   3  435.06   24.90
   7 -15  -3  409.51   24.59
  -7 -15  -3  432.40   26.13
   7 -15   3  425.23   31.72
  -1 -15   4  333.34   17.35
  -1  15  -4  323.76   16.71
   1 -15  -4  311.48   17.33
   1 -15  -4  289.57   19.41
  -1 -15   4  298.51   15.91
   1  15   4  300.22   18.06
   1  15   4  293.29   18.58
  -1  15   4  316.44   18.61
  -1 -15  -4  297.13   16.27
   1 -15   4  321.30   18.67
   1  15  -4  321.43   17.60
  -1 -15  -4  305.40   20.84
   1 -15   4  287.41   16.51
  -1  15   4  334.71   18.13
   3 -15  -4  170.88   13.75
  -3  15  -4  140.52   11.30
   3 -15  -4  167.08   13.48
  -3 -15   4  183.99   11.93
   3  15   4  148.49   12.64
  -3 -15   4  167.99   11.92
  -3  15   4  154.66   13.56
  -3  15   4  159.29   11.81
  -3 -15  -4  156.67   11.65
   5  15   4  102.48   11.45
   5 -15  -4  131.06   12.28
   5 -15  -4  123.75   11.89
  -5 -15   4   82.35    9.95
  -5 -15   4  117.73   10.26
  -5  15   4  134.04   11.30
   5 -15   4  127.08   15.48
   7 -15  -4   -0.80    5.15
  -7 -15   4    3.20    4.06
   7 -15  -4   10.87    7.48
   7  15   4   -0.74    5.19
   7 -15   4   11.86    8.82
  -7 -15  -4    7.04    5.65
   1  15   5 1228.07   47.43
  -1 -15   5 1191.33   42.30
   1 -15  -5 1158.63   47.87
   1 -15  -5 1217.17   44.48
  -1 -15   5 1183.30   43.92
  -1  15  -5 1302.35   43.81
  -1  15   5 1176.72   45.25
  -1 -15  -5 1264.53   43.70
  -1 -15  -5 1158.40   50.05
  -1  15   5 1170.53   46.50
   1  15  -5 1260.83   44.39
   1 -15   5 1252.31   46.92
  -3 -15   5 1040.88   37.68
  -3 -15   5 1051.26   37.98
  -3  15  -5  976.80   39.45
   3  15   5 1009.92   42.47
   3 -15  -5  988.30   40.90
   3 -15   5 1023.67   47.26
  -3  15   5 1024.62   39.36
  -3 -15  -5 1029.47   38.66
  -3  15   5 1035.47   43.06
   5 -15  -5  546.07   26.36
   5 -15  -5  572.27   26.56
   5  15   5  562.40   30.53
  -5 -15   5  573.26   27.77
  -5 -15   5  635.96   27.20
   5 -15   5  600.51   37.23
  -5  15   5  595.46   27.81
  -5 -15  -5  588.07   28.45
  -1  15  -6  158.19   11.16
  -1 -15   6  171.32   12.07
   1 -15  -6  165.24   12.17
   1 -15  -6  153.17   14.11
   1  15   6  154.53   13.72
  -1 -15   6  147.66   10.64
  -1 -15  -6  168.60   11.49
  -1 -15  -6  162.85   16.46
  -1  15   6  155.83   13.62
   1  15  -6  145.65   11.20
  -1  15   6  157.37   12.43
   3 -15  -6  160.34   12.72
   3  15   6  163.00   14.68
  -3  15  -6  148.79   11.90
  -3 -15   6  166.39   11.29
  -3 -15   6  171.90   11.89
  -3  15   6  176.92   15.13
  -3 -15  -6  164.30   12.16
  -3  15   6  173.68   13.05
   3 -15   6  171.13   17.33
  -5 -15   6   28.29    6.40
  -5 -15   6   37.13    7.69
   5  15   6   18.76    7.40
   5 -15   6   48.77   13.54
  -5  15   6   34.12    9.90
  -5 -15  -6   32.65    8.04
  -5  15   6   38.80    8.82
  -1 -15   7  668.28   28.55
   1 -15  -7  692.33   32.32
  -1  15  -7  721.94   28.80
   1 -15  -7  694.06   29.81
   1  15   7  685.64   34.09
  -1 -15  -7  727.41   29.53
  -1 -15  -7  733.85   36.54
  -1  15   7  674.32   33.44
   1 -15   7  741.76   36.77
  -3 -15   7  481.89   22.15
  -3 -15   7  531.40   23.14
   3  15   7  488.36   28.87
  -3  15  -7  519.16   24.38
   3 -15   7  572.27   34.53
  -3 -15  -7  497.56   24.30
  -3  15   7  492.18   24.87
  -1  15  -8   65.09    7.41
   1 -15  -8   68.60    7.73
   1 -15  -8   71.10   16.58
   1  15   8   72.21   14.08
  -1  15   8   69.66    9.80
  -1 -15  -8   85.42   14.73
   1 -15   8   71.94   14.25
  -1 -15  -8   62.26    7.58
   0  16   0 2041.62   64.86
   0  16   0 1921.99   64.28
   0 -16   0 1851.71   65.02
   0 -16   0 1902.42   63.54
   2  16   0 1887.32   59.91
   2 -16   0 1833.36   62.32
   2  16   0 1749.83   63.57
   2 -16   0 1857.23   64.15
  -2 -16   0 1790.07   59.54
  -2 -16   0 1752.38   63.60
  -2  16   0 1745.08   59.70
  -4 -16   0 1566.84   56.80
   4 -16   0 1602.30   59.00
  -4 -16   0 1652.33   73.24
   4  16   0 1816.30   56.45
  -6 -16   0  644.60   31.48
   6  16   0  691.71   28.42
   6 -16   0  643.10   36.86
   8 -16   0  337.00   27.09
  -8 -16   0  375.08   25.31
   0  16   1  882.87   36.00
   0 -16   1 1062.95   38.15
   0 -16  -1  869.50   38.19
   0 -16  -1  942.42   36.22
   0  16  -1  961.04   36.75
   0  16   1  947.77   37.13
   0 -16   1  940.53   36.41
   2  16   1   65.55    7.22
   2  16   1   53.05    7.77
   2 -16  -1   60.60    7.93
  -2 -16   1   74.02    7.50
   2 -16  -1   68.72    8.55
  -2  16  -1   65.14    7.28
  -2 -16   1   56.52    7.76
  -2  16   1   60.57    7.16
   2  16  -1   64.07    8.32
  -2 -16  -1   63.07    7.10
   2 -16   1   54.03    7.27
   2 -16   1   64.62    8.18
  -2  16   1   65.25    8.57
  -2 -16  -1   68.60    9.01
   2  16  -1   56.70    6.61
  -4 -16   1  317.24   17.91
   4  16   1  279.55   16.74
  -4 -16   1  307.95   20.58
  -4  16   1  326.36   18.03
   4  16  -1  306.07   15.51
  -4 -16  -1  315.64   17.94
  -4 -16  -1  296.95   21.87
  -6 -16   1   43.60    8.28
   6  16   1   45.83    8.95
   6 -16  -1   60.80   13.32
  -6 -16  -1   58.54    8.24
   6  16  -1   38.41    5.53
   6 -16   1   48.13   13.01
   0 -16   2 1833.73   62.30
   0  16   2 1799.49   62.97
   0 -16   2 1940.33   63.27
   0 -16  -2 1857.64   66.79
   0  16   2 1829.39   63.49
   0  16  -2 1876.85   62.57
   0 -16  -2 1998.27   62.82
   2 -16  -2 2100.05   71.58
   2 -16  -2 2142.43   72.64
  -2  16  -2 2139.20   68.33
  -2 -16   2 2021.78   67.57
  -2 -16   2 2163.82   70.12
   2  16   2 2130.19   69.15
   2  16   2 2053.02   72.81
  -2 -16  -2 2089.03   67.92
   2 -16   2 2117.57   69.33
  -2 -16  -2 2086.59   74.89
  -2  16   2 2174.58   71.48
   2 -16   2 2118.13   72.61
   2  16  -2 2017.12   71.01
  -2  16   2 2074.42   68.66
  -4 -16   2 1055.85   44.18
   4  16   2 1103.83   41.82
  -4 -16   2 1066.58   40.75
   4 -16  -2 1132.03   44.50
  -4  16   2 1039.13   40.74
  -4 -16  -2 1098.46   41.52
  -6 -16   2  603.88   35.26
   6 -16  -2  695.94   36.16
  -6 -16   2  660.09   36.36
   6  16   2  702.67   31.91
  -6 -16  -2  707.94   33.26
   6 -16   2  709.32   40.18
   0 -16   3   38.27    5.78
   0 -16  -3   62.14   11.63
   0  16   3   51.15    9.65
   0 -16   3   60.14    9.83
   0  16  -3   45.26    8.04
   0 -16  -3   50.07    6.41
   0  16   3   50.47    9.27
   2 -16  -3 1004.26   41.76
  -2 -16   3 1038.24   37.66
  -2 -16   3 1018.35   37.93
   2 -16  -3  998.79   40.19
  -2  16  -3  975.91   37.10
   2  16   3  910.52   38.10
   2  16  -3  993.93   39.84
  -2  16   3 1009.52   38.26
   2 -16   3 1010.07   41.54
  -2  16   3  965.68   39.78
  -2 -16  -3  942.07   36.66
   2 -16   3  906.33   37.27
  -4 -16   3    8.84    4.52
  -4 -16   3    1.20    2.35
   4 -16  -3    7.93    4.90
   4  16   3    0.00    3.34
  -4  16   3    3.73    3.58
  -4 -16  -3    0.53    2.28
   6 -16  -3  155.76   14.74
   6  16   3  153.08   13.85
   6 -16  -3  181.64   15.65
  -6 -16   3  173.09   16.38
  -6 -16  -3  168.17   14.55
   6 -16   3  191.89   19.64
   0  16   4 1734.88   61.84
   0 -16   4 1677.54   60.16
   0 -16  -4 1798.83   59.27
   0 -16  -4 1759.02   65.61
   0  16   4 1767.58   61.54
   0  16  -4 1796.87   59.36
   0 -16   4 1762.08   58.62
  -2 -16   4 1061.06   39.26
   2 -16  -4 1036.78   41.79
   2  16   4 1123.10   42.82
   2 -16  -4  969.95   42.96
  -2  16  -4 1086.40   39.67
  -2 -16   4 1037.72   39.04
  -2  16   4 1035.53   42.67
   2 -16   4 1065.14   43.80
   2 -16   4 1064.45   40.78
  -2 -16  -4 1067.66   39.35
   2  16  -4 1043.98   41.21
  -2 -16  -4 1023.09   46.61
  -2  16   4 1038.86   40.16
  -4 -16   4  874.13   34.57
  -4 -16   4  804.72   35.79
   4 -16  -4  858.06   38.03
   4  16   4  933.23   38.77
  -4 -16  -4  884.02   35.60
  -4  16   4  855.20   39.77
  -4  16   4  803.68   34.68
   4 -16   4  881.44   44.24
   6 -16  -4  363.41   22.86
  -6 -16   4  369.28   26.48
   6 -16  -4  392.75   23.47
   6  16   4  424.63   25.06
  -6 -16   4  396.34   24.74
  -6 -16  -4  390.07   23.50
   6 -16   4  415.37   31.35
   0  16   5  769.43   34.52
   0  16  -5  789.06   31.83
   0  16   5  771.07   34.42
   0 -16  -5  819.25   32.32
   0 -16  -5  794.14   37.76
   0 -16   5  727.76   31.00
   0 -16   5  835.22   34.15
   2 -16  -5   21.36    7.82
   2  16   5   20.54    6.52
  -2 -16   5   31.83    6.33
   2 -16  -5   30.56    7.38
  -2 -16   5   22.88    5.86
  -2  16  -5   29.37    5.99
  -2  16   5   19.24    6.95
  -2 -16  -5   22.93    5.88
  -2  16   5   25.07    6.29
  -4 -16   5  364.32   18.87
  -4 -16   5  354.63   19.78
   4 -16  -5  321.65   19.84
   4  16   5  297.48   20.70
  -4  16   5  358.11   23.30
  -4 -16  -5  328.79   19.22
   4 -16   5  351.41   40.75
  -4  16   5  361.94   19.81
   6 -16  -5    8.40    5.28
   6 -16  -5   -1.56    5.14
  -6 -16   5    2.38    3.75
   6  16   5    3.75    5.35
   6 -16   5    6.85    7.07
  -6 -16  -5    1.14    2.94
   0  16   6  520.26   27.94
   0 -16  -6  575.02   25.51
   0 -16   6  571.46   26.91
   0 -16  -6  557.61   31.24
   0 -16   6  498.60   24.51
   0  16  -6  531.96   24.52
  -2  16  -6  680.84   28.73
   2 -16  -6  655.93   31.66
   2  16   6  658.12   32.88
  -2 -16   6  665.14   28.75
  -2 -16   6  663.29   27.66
   2 -16  -6  672.49   30.34
  -2  16   6  617.97   32.23
  -2  16   6  691.66   30.55
  -2 -16  -6  675.05   28.78
  -4 -16   6  392.32   19.98
   4 -16  -6  386.59   20.64
   4  16   6  391.44   24.99
   4 -16  -6  407.00   20.53
  -4 -16   6  386.68   20.63
  -4  16   6  341.64   29.85
  -4  16   6  401.45   21.73
  -4 -16  -6  435.43   22.27
   4 -16   6  388.76   28.95
   0  16  -7   12.04    4.89
   0 -16  -7   13.00    7.61
   0 -16  -7    8.47    4.14
   0  16   7   11.40    6.04
  -2  16  -7  273.51   16.08
   2 -16  -7  254.74   17.41
   2 -16  -7  263.32   16.88
  -2 -16   7  254.66   15.29
   2  16   7  251.08   19.40
  -2 -16   7  257.35   15.44
   2 -16   7  262.36   21.98
  -2  16   7  266.75   19.63
  -2  16   7  265.01   17.06
  -2 -16  -7  265.77   15.91
   4  16   7    2.53    5.42
  -4 -16   7    1.89    2.68
  -4 -16   7    6.28    5.65
  -4 -16  -7   -6.84    2.94
  -4  16   7    4.52    5.57
   4 -16   7   -6.56    6.44
  -4  16   7  -13.26    6.74
   0  16  -8  309.33   16.74
   0 -16   8  328.03   23.43
   0 -16  -8  294.39   21.82
   0 -16  -8  317.07   18.11
   0  16   8  331.87   22.64
   1  17   0   -3.32    1.90
   1  17   0    1.37    2.57
  -1 -17   0    2.41    3.31
  -1 -17   0   -1.14    1.91
   1 -17   0   -1.60    2.30
  -1  17   0    7.86    4.51
   1 -17   0   -2.72    2.26
  -3 -17   0    1.90    4.25
   3 -17   0    1.84    4.73
  -3 -17   0    5.58    2.92
   3 -17   0    0.91    2.36
   3  17   0    0.57    2.43
  -3  17   0   -2.28    2.53
  -5 -17   0   -0.43    2.44
   5  17   0    0.84    3.17
   5 -17   0   -2.18    3.57
   7  17   0    1.34    4.38
   7 -17   0    7.74    6.63
  -7 -17   0    5.76    4.68
   1 -17  -1 5057.42  150.08
  -1 -17   1 5219.41  150.81
   1  17   1 5150.71  148.84
  -1  17  -1 5032.40  148.38
   1 -17  -1 4844.86  151.34
   1  17   1 4966.41  151.63
  -1 -17   1 4918.52  147.53
   1  17  -1 5033.18  150.74
  -1  17   1 5228.96  150.69
   1 -17   1 5090.75  150.83
  -1  17   1 4956.78  148.50
  -1 -17  -1 4853.11  152.83
   1 -17   1 5033.62  149.77
  -1 -17  -1 4958.59  147.67
  -3 -17   1 2843.06   91.62
   3  17   1 3091.08   92.43
   3 -17  -1 2913.95   97.75
   3 -17  -1 3043.59   98.48
  -3 -17   1 2823.25   96.48
   3 -17   1 3025.25   99.26
   3  17  -1 3168.13   90.26
  -3 -17  -1 2840.13  100.43
  -3 -17  -1 2823.00   91.39
  -3  17   1 2845.90   92.76
  -5 -17   1 1273.11   55.19
   5  17   1 1343.44   48.25
  -5 -17   1 1274.60   49.22
  -5 -17  -1 1311.68   50.91
   5 -17   1 1355.06   58.59
   5  17  -1 1349.99   45.00
   7  17   1  481.69   24.83
   7 -17  -1  525.08   33.11
  -7 -17   1  517.97   28.36
   7 -17   1  524.21   35.51
   7  17  -1  516.23   21.85
  -7 -17  -1  518.09   28.63
   1 -17  -2   12.22    5.69
   1  17   2    4.47    3.51
  -1 -17   2    5.96    3.78
   1  17   2   14.52    5.51
  -1  17  -2   12.82    3.84
   1 -17   2    6.90    4.12
   1  17  -2    6.16    3.62
  -1  17   2   15.84    5.33
   1 -17   2   29.01    7.77
  -1  17   2   17.96    5.18
  -1 -17  -2   12.36    4.81
  -1 -17  -2    9.44    5.46
  -3 -17   2   50.68   10.33
   3 -17  -2   53.94   11.37
  -3  17  -2   48.42    8.66
   3 -17  -2   72.88   12.72
  -3 -17   2   52.18    8.67
   3  17   2   38.76    7.75
  -3  17   2   34.34    7.30
   3 -17   2   44.18    9.51
  -3 -17  -2   46.89    8.38
  -5 -17   2   11.34    5.55
   5 -17  -2    6.21    5.16
   5  17   2    6.53    4.32
  -5 -17   2   -0.54    5.84
   5 -17  -2    0.75    4.36
   5 -17   2   11.00    7.96
  -5 -17  -2    2.45    2.67
   7 -17  -2    2.81    6.17
  -7 -17   2   -1.68    3.13
   7  17   2    6.18    5.36
  -7 -17  -2    1.89    2.58
   7 -17   2    0.54    6.13
   1  17   3 2756.64   92.48
   1  17   3 2788.92   89.99
  -1 -17   3 2772.17   88.57
  -1  17  -3 2893.19   88.79
   1 -17  -3 2922.49   90.45
   1 -17  -3 2698.40   94.04
  -1 -17   3 2907.35   89.28
   1 -17   3 2749.94   91.62
   1  17  -3 2902.74   90.79
   1 -17   3 2806.00   88.89
  -1  17   3 2721.18   89.48
  -1 -17  -3 2866.65   88.33
  -1  17   3 2813.78   91.22
   3 -17  -3 1838.67   66.18
  -3 -17   3 1829.33   63.66
  -3 -17   3 1852.17   61.39
   3 -17  -3 1776.13   65.82
   3  17   3 1880.62   63.54
   3 -17   3 1839.69   63.01
  -3  17   3 1805.11   65.92
  -3  17   3 1623.74   67.64
  -3 -17  -3 1834.18   61.37
   5 -17  -3  807.70   39.58
  -5 -17   3  881.38   35.92
   5 -17  -3  842.87   38.44
   5  17   3  883.87   46.37
  -5 -17   3  901.71   45.31
   5 -17   3  802.07   44.30
  -5 -17  -3  837.87   36.44
   7 -17  -3  359.32   24.94
  -7 -17   3  370.68   22.63
   7  17   3  348.46   22.70
   7 -17   3  395.12   31.00
  -7 -17  -3  368.45   24.13
   1 -17  -4   77.26    8.63
   1 -17  -4   69.76   10.29
  -1 -17   4   67.90    7.78
  -1  17  -4   84.87    8.72
  -1 -17   4   80.90    8.75
   1  17   4   93.25   14.35
   1  17   4   74.47    8.93
   1  17  -4   73.44    8.84
   1 -17   4   58.88    8.05
  -1  17   4   72.97    8.51
  -1  17   4   74.15    9.12
   1 -17   4   74.02    9.08
  -1 -17  -4   72.44   10.84
  -1 -17  -4   71.26    7.85
  -3 -17   4   26.24    6.02
   3 -17  -4   24.31    7.10
   3 -17  -4   17.77    7.08
   3  17   4   20.27    6.73
  -3 -17   4   31.39    7.40
  -3 -17  -4   25.72    6.10
  -3  17   4   21.90    7.39
  -3  17   4   28.99   11.57
  -5 -17   4   23.44    6.24
   5 -17  -4   45.19    9.74
   5  17   4   26.86    8.08
  -5 -17   4   38.07   10.38
   5 -17  -4   28.66    9.14
   5 -17   4   33.09   11.13
  -5 -17  -4   21.40    5.88
   1 -17  -5  952.55   43.16
  -1  17  -5 1026.54   37.96
   1 -17  -5  983.59   39.14
   1  17   5  985.50   41.13
  -1 -17   5  962.55   38.78
  -1 -17   5  987.13   37.39
   1 -17   5  982.18   38.45
  -1  17   5  924.51   39.78
   1  17  -5  934.25   38.44
   1 -17   5  898.95   40.22
  -1 -17  -5 1042.17   38.10
  -1  17   5  924.75   40.76
  -3 -17   5  690.85   30.11
   3 -17  -5  685.10   33.02
  -3 -17   5  674.85   29.41
   3 -17  -5  688.57   33.66
   3  17   5  690.11   33.45
  -3 -17  -5  719.26   30.58
  -3  17   5  708.58   32.62
  -3  17   5  656.76   33.67
  -5 -17   5  388.75   21.20
   5 -17  -5  371.08   22.49
  -5 -17   5  351.65   22.96
   5 -17  -5  383.88   22.50
   5  17   5  405.24   24.86
  -5 -17  -5  419.16   23.14
   5 -17   5  421.10   31.13
  -1 -17   6   27.33    7.09
   1 -17  -6   18.73    7.34
   1  17   6   12.72    6.19
   1 -17  -6   51.41    9.61
  -1 -17   6   18.60    5.82
  -1  17  -6   28.34    6.84
   1  17  -6   29.19    6.93
  -1 -17  -6   46.64    8.12
  -1  17   6   24.90    7.01
  -1  17   6   33.72    9.12
   3  17   6   14.74    6.59
   3 -17  -6   31.99    8.28
  -3 -17   6   38.19    7.17
  -3 -17   6   41.37    8.25
   3 -17   6   41.50   13.79
  -3  17   6   30.25    6.74
  -3  17   6   16.55    7.17
  -3 -17  -6   33.75    7.73
   5 -17  -6   -3.99    4.37
   5  17   6    7.12    5.61
  -5 -17   6   -4.45    3.21
  -5 -17   6   -1.25    6.82
   5 -17   6    7.50    7.99
  -5  17   6   -5.84    5.20
  -5 -17  -6   -0.65    2.73
  -1  17  -7  270.75   16.32
   1 -17  -7  260.63   19.92
  -1 -17   7  260.38   16.15
  -1 -17   7  270.28   17.16
   1 -17  -7  257.12   17.10
   1  17   7  261.65   19.70
  -1  17   7  250.85   19.27
  -1 -17  -7  294.34   17.14
  -3 -17   7  208.83   14.05
  -3 -17   7  213.70   14.77
   3 -17  -7  211.09   15.42
   3  17   7  223.29   18.57
  -3 -17  -7  221.42   16.62
   3 -17   7  235.61   21.90
  -3  17   7  196.53   21.18
  -3  17   7  243.53   19.56
   0  18   0 6176.82  182.59
   0  18   0 6449.61  182.54
   0 -18   0 6044.58  181.43
   0 -18   0 6217.33  184.30
   2 -18   0 4079.70  128.93
   2  18   0 3867.64  128.55
  -2 -18   0 4123.95  129.84
  -2 -18   0 4049.51  123.77
   2  18   0 4430.49  124.28
  -4 -18   0 1905.06   64.61
   4  18   0 1953.05   63.18
  -4 -18   0 1767.02   71.16
  -6 -18   0  792.15   36.91
   6 -18   0  869.06   45.57
   6  18   0  842.29   33.77
   0 -18   1  138.93   11.60
   0  18   1  148.33   12.14
   0 -18  -1  114.93   11.57
   0  18   1  109.18   10.56
   0  18  -1  149.00   12.17
   0 -18  -1  145.54   11.65
   0 -18   1  107.57   10.70
  -2  18  -1  206.41   14.15
   2 -18  -1  208.03   16.23
   2  18   1  190.52   14.00
  -2 -18   1  227.30   16.47
  -2 -18   1  219.85   14.44
  -2  18   1  221.71   14.74
  -2 -18  -1  215.49   14.33
   2  18  -1  224.22   16.77
   2  18  -1  216.46   13.81
   2 -18   1  225.54   16.99
   4  18   1   75.65    8.85
  -4 -18   1   85.57   11.48
  -4 -18   1   81.24    9.12
  -4  18   1   83.70    9.23
   4  18  -1   93.17    8.49
  -4 -18  -1   96.40    9.81
  -6 -18   1   67.55   12.00
   6 -18  -1   70.43   15.59
   6  18   1   49.94    7.76
  -6 -18  -1   34.57    7.55
   6  18  -1   49.50    6.30
   6 -18   1   54.53   14.00
   0  18   2 3782.62  121.05
   0 -18  -2 3954.62  132.55
   0 -18   2 4068.88  121.94
   0 -18  -2 4024.44  120.59
   0 -18   2 4006.60  121.43
   0  18   2 3922.44  122.50
   0  18  -2 3969.35  120.95
   2  18   2 2675.32   97.98
  -2 -18   2 2759.64   90.18
   2 -18  -2 2839.79   94.54
   2  18   2 2956.37   91.98
  -2 -18   2 2996.35   94.10
  -2  18  -2 3198.82  110.79
   2  18  -2 2768.38   94.43
  -2 -18  -2 2812.94   90.38
  -2  18   2 2820.10   91.58
  -2  18   2 3011.99   95.08
   2 -18   2 2819.98   91.93
   2 -18   2 2914.78   96.08
  -4 -18   2 1577.12   55.78
  -4 -18   2 1497.44   61.01
   4  18   2 1604.60   56.32
  -4 -18  -2 1598.18   56.39
  -4  18   2 1536.47   56.20
   6  18   2  611.51   34.84
  -6 -18   2  655.87   31.34
   6 -18   2  654.81   39.96
  -6 -18  -2  629.29   31.66
   0  18   3  250.49   17.01
   0 -18  -3  273.22   16.62
   0  18  -3  277.13   17.09
   0 -18  -3  245.51   19.34
   0 -18   3  245.20   16.11
   0  18   3  267.30   17.86
   0 -18   3  284.77   17.73
   2 -18  -3   81.55   17.17
   2  18   3   64.65    8.47
  -2 -18   3   72.04    8.71
   2  18   3   70.72   12.97
   2 -18  -3   67.38    9.01
  -2 -18   3   64.74    7.71
  -2  18  -3   56.50    8.20
   2 -18   3   87.54   10.44
  -2 -18  -3   77.91    8.25
   2 -18   3   53.81    7.75
  -2  18   3   77.79    9.57
  -2  18   3   81.87   16.03
   2  18  -3   71.71   11.75
   4  18   3   89.43   10.05
  -4 -18   3  115.07   14.43
   4 -18  -3  105.56   12.02
  -4 -18   3   98.37    9.94
  -4 -18  -3  104.36   11.03
  -4  18   3  100.03   10.50
   6  18   3   55.28   11.10
  -6 -18   3   81.97   13.16
   6 -18  -3   57.32   12.17
   6 -18   3   36.20   12.16
  -6 -18  -3   55.13   10.01
   0  18  -4 1457.01   51.42
   0  18   4 1370.44   54.05
   0 -18  -4 1315.57   56.89
   0  18   4 1416.46   53.27
   0 -18   4 1421.75   50.71
   0 -18  -4 1507.45   51.73
   0 -18   4 1359.16   52.22
   2 -18  -4 1134.12   56.77
   2 -18  -4 1249.49   49.81
  -2 -18   4 1248.02   46.66
   2  18   4 1349.82   50.33
  -2  18  -4 1257.18   46.84
  -2 -18   4 1333.99   47.87
   2  18  -4 1130.54   48.21
  -2 -18  -4 1357.04   47.40
   2 -18   4 1320.92   48.48
   2 -18   4 1361.67   53.12
  -2  18   4 1297.10   50.76
  -2  18   4 1255.05   52.81
  -4 -18   4  803.38   36.83
  -4 -18   4  795.31   34.13
   4  18   4  834.32   37.61
   4 -18  -4  805.12   38.61
  -4 -18  -4  852.33   35.33
   4 -18   4  822.44   44.16
  -4  18   4  815.77   45.75
  -6 -18   4  345.01   21.36
   6  18   4  366.17   23.62
   6 -18  -4  423.09   25.49
   6 -18  -4  352.43   24.14
   6 -18   4  395.08   31.46
  -6 -18  -4  396.76   23.51
   0 -18  -5   54.96    7.59
   0 -18   5   52.09    7.30
   0  18   5   53.96   10.16
   0  18  -5   55.53    7.50
   0 -18   5   50.47    7.47
   0  18   5   56.95   10.91
   0 -18  -5   57.95   12.23
  -2 -18   5   87.11    9.57
   2  18   5   92.69   10.55
   2 -18  -5  103.26   10.97
  -2 -18   5  107.18    9.89
  -2 -18  -5   83.24    9.06
  -2  18   5   85.79   10.18
   2  18  -5   79.35    9.87
  -2  18   5   96.25   11.55
  -4 -18   5   63.95    7.83
  -4 -18   5   63.76   11.13
   4  18   5   50.45   10.72
   4 -18  -5   73.75   11.44
  -4  18   5   66.38   13.12
  -4 -18  -5   61.69   10.58
   4 -18   5   73.93   16.38
   0 -18   6  500.87   24.04
   0  18   6  475.81   26.92
   0 -18   6  488.07   26.17
   0  18   6  473.82   27.09
   0 -18  -6  507.81   24.78
   0  18  -6  460.32   23.85
  -2 -18   6  455.02   22.72
  -2 -18   6  460.51   23.35
   2  18   6  475.05   26.73
   2 -18  -6  410.45   25.93
   2 -18  -6  376.07   23.04
  -2 -18  -6  440.49   22.78
  -2  18   6  449.30   25.03
  -2  18   6  415.53   26.15
   4 -18  -6  266.29   18.24
   4 -18  -6  282.79   19.70
   4  18   6  326.69   22.53
  -4 -18   6  306.02   17.94
  -4 -18   6  281.23   18.82
   4 -18   6  287.45   25.80
  -4 -18  -6  338.58   19.93
  -4  18   6  296.42   22.37
   0  18  -7   40.53    7.58
   0 -18  -7   46.12    9.00
   0  18   7   37.32   10.21
   2 -18  -7   60.09   10.93
   2  18   7   50.67   11.36
  -2 -18   7   44.82    9.01
   2 -18  -7   46.10   11.83
  -2 -18   7   62.13    9.05
  -2  18   7   60.37   13.28
   2 -18   7   60.57   14.99
  -2  18   7   61.63   11.09
  -2 -18  -7   47.38    8.24
   1 -19   0    6.17    4.19
   1  19   0   -1.33    2.73
  -1 -19   0    1.75    2.50
   3  19   0    1.66    2.75
  -3 -19   0    3.67    5.45
  -3 -19   0    0.71    2.33
   3 -19   0   -0.06    3.83
  -5 -19   0   -1.50    3.42
   5  19   0   -0.70    3.15
  -7 -19   0    6.51    4.98
   7 -19   0    8.47    8.37
  -1 -19   1 1301.98   48.23
  -1 -19   1 1348.93   52.24
   1  19   1 1305.79   48.57
   1 -19  -1 1330.31   50.39
  -1  19  -1 1275.06   63.43
   1 -19  -1 1281.10   53.02
   1 -19   1 1319.87   50.07
  -1  19   1 1399.16   50.92
  -1 -19  -1 1325.98   48.41
   1 -19   1 1340.87   51.17
   1  19  -1 1313.48   52.97
   3  19   1 1126.50   42.70
   3 -19  -1 1142.88   48.48
  -3 -19   1 1061.76   42.18
  -3 -19   1 1099.88   47.44
   3  19  -1 1178.28   41.10
  -3  19   1 1051.13   42.62
   3 -19   1 1113.70   48.59
  -3 -19  -1 1082.63   42.43
  -3 -19  -1 1089.45   50.02
   5  19   1  688.75   30.76
  -5 -19   1  671.23   31.73
   5  19  -1  700.03   27.81
  -5 -19  -1  673.38   31.98
   7  19   1  270.53   28.21
   7 -19  -1  352.08   27.70
  -7 -19   1  347.27   22.61
  -7 -19  -1  337.82   22.91
   7 -19   1  327.79   28.25
   7  19  -1  334.73   16.21
  -1 -19   2   47.79    9.84
   1  19   2   69.36   12.29
  -1 -19   2   59.54   10.10
   1 -19  -2   51.41   10.55
  -1  19  -2   61.41   14.94
   1 -19  -2   40.15    8.61
   1  19   2   42.07    9.23
   1 -19   2   48.42    8.97
   1  19  -2   45.38    9.05
  -1  19   2   38.89    7.91
  -1 -19  -2   52.00    8.93
  -1  19   2   39.11    8.89
   1 -19   2   65.08   11.57
   3  19   2   53.13    9.76
  -3 -19   2   54.38    9.20
  -3 -19   2   53.37   10.63
   3 -19  -2   36.45    8.69
   3 -19   2   46.44   10.87
  -3  19   2   55.43    9.85
  -3 -19  -2   33.20    6.56
   5  19   2   35.87    8.73
  -5 -19   2   31.87    7.82
   5 -19   2   26.38    9.72
  -5 -19  -2   29.28    8.05
   1  19   3 1021.11   40.96
  -1 -19   3  986.13   39.94
   1 -19  -3  995.51   40.54
  -1 -19   3  973.79   39.40
  -1  19  -3 1018.74   39.58
   1  19   3  967.06   42.85
   1 -19  -3  856.59   42.76
  -1  19   3  976.28   41.23
   1 -19   3  996.65   39.82
  -1  19   3  984.79   40.40
   1 -19   3  993.77   42.26
  -1 -19  -3  995.90   38.81
   1  19  -3  997.16   43.79
  -3 -19   3  744.25   32.24
   3  19   3  747.75   33.70
   3 -19  -3  697.65   35.66
  -3  19   3  741.24   33.01
  -3  19   3  781.01   36.62
  -3 -19  -3  758.32   32.49
   5  19   3  516.24   27.58
  -5 -19   3  509.75   26.44
   5 -19   3  562.58   36.46
  -5 -19  -3  531.13   27.48
   1 -19  -4  138.05   12.19
   1  19   4  104.03   11.39
   1  19   4  120.80   13.41
  -1  19  -4  130.41   11.29
  -1 -19   4  148.42   12.29
  -1  19   4  101.50   11.55
   1 -19   4  123.77   12.73
   1  19  -4  132.68   16.88
   1 -19   4  106.51   10.92
  -1  19   4  152.71   12.74
  -1 -19  -4  133.28   11.17
   3  19   4   85.57   10.82
   3 -19  -4   81.56   11.14
   3 -19  -4  107.91   16.97
  -3 -19   4   95.10    9.57
  -3  19   4   93.51   14.26
  -3  19   4   99.12   10.74
  -3 -19  -4   87.68   10.00
  -5 -19   4   15.51   10.22
   5  19   4   10.03    5.66
  -5 -19   4    8.89    4.32
   5 -19  -4    7.98    6.57
  -5 -19  -4    6.95    4.39
   5 -19   4    3.39    6.68
  -1  19  -5  461.15   24.39
  -1 -19   5  549.66   27.03
  -1 -19   5  539.78   26.06
   1 -19  -5  519.73   26.83
   1  19   5  525.40   28.09
  -1 -19  -5  543.95   25.58
  -1  19   5  521.24   28.02
   1 -19   5  501.28   28.10
   3 -19  -5  424.96   25.54
   3 -19  -5  375.34   24.98
   3  19   5  442.43   25.51
  -3 -19   5  405.10   21.69
  -3  19   5  353.01   26.83
  -3 -19  -5  430.46   22.61
  -3  19   5  391.43   25.37
   5 -19  -5  303.75   25.15
  -5 -19   5  330.88   19.78
  -5 -19   5  254.60   21.09
   5 -19  -5  309.80   21.34
   5  19   5  330.63   22.65
   5 -19   5  298.95   27.53
  -5 -19  -5  335.94   20.64
  -1 -19   6   88.41    9.77
  -1 -19   6   69.87    9.23
   1  19   6   69.28    9.93
   1 -19  -6   88.53    9.92
   1  19  -6   82.73   20.46
  -1  19   6   84.75   13.47
  -1  19   6   83.70   11.26
  -1 -19  -6   65.79    8.45
  -3 -19   6   43.48    8.72
   3  19   6   22.73    8.29
  -3 -19   6   29.90    7.88
   3 -19   6   13.71    8.39
  -3 -19  -6   23.17    5.89
  -3  19   6   26.03    9.81
   1  19   7  243.28   20.09
  -1 -19   7  267.07   18.44
   1 -19  -7  227.03   16.97
   1 -19  -7  265.57   22.39
   1  19  -7  237.56   17.25
  -1  19   7  222.97   18.90
  -1 -19  -7  277.70   17.59
  -1  19   7  245.39   19.29
   0 -20   0 1073.03   43.00
   0  20   0 1116.62   43.99
  -2 -20   0 1254.05   53.43
  -2 -20   0 1261.74   48.11
   2  20   0 1333.34   48.18
   2 -20   0 1372.43   53.80
  -4 -20   0  617.06   33.37
   4  20   0  704.33   29.66
  -6 -20   0  402.82   24.47
   6 -20   0  430.52   31.74
   6  20   0  421.40   21.70
   0 -20  -1   55.97   10.14
   0 -20   1   48.54    9.12
   0  20   1   29.88    7.76
   0 -20   1   39.14    8.98
   2  20   1  184.49   13.97
  -2 -20   1  176.11   13.61
  -2 -20   1  193.29   16.21
   2 -20  -1  186.68   16.10
   2 -20   1  175.46   15.83
  -2  20   1  188.21   14.22
  -2 -20  -1  193.42   14.09
  -4 -20   1   38.54   14.12
   4  20   1   41.37    9.18
   4  20  -1   28.58    6.89
  -4 -20  -1   34.80    8.03
   6 -20  -1   57.93   13.92
   6  20   1   53.89    8.36
  -6 -20   1   49.65   10.17
  -6 -20  -1   40.36    8.54
   6 -20   1   83.93   18.15
   6  20  -1   41.29    6.47
   0 -20   2 1334.04   51.75
   0  20   2 1362.73   51.95
   0 -20   2 1423.29   52.64
   0  20   2 1387.90   53.52
   0 -20  -2 1436.09   51.86
   2 -20  -2  917.80   40.72
   2  20   2  924.72   38.10
   2  20   2  905.65   42.14
  -2 -20   2  881.17   39.26
  -2 -20   2  889.86   36.75
  -2  20   2  833.86   36.92
   2 -20   2  898.04   41.23
  -2 -20  -2  908.63   36.85
  -2  20   2  893.53   39.72
   4  20   2  727.93   32.81
  -4 -20   2  676.20   33.98
  -4 -20  -2  728.09   32.70
  -6 -20   2  295.89   19.74
   6 -20  -2  293.05   24.25
   6  20   2  284.39   19.00
  -6 -20  -2  280.01   19.85
   6 -20   2  245.06   24.66
   0  20   3  360.88   22.07
   0 -20  -3  382.78   21.55
   0 -20   3  402.77   22.81
   0  20   3  394.22   23.76
   0 -20   3  375.24   21.69
   2  20   3    2.68    3.35
  -2 -20   3    4.92    3.86
  -2 -20   3    1.43    4.16
   2 -20  -3   -1.34    3.27
   2  20  -3  -12.37    5.10
  -2  20   3   -3.34    2.80
  -2 -20  -3    0.31    2.53
  -2  20   3    2.29    3.61
   2 -20   3    0.29    2.77
  -4 -20   3  159.81   13.88
  -4 -20   3  146.86   15.70
   4  20   3  128.89   12.83
  -4 -20  -3  141.79   12.62
   6  20   3    1.15    5.74
  -6 -20   3    5.75    4.44
   6 -20  -3    6.64    5.94
  -6 -20  -3    8.09    4.02
   6 -20   3    4.58    5.98
   0 -20  -4  779.25   33.53
   0 -20   4  732.27   34.51
   0  20   4  727.22   35.30
   0  20   4  746.40   35.97
   0 -20   4  741.36   33.33
   2  20   4  778.84   35.71
   2 -20  -4  769.74   36.55
  -2 -20   4  802.35   34.78
  -2 -20   4  736.46   33.27
  -2  20   4  708.18   35.86
  -2 -20  -4  815.39   33.90
   2 -20   4  771.99   38.43
   4  20   4  356.45   23.05
  -4 -20   4  381.90   22.43
  -4 -20   4  405.43   25.08
  -4 -20  -4  368.54   21.93
   0  20   5   18.81    8.72
   0 -20  -5    6.54    4.94
   0  20   5    1.05    4.23
   0 -20   5   10.04    4.84
  -2 -20   5  228.02   16.21
  -2 -20   5  211.45   15.86
   2  20   5  207.02   16.86
   2 -20  -5  212.92   17.14
  -2  20   5  256.85   19.32
  -2 -20  -5  224.12   17.76
  -4 -20   5    0.64    3.03
   4  20   5    7.98    5.08
  -4 -20   5   -5.40    6.96
   4 -20   5   -2.98    5.75
  -4  20   5    4.36    5.40
  -4 -20  -5    0.49    3.31
   0 -20  -6  457.94   24.68
   0  20   6  460.39   27.52
   0 -20   6  435.94   26.16
  -2 -20   6  301.55   19.83
  -2 -20   6  307.20   19.83
   2  20   6  312.81   22.14
   2 -20  -6  322.21   21.41
  -2  20   6  317.97   23.00
  -2 -20  -6  324.09   19.44
   1  21   0   -0.96    2.42
   1 -21   0    2.32    3.10
  -1 -21   0    3.42    3.17
  -1 -21   0    6.45    4.42
   3 -21   0    5.08    5.23
   3  21   0    0.29    2.97
  -3 -21   0   12.38    5.49
  -5 -21   0    2.06    3.67
   5  21   0   -0.27    3.77
   1  21   1  358.91   20.63
  -1 -21   1  309.08   21.25
  -1 -21   1  327.69   19.80
   1 -21  -1  314.68   20.62
  -1 -21  -1  329.12   19.34
   1 -21   1  350.13   22.04
  -1  21   1  356.12   21.80
   3  21   1  262.80   17.21
  -3 -21   1  238.51   16.60
   3 -21  -1  259.68   24.03
   3  21  -1  281.96   16.70
  -3 -21  -1  218.24   21.36
   5  21   1  271.72   17.58
  -5 -21   1  211.82   16.77
  -5 -21  -1  224.66   16.98
   5  21  -1  272.91   15.37
  -1 -21   2   71.29    8.84
   1  21   2   64.10    8.82
  -1 -21   2   66.76    9.32
   1 -21  -2   66.70    9.10
  -1  21   2   61.49    8.63
   1 -21   2   66.36    9.07
  -1 -21  -2   72.01    8.40
  -1  21   2   90.56   14.21
   3  21   2   25.21    7.62
  -3 -21   2   18.11    6.10
  -3 -21  -2   19.30    5.76
   3 -21   2   16.33    7.07
   5  21   2    5.12    4.90
  -5 -21   2   -2.09    2.88
   5 -21   2    8.43    7.27
  -5 -21  -2   -2.14    3.16
   1  21   3  377.63   22.57
  -1 -21   3  354.38   21.53
   1 -21  -3  345.91   21.74
  -1 -21   3  371.68   21.63
  -1  21   3  356.69   22.40
  -1 -21  -3  389.74   21.01
   1 -21   3  355.18   23.06
   3 -21  -3  356.99   29.07
  -3 -21   3  349.30   20.76
   3  21   3  358.59   21.75
  -3 -21   3  359.09   29.32
  -3 -21  -3  330.33   20.35
  -3  21   3  350.77   23.93
   5  21   3  227.15   17.13
  -5 -21   3  228.42   17.03
   5 -21   3  230.70   24.12
  -5 -21  -3  232.81   17.31
   1  21   4   28.20    7.79
  -1 -21   4   47.95   13.10
   1 -21  -4   45.12    9.38
  -1 -21   4   46.45   10.23
  -1  21   4   45.90   11.40
  -1 -21  -4   61.51   11.04
   1 -21   4   38.61    9.90
   3  21   4   45.46   10.14
  -3 -21   4   27.74    7.25
  -3 -21   4   63.50   18.78
   3 -21  -4   31.96    8.68
  -3 -21  -4   24.82    6.66
  -3  21   4   36.17    9.84
   5  21   4    6.72    5.25
  -5 -21   4    6.67    3.84
   5 -21   4   10.06    7.67
  -5 -21  -4   11.24    5.38
   1  21   5  401.68   25.15
  -1 -21   5  441.57   24.85
   1 -21  -5  409.94   24.72
  -1  21   5  403.75   25.53
  -1 -21  -5  410.58   22.97
   1 -21   5  412.05   26.05
   3 -21  -5  302.51   22.28
   3  21   5  301.32   21.46
  -3 -21   5  291.74   18.96
  -3 -21  -5  314.39   19.63
  -3  21   5  327.30   23.25
   1 -21  -6   15.53    7.23
  -1 -21   6    7.08    4.93
   1  21   6    9.18    6.28
  -1 -21  -6    8.60    5.18
  -1  21   6    3.31    5.61
   0 -22   0   43.40    9.37
   2 -22   0  166.55   20.32
  -2 -22   0  179.23   16.73
   2  22   0  172.17   13.59
   4  22   0  103.86   10.52
  -4 -22   0  108.55   11.31
  -6 -22   0  189.46   16.46
   6 -22   0  185.92   21.77
   6  22   0  236.93   15.32
   0 -22  -1   77.29    9.40
   0  22   1   73.68    9.48
   0 -22   1   81.92    9.89
   2  22   1   54.68   10.64
  -2 -22   1   45.93    9.18
  -2 -22  -1   44.62   12.57
   2 -22   1   49.89   17.67
   4  22   1   33.02    8.44
  -4 -22   1   26.37    7.07
  -4 -22  -1   18.43    6.01
   4  22  -1   35.67    7.92
   6 -22  -1    1.39    7.42
  -6 -22   1   19.82    7.01
   6  22   1   16.12    6.25
  -6 -22  -1   18.11    6.93
   6 -22   1   36.99   14.54
   0 -22   2  194.34   15.84
   0 -22  -2  194.85   15.16
   0  22   2  191.08   15.59
  -2 -22   2   79.15    9.61
   2  22   2   69.68    9.30
   2 -22  -2   65.48   16.38
  -2 -22  -2   69.60    8.75
  -2  22   2   63.67   14.43
   2 -22   2   45.05   15.07
  -4 -22   2  218.42   16.75
   4  22   2  275.69   18.67
  -4 -22  -2  256.76   18.07
   0  22   3   41.96   10.11
   0 -22  -3   45.21   11.92
   0 -22   3   57.75   11.46
   2 -22  -3   57.52   11.25
  -2 -22   3   57.13   10.23
   2  22   3   57.67   11.28
  -2  22   3   51.01   11.70
   2 -22   3   57.45   11.33
  -2 -22  -3   56.16    7.76
  -4 -22   3   30.58    6.98
   4  22   3   25.54    8.02
  -4 -22  -3   15.55    5.90
   0  22   4  162.87   15.41
   0 -22  -4  200.15   15.52
   0 -22   4  188.58   16.00
  -2 -22   4  357.93   24.30
   2 -22  -4  377.64   24.51
   2  22   4  358.95   23.08
  -2 -22  -4  346.04   21.07
  -2  22   4  363.15   24.14
   2 -22   4  376.65   25.59
   4  22   4  224.02   17.72
  -4 -22   4  205.48   16.11
  -4 -22  -4  222.40   16.79
   0  22   5   33.07    9.44
   0 -22  -5   37.85    8.51
   0 -22   5   50.84   12.53
   2  22   5    4.18    4.89
   2 -22  -5   20.21    6.94
  -2  22   5   11.01    7.04
  -2 -22  -5   18.92    5.75
   0 -22  -6  472.66   26.04
   0  22   6  432.33   28.13
   0 -22   6  495.48   42.15
  -1 -23   0    0.98    2.84
   1  23   0    2.61    3.74
   1 -23   0    1.97    3.90
  -3 -23   0    1.25    2.96
   3  23   0    2.84    3.36
   3 -23   0    4.10    3.88
   5  23   0   -2.14    4.20
  -5 -23   0   -5.61    3.61
  -1 -23   1  243.71   18.51
   1 -23  -1  245.43   18.68
   1  23   1  267.14   18.23
   1 -23   1  271.99   19.84
  -1 -23  -1  251.43   17.70
   3 -23  -1  241.02   20.93
   3  23   1  285.44   18.23
  -3 -23   1  219.46   16.60
   3 -23   1  246.21   21.14
  -3 -23  -1  244.95   17.47
  -5 -23   1  179.81   15.78
   5  23   1  222.13   16.17
  -5 -23  -1  151.75   14.40
  -1 -23   2   79.89   10.37
   1 -23  -2   96.44   11.06
   1  23   2   59.38   15.57
  -1  23   2   78.89   10.45
   1 -23   2   97.43   11.66
  -1 -23  -2   97.39   10.72
  -3 -23   2   54.98   10.41
   3  23   2   35.25    8.98
   3 -23  -2   38.88    9.53
  -3 -23  -2   59.26   10.39
   3 -23   2   58.83   13.43
   5  23   2    6.27    5.20
  -5 -23   2    7.06    4.85
  -5 -23  -2   21.32    6.82
   1 -23  -3  323.17   21.79
  -1 -23   3  318.95   21.08
   1  23   3  344.45   22.06
  -1  23   3  313.43   21.76
   1 -23   3  340.62   23.38
  -1 -23  -3  338.90   20.85
  -3 -23   3  265.61   17.84
   3  23   3  266.32   19.25
   3 -23  -3  237.73   20.46
  -3 -23  -3  270.50   18.46
   1 -23  -4  126.88   13.45
   1  23   4  107.59   12.78
  -1 -23   4  100.65   11.93
  -1  23   4  100.00   12.36
  -1 -23  -4  120.29   11.93
   1 -23   4  107.22   12.81
   3  23   4   50.06   11.33
  -3 -23   4   62.32    9.10
   3 -23  -4   60.40   13.09
  -3 -23  -4   50.04    9.62
  -3  23   4   46.27   11.29
  -1 -23   5  332.16   21.99
   1  23   5  305.49   22.30
   1 -23  -5  301.08   21.36
  -1 -23  -5  297.14   19.72
  -1  23   5  302.43   22.60
   1 -23   5  306.52   23.34
   0 -24   0  279.87   19.90
   2  24   0  555.59   27.68
   2 -24   0  525.43   31.47
  -2 -24   0  515.82   27.44
  -4 -24   0  203.66   16.53
   4  24   0  209.17   15.28
   0 -24  -1   69.19    9.61
   0 -24   1   57.56   10.69
   0  24   1   48.59   13.13
   2 -24  -1    3.59    5.06
  -2 -24   1    6.55    4.93
   2 -24   1    3.17    4.89
  -2 -24  -1    9.21    5.08
  -4 -24   1   39.00   10.01
   4  24   1   45.75    9.91
  -4 -24  -1   55.60   11.31
   0  24   2  599.31   31.00
   0 -24   2  599.26   31.70
   0 -24  -2  573.58   30.46
   2 -24  -2  298.22   22.16
  -2 -24   2  265.18   19.09
   2  24   2  273.94   19.34
  -2 -24  -2  264.03   18.36
   2 -24   2  262.26   21.44
   4  24   2  374.97   23.15
  -4 -24   2  328.44   21.81
  -4 -24  -2  333.62   22.10
   0 -24   3   33.57    9.02
   0 -24  -3   16.36    6.78
   0  24   3   27.20    9.06
   2 -24  -3  145.95   15.78
  -2 -24   3  138.53   13.13
   2  24   3  125.64   13.56
  -2  24   3  120.17   13.68
   2 -24   3  111.48   14.74
  -2 -24  -3  144.30   13.19
   4  24   3    6.06    5.67
  -4 -24   3    1.34    3.96
  -4 -24  -3    3.85    4.73
   0 -24   4  282.22   21.13
   0 -24  -4  294.30   20.08
   0  24   4  255.46   20.34
   2  24   4  398.04   24.92
   2 -24  -4  370.10   25.39
  -2 -24   4  393.68   24.13
  -2  24   4  374.88   25.71
   2 -24   4  393.99   27.88
  -2 -24  -4  391.33   23.07
   0  24   5  144.44   15.73
   0 -24  -5  152.89   14.49
   0 -24   5  125.63   14.47
  -1 -25   0    5.94    4.19
   3 -25   0   -2.22    4.29
   3  25   0   -5.84    3.03
  -3 -25   0    1.11    3.53
   1 -25  -1  901.72   42.87
   1  25   1  909.62   40.77
  -1 -25   1  912.01   41.07
   1 -25   1  934.81   43.82
  -1 -25  -1  904.52   40.63
   3 -25  -1  589.98   35.59
   3  25   1  629.21   30.47
  -3 -25   1  561.57   30.15
  -3 -25  -1  556.93   29.98
   3 -25   1  550.41   35.58
   1 -25  -2   42.21    9.83
   1  25   2   36.97    9.94
  -1 -25   2   35.29    9.03
  -1  25   2   30.68    9.34
  -1 -25  -2   56.04   12.09
   1 -25   2   33.83    9.24
  -3 -25   2   30.91    8.58
   3  25   2   40.05    9.93
   3 -25  -2   32.83    9.80
  -3 -25  -2   29.17    8.34
   3 -25   2   27.25    9.63
   1  25   3  557.82   30.65
  -1 -25   3  549.02   30.16
   1 -25  -3  552.01   31.16
   1 -25   3  573.30   33.24
  -1  25   3  533.99   30.94
  -1 -25  -3  554.76   29.45
   3 -25  -3  424.45   29.53
  -3 -25   3  399.51   25.04
   3  25   3  462.14   27.48
  -3 -25  -3  457.88   26.11
   1 -25  -4   90.92   14.74
   1  25   4   76.97   11.69
  -1 -25   4   79.99   11.04
  -1  25   4   78.81   15.83
   1 -25   4   89.30   16.60
  -1 -25  -4   81.97   12.84
   0 -26   0  734.10   36.78
   2 -26   0  932.73   45.77
  -2 -26   0  828.19   39.55
   0 -26  -1   34.81    9.28
   0 -26   1   42.94    9.92
   0  26   1   45.55   11.45
  -2 -26   1   -6.27    3.51
   2  26   1    0.85    4.63
   2 -26  -1    4.78    5.95
   2 -26   1    0.59    4.16
  -2 -26  -1    9.38    6.01
   0 -26   2  845.97   40.55
   0 -26  -2  770.88   38.32
   0  26   2  778.76   38.56
   2 -26  -2  419.56   27.92
  -2 -26   2  406.53   24.79
   2  26   2  378.71   24.61
   2 -26   2  355.86   27.33
  -2 -26  -2  417.73   24.54
   0  26   3    6.22    5.82
   0 -26   3   10.18    6.87
   0 -26  -3    3.09    4.50
   2  26   3   43.98   10.86
  -2 -26   3   35.50    8.75
   2 -26  -3   29.08    9.34
  -2 -26  -3   55.48   11.23
   2 -26   3   39.58   10.89
  -2  26   3   47.34   11.68
  -1 -27   0    1.40    4.40
   1 -27   0    5.16    5.80
  -3 -27   0    0.54    4.89
   3 -27   0   -0.29    4.91
   1 -27  -1  659.18   35.74
   1  27   1  665.19   33.95
  -1 -27   1  601.95   33.58
  -1 -27  -1  626.98   33.22
   1 -27   1  602.92   35.73
  -1 -27   2    7.68    5.54
   1 -27  -2   16.71    7.38
   1  27   2   -1.37    4.47
  -1 -27  -2   19.86    8.02
   1 -27   2   16.37    7.64
  -1  27   2    2.76    5.87
   0 -28   0  322.79   23.92
   0 -28  -1    2.94    5.51
   0 -28   1   -6.10    3.90
   0   0   0    0.00    0.00


 _exptl_absorpt_process_details
)
 SADABS 2016/2: Krause, L., Herbst-Irmer, R., Sheldrick G.M. & Stalke D.,
 J. Appl. Cryst. 48 (2015) 3-10
)
 _exptl_absorpt_correction_type   multi-scan
 _exptl_absorpt_correction_T_max  0.7456
 _exptl_absorpt_correction_T_min  0.4458
 _exptl_special_details
)
 The following wavelength and cell were deduced by SADABS from the
 direction cosines etc. They are given here for emergency use only:
 CELL 0.71073    7.461    7.581   21.861   90.018   90.052   89.982
)

_computing_structure_solution     'SHELXT 2014/5 (Sheldrick, 2014)'
;
_shelx_hkl_checksum              43519
_olex2_submission_special_instructions 'No special instructions were received'
loop_
_space_group_symop_operation_xyz
'x, y, z'
'-x, -y+1/2, z+1/2'
'-x, y+1/2, -z+1/2'
'x, -y, -z'
'x+1/2, y+1/2, z'
'-x+1/2, -y+1, z+1/2'
'-x+1/2, y+1, -z+1/2'
'x+1/2, -y+1/2, -z'
'-x, -y, -z'
'x, y-1/2, -z-1/2'
'x, -y-1/2, z-1/2'
'-x, y, z'
'-x+1/2, -y+1/2, -z'
'x+1/2, y, -z-1/2'
'x+1/2, -y, z-1/2'
'-x+1/2, y+1/2, z'
loop_
_atom_site_label
_atom_site_type_symbol
_atom_site_fract_x
_atom_site_fract_y
_atom_site_fract_z
_atom_site_U_iso_or_equiv
_atom_site_adp_type
_atom_site_occupancy
_atom_site_site_symmetry_order
_atom_site_calc_flag
_atom_site_refinement_flags_posn
_atom_site_refinement_flags_adp
_atom_site_refinement_flags_occupancy
_atom_site_disorder_assembly
_atom_site_disorder_group
Cd1 Cd 0.5000 0.5000 0.5000 0.0285(2) Uani 1 4 d S T P . .
Cl1 Cl 0.7500 0.51396(7) 0.7500 0.0497(3) Uani 1 2 d S T P . .
Cl2 Cl 0.5000 0.38613(6) 0.5492(2) 0.0586(4) Uani 1 2 d S T P . .
N1 N 0.5000 0.3986(3) 0.9761(7) 0.0667(18) Uani 1 2 d S T P . .
H1A H 0.4537 0.3930 0.8730 0.080 Uiso 0.5 1 d R U P . .
H1B H 0.4377 0.4255 1.0325 0.080 Uiso 0.5 1 d R U P . .
C1 C 0.5000 0.3421(4) 1.0708(13) 0.115(4) Uani 1 2 d S T P . .
F1 F 0.4010(15) 0.2770(4) 0.8763(15) 0.158(5) Uani 0.5 1 d . . P . .
C2 C 0.427(5) 0.2889(7) 1.036(3) 0.23(3) Uani 0.5 1 d . . P . .
H2 H 0.3605 0.2668 1.1278 0.272 Uiso 0.5 1 calc R U P . .
loop_
_atom_site_aniso_label
_atom_site_aniso_U_11
_atom_site_aniso_U_22
_atom_site_aniso_U_33
_atom_site_aniso_U_23
_atom_site_aniso_U_13
_atom_site_aniso_U_12
Cd1 0.0276(3) 0.0342(3) 0.0238(3) 0.00313(13) 0.000 0.000
Cl1 0.0384(6) 0.0723(8) 0.0384(6) 0.000 -0.0153(6) 0.000
Cl2 0.0971(12) 0.0350(6) 0.0436(7) 0.0025(5) 0.000 0.000
N1 0.111(6) 0.044(3) 0.045(3) -0.010(2) 0.000 0.000
C1 0.219(13) 0.055(4) 0.069(5) 0.008(4) 0.000 0.000
F1 0.201(12) 0.084(5) 0.189(11) 0.006(6) -0.009(10) -0.017(5)
C2 0.43(7) 0.062(7) 0.189(18) -0.004(10) -0.19(4) 0.002(16)
loop_
_atom_type_symbol
_atom_type_description
_atom_type_scat_dispersion_real
_atom_type_scat_dispersion_imag
_atom_type_scat_source
C C 0.0033 0.0016 'International Tables Vol C Tables 4.2.6.8 and 6.1.1.4'
H H 0.0000 0.0000 'International Tables Vol C Tables 4.2.6.8 and 6.1.1.4'
Cd Cd -0.8075 1.2024 'International Tables Vol C Tables 4.2.6.8 and 6.1.1.4'
Cl Cl 0.1484 0.1585 'International Tables Vol C Tables 4.2.6.8 and 6.1.1.4'
F F 0.0171 0.0103 'International Tables Vol C Tables 4.2.6.8 and 6.1.1.4'
N N 0.0061 0.0033 'International Tables Vol C Tables 4.2.6.8 and 6.1.1.4'
loop_
_geom_angle_atom_site_label_1
_geom_angle_atom_site_label_2
_geom_angle_atom_site_label_3
_geom_angle
_geom_angle_site_symmetry_1
_geom_angle_site_symmetry_3
_geom_angle_publ_flag
Cl1 Cd1 Cl1 180.0 . 9_666 ?
Cl1 Cd1 Cl1 91.679(10) . 6_654 ?
Cl1 Cd1 Cl1 88.321(10) 9_666 6_654 ?
Cl1 Cd1 Cl1 180.0 6_654 14_457 ?
Cl1 Cd1 Cl1 88.321(10) . 14_457 ?
Cl1 Cd1 Cl1 91.679(10) 9_666 14_457 ?
Cl2 Cd1 Cl1 89.55(4) . 6_654 ?
Cl2 Cd1 Cl1 90.45(4) 9_666 6_654 ?
Cl2 Cd1 Cl1 89.55(4) 9_666 . ?
Cl2 Cd1 Cl1 90.45(4) . . ?
Cl2 Cd1 Cl1 89.55(4) . 9_666 ?
Cl2 Cd1 Cl1 90.45(4) 9_666 9_666 ?
Cl2 Cd1 Cl1 89.55(4) 9_666 14_457 ?
Cl2 Cd1 Cl1 90.45(4) . 14_457 ?
Cl2 Cd1 Cl2 180.0 . 9_666 ?
Cd1 Cl1 Cd1 166.91(7) . 6_655 ?
C2 C1 N1 131.7(11) . . ?
C2 C1 N1 131.7(11) 12_655 . ?
C2 C1 C2 49(3) . 12_655 ?
C2 F1 F1 81.2(19) . 12_655 ?
F1 C2 C1 116(2) . . ?
C2 C2 C1 65.4(16) 12_655 . ?
C2 C2 F1 98.8(19) 12_655 . ?
loop_
_geom_bond_atom_site_label_1
_geom_bond_atom_site_label_2
_geom_bond_distance
_geom_bond_site_symmetry_2
_geom_bond_publ_flag
Cd1 Cl1 2.6743(2) 14_457 ?
Cd1 Cl1 2.6743(2) 9_666 ?
Cd1 Cl1 2.6743(2) . ?
Cd1 Cl1 2.6743(2) 6_654 ?
Cd1 Cl2 2.5149(13) . ?
Cd1 Cl2 2.5150(13) 9_666 ?
Cl1 Cd1 2.6743(2) 6_655 ?
N1 C1 1.427(10) . ?
C1 C2 1.31(2) . ?
C1 C2 1.31(2) 12_655 ?
F1 F1 1.47(2) 12_655 ?
F1 C2 1.253(18) . ?
C2 C2 1.09(8) 12_655 ?
