#------------------------------------------------------------------------------
#$Date: 2020-07-04 04:44:54 +0300 (Sat, 04 Jul 2020) $
#$Revision: 253720 $
#$URL: file:///home/coder/svn-repositories/cod/cif/4/51/77/4517750.cif $
#------------------------------------------------------------------------------
#
# This file is available in the Crystallography Open Database (COD),
# http://www.crystallography.net/
#
# All data on this site have been placed in the public domain by the
# contributors.
#
data_4517750
loop_
_publ_author_name
'Liu, Xin'
'Carr, Paul'
'Gardiner, Michael G.'
'Banwell, Martin G.'
'Elbanna, Ahmed H.'
'Khalil, Zeinab G.'
'Capon, Robert J.'
_publ_section_title
;
 Levoglucosenone and Its Pseudoenantiomer <i>iso</i>-Levoglucosenone as
 Scaffolds for Drug Discovery and Development.
;
_journal_issue                   23
_journal_name_full               'ACS omega'
_journal_page_first              13926
_journal_page_last               13939
_journal_paper_doi               10.1021/acsomega.0c01331
_journal_volume                  5
_journal_year                    2020
_chemical_absolute_configuration rm
_chemical_formula_moiety         'C11 H8 N2 O5'
_chemical_formula_sum            'C11 H8 N2 O5'
_chemical_formula_weight         248.19
_space_group_crystal_system      monoclinic
_space_group_IT_number           4
_space_group_name_Hall           'P 2yb'
_space_group_name_H-M_alt        'P 1 21 1'
_atom_sites_solution_hydrogens   geom
_atom_sites_solution_primary     dual
_audit_creation_date             2019-02-25
_audit_creation_method
;
Olex2 1.2
(compiled 2018.05.29 svn.r3508 for OlexSys, GUI svn.r5506)
;
_cell_angle_alpha                90
_cell_angle_beta                 103.910(4)
_cell_angle_gamma                90
_cell_formula_units_Z            2
_cell_length_a                   5.6724(2)
_cell_length_b                   9.6556(3)
_cell_length_c                   9.4591(4)
_cell_measurement_reflns_used    4687
_cell_measurement_temperature    150.00(10)
_cell_measurement_theta_max      28.4790
_cell_measurement_theta_min      3.8230
_cell_volume                     502.89(3)
_computing_cell_refinement       'CrysAlisPro 1.171.39.46e (Rigaku OD, 2018)'
_computing_data_collection       'CrysAlisPro 1.171.39.46e (Rigaku OD, 2018)'
_computing_data_reduction        'CrysAlisPro 1.171.39.46e (Rigaku OD, 2018)'
_computing_molecular_graphics    'Olex2 (Dolomanov et al., 2009)'
_computing_publication_material  'Olex2 (Dolomanov et al., 2009)'
_computing_structure_refinement  'ShelXL (Sheldrick, 2015)'
_computing_structure_solution    'ShelXT (Sheldrick, 2015)'
_diffrn_ambient_environment      N~2~
_diffrn_ambient_temperature      150.00(10)
_diffrn_detector                 'CCD plate'
_diffrn_detector_area_resol_mean 8.1297
_diffrn_detector_type            EosS2
_diffrn_measured_fraction_theta_full 0.998
_diffrn_measured_fraction_theta_max 0.925
_diffrn_measurement_details
;
List of Runs (angles in degrees, time in seconds):

  # Type    Start    End  Width  t~exp~   \w     \q     \k     \f   Frames
--------------------------------------------------------------------------
  1  \w     -1.00  83.00   1.00   12.67    --   15.42  57.00 -30.00   84
  2  \w    -11.00  83.00   1.00   12.67    --   15.42  77.00 150.00   94
  3  \w     -1.00  83.00   1.00   12.67    --   15.42  57.00  60.00   84
  4  \w    -14.00  87.00   1.00   12.67    --   15.42  19.00 -90.00  101
  5  \w     35.00  88.00   1.00   12.67    --   15.42 178.00  60.00   53
  6  \w     35.00  88.00   1.00   12.67    --   15.42 178.00  30.00   53
  7  \w     34.00  88.00   1.00   12.67    --   15.42-178.00-150.00   54
  8  \w     35.00  88.00   1.00   12.67    --   15.42 178.00 -60.00   53
  9  \w    -84.00 -36.00   1.00   12.67    --  -16.59 149.00  -8.00   48
 10  \w    -69.00 -22.00   1.00   12.67    --  -16.59 124.00-172.00   47
 11  \w    -20.00  54.00   1.00   12.67    --   15.42 -99.00 150.00   74
 12  \w    -43.00   8.00   1.00   12.67    --  -16.59  77.00 -90.00   51
;
_diffrn_measurement_device       'four-circle diffractometer'
_diffrn_measurement_device_type  'SuperNova, Dual, Cu at home/near, EosS2'
_diffrn_measurement_method       '\w scans'
_diffrn_orient_matrix_type
'CrysAlisPro convention (1999,Acta A55,543-557)'
_diffrn_orient_matrix_UB_11      0.0388538000
_diffrn_orient_matrix_UB_12      0.0617582000
_diffrn_orient_matrix_UB_13      -0.0280749000
_diffrn_orient_matrix_UB_21      0.0424620000
_diffrn_orient_matrix_UB_22      -0.0392818000
_diffrn_orient_matrix_UB_23      -0.0522350000
_diffrn_orient_matrix_UB_31      -0.1152462000
_diffrn_orient_matrix_UB_32      0.0063562000
_diffrn_orient_matrix_UB_33      -0.0495137000
_diffrn_radiation_monochromator  mirror
_diffrn_radiation_probe          x-ray
_diffrn_radiation_type           MoK\a
_diffrn_radiation_wavelength     0.71073
_diffrn_reflns_av_R_equivalents  0.0306
_diffrn_reflns_av_unetI/netI     0.0327
_diffrn_reflns_Laue_measured_fraction_full 0.998
_diffrn_reflns_Laue_measured_fraction_max 0.925
_diffrn_reflns_limit_h_max       7
_diffrn_reflns_limit_h_min       -7
_diffrn_reflns_limit_k_max       13
_diffrn_reflns_limit_k_min       -13
_diffrn_reflns_limit_l_max       12
_diffrn_reflns_limit_l_min       -12
_diffrn_reflns_number            8874
_diffrn_reflns_point_group_measured_fraction_full 0.998
_diffrn_reflns_point_group_measured_fraction_max 0.894
_diffrn_reflns_theta_full        25.242
_diffrn_reflns_theta_max         29.239
_diffrn_reflns_theta_min         3.700
_diffrn_source                   'micro-focus sealed X-ray tube'
_diffrn_source_type              'SuperNova (Mo) X-ray Source'
_exptl_absorpt_coefficient_mu    0.133
_exptl_absorpt_correction_T_max  1.00000
_exptl_absorpt_correction_T_min  0.95510
_exptl_absorpt_correction_type   multi-scan
_exptl_absorpt_process_details
;
CrysAlisPro 1.171.39.46e (Rigaku Oxford Diffraction, 2018)
Empirical absorption correction using spherical harmonics,
 implemented in SCALE3 ABSPACK scaling algorithm.
;
_exptl_crystal_colour            colourless
_exptl_crystal_colour_primary    colourless
_exptl_crystal_density_diffrn    1.639
_exptl_crystal_description       plate
_exptl_crystal_F_000             256
_exptl_crystal_size_max          0.253
_exptl_crystal_size_mid          0.162
_exptl_crystal_size_min          0.074
_refine_diff_density_max         0.223
_refine_diff_density_min         -0.230
_refine_diff_density_rms         0.045
_refine_ls_abs_structure_details
;
 Flack x determined using 976 quotients [(I+)-(I-)]/[(I+)+(I-)]
 (Parsons, Flack and Wagner, Acta Cryst. B69 (2013) 249-259).
;
_refine_ls_abs_structure_Flack   -0.3(5)
_refine_ls_extinction_method     none
_refine_ls_goodness_of_fit_ref   1.072
_refine_ls_hydrogen_treatment    constr
_refine_ls_matrix_type           full
_refine_ls_number_parameters     163
_refine_ls_number_reflns         2450
_refine_ls_number_restraints     1
_refine_ls_restrained_S_all      1.072
_refine_ls_R_factor_all          0.0373
_refine_ls_R_factor_gt           0.0347
_refine_ls_shift/su_max          0.000
_refine_ls_shift/su_mean         0.000
_refine_ls_structure_factor_coef Fsqd
_refine_ls_weighting_details
'w=1/[\s^2^(Fo^2^)+(0.0363P)^2^+0.0835P] where P=(Fo^2^+2Fc^2^)/3'
_refine_ls_weighting_scheme      calc
_refine_ls_wR_factor_gt          0.0765
_refine_ls_wR_factor_ref         0.0778
_reflns_Friedel_coverage         0.831
_reflns_Friedel_fraction_full    0.999
_reflns_Friedel_fraction_max     0.859
_reflns_number_gt                2314
_reflns_number_total             2450
_reflns_threshold_expression     'I > 2\s(I)'
_cod_data_source_file            ao0c01331_si_007.cif
_cod_data_source_block           xl-2-25scaled
_cod_depositor_comments
'Adding full bibliography for 4517747--4517755.cif.'
_cod_database_code               4517750
_shelx_shelxl_version_number     2016/6
_chemical_oxdiff_formula         C11H8N2O5
_shelx_space_group_comment
;
The symmetry employed for this shelxl refinement is uniquely defined
by the following loop, which should always be used as a source of
symmetry information in preference to the above space-group names.
They are only intended as comments.
;
_reflns_odcompleteness_completeness 99.73
_reflns_odcompleteness_iscentric 1
_reflns_odcompleteness_theta     26.32
_olex2_refinement_description
;
1. Fixed Uiso
 At 1.2 times of:
  All C(H) groups, All C(H,H) groups
2.a Ternary CH refined with riding coordinates:
 C4(H4), C6(H6)
2.b Secondary CH2 refined with riding coordinates:
 C5(H5A,H5B)
2.c Aromatic/amide H refined with riding coordinates:
 C3(H3), C9(H9), C10(H10), C11(H11)
;
_shelx_res_file
;
TITL xl-2-27scaled_a.res in P2(1)
    xl-2-27scaled.res
    created by SHELXL-2016/6 at 12:18:22 on 25-Feb-2019
REM Old TITL XL-2-27scaled in P2(1)
REM SHELXT solution in P2(1)
REM R1 0.072, Rweak 0.106, Alpha 0.004, Orientation as input
REM Flack x = -0.376 ( 0.446 ) from Parsons' quotients
REM Formula found by SHELXT: C12 N O5
CELL 0.71073 5.6724 9.6556 9.4591 90 103.91 90
ZERR 2 0.0002 0.0003 0.0004 0 0.004 0
LATT -1
SYMM -X,0.5+Y,-Z
SFAC C H N O
UNIT 22 16 4 10

L.S. 4 0 0
PLAN  20
BOND $H
list 4
fmap 2 53
acta
REM <olex2.extras>
REM <HklSrc "%.\\XL-2-27scaled.hkl">
REM </olex2.extras>

WGHT    0.036300    0.083500
FVAR       1.80615
O1    4    0.363616    0.700872    0.623069    11.00000    0.02390    0.01813 =
         0.02218   -0.00222    0.00444   -0.00028
O2    4   -0.033007    0.540730    0.336870    11.00000    0.01455    0.02654 =
         0.01962    0.00249    0.00160    0.00019
O3    4    0.247723    0.432743    0.245543    11.00000    0.02687    0.02620 =
         0.01513   -0.00127    0.00771   -0.00009
O4    4    0.793683    0.528678    0.633072    11.00000    0.02036    0.03177 =
         0.01823    0.00407    0.00741    0.00257
O5    4    0.952460    0.611409    0.847493    11.00000    0.02152    0.02721 =
         0.02956   -0.00591    0.00577   -0.00771
N1    3    0.258191    0.339351    0.796430    11.00000    0.01910    0.01838 =
         0.01621    0.00155    0.00382   -0.00050
N2    3    0.804115    0.539020    0.763373    11.00000    0.01434    0.01983 =
         0.01902    0.00128    0.00361    0.00263
C1    1    0.290361    0.605899    0.539888    11.00000    0.01086    0.01867 =
         0.01639    0.00029    0.00375    0.00158
C2    1    0.305344    0.457762    0.584134    11.00000    0.01189    0.01915 =
         0.01308    0.00182    0.00357    0.00166
C3    1    0.205274    0.363904    0.483827    11.00000    0.01759    0.01904 =
         0.01564    0.00221    0.00471   -0.00100
AFIX  43
H3    2    0.214010    0.270217    0.507329    11.00000   -1.20000
AFIX   0
C4    1    0.077392    0.410426    0.331548    11.00000    0.02105    0.02272 =
         0.01314   -0.00058   -0.00096   -0.00280
AFIX  13
H4    2   -0.044053    0.341794    0.285259    11.00000   -1.20000
AFIX   0
C5    1    0.343314    0.569247    0.284473    11.00000    0.02098    0.02962 =
         0.01753    0.00154    0.00558   -0.00143
AFIX  23
H5A   2    0.333905    0.625657    0.198439    11.00000   -1.20000
H5B   2    0.511037    0.564859    0.339703    11.00000   -1.20000
AFIX   0
C6    1    0.178213    0.627757    0.378322    11.00000    0.01672    0.01980 =
         0.01664    0.00382    0.00136    0.00168
AFIX  13
H6    2    0.138289    0.725327    0.356011    11.00000   -1.20000
AFIX   0
C7    1    0.406973    0.417878    0.739129    11.00000    0.01612    0.01407 =
         0.01310   -0.00093    0.00388    0.00130
C8    1    0.634435    0.457659    0.824666    11.00000    0.01531    0.01765 =
         0.01533   -0.00053    0.00486    0.00219
C9    1    0.708471    0.418491    0.969808    11.00000    0.01947    0.02678 =
         0.01484   -0.00136    0.00151    0.00144
AFIX  43
H9    2    0.858207    0.445877    1.027285    11.00000   -1.20000
AFIX   0
C10   1    0.552165    0.337502    1.025849    11.00000    0.02493    0.03348 =
         0.01201    0.00460    0.00458    0.00232
AFIX  43
H10   2    0.594143    0.308486    1.122411    11.00000   -1.20000
AFIX   0
C11   1    0.332136    0.300561    0.935302    11.00000    0.02255    0.02304 =
         0.01902    0.00592    0.00817    0.00056
AFIX  43
H11   2    0.228793    0.245027    0.973642    11.00000   -1.20000
AFIX   0
HKLF 4




REM  xl-2-27scaled_a.res in P2(1)
REM R1 =  0.0347 for    2314 Fo > 4sig(Fo)  and  0.0373 for all    2450 data
REM    163 parameters refined using      1 restraints

END

WGHT      0.0363      0.0835

REM Highest difference peak  0.223,  deepest hole -0.230,  1-sigma level  0.045
Q1    1   0.1487  0.3974  0.4153  11.00000  0.05    0.22
Q2    1   0.3244  0.5328  0.5545  11.00000  0.05    0.21
Q3    1   0.3748  0.4398  0.6619  11.00000  0.05    0.21
Q4    1   0.5452  0.4156  0.7696  11.00000  0.05    0.20
Q5    1   0.5086  0.4787  0.7901  11.00000  0.05    0.18
Q6    1   0.2900  0.4169  0.5197  11.00000  0.05    0.17
Q7    1   0.2482  0.6073  0.4551  11.00000  0.05    0.17
Q8    1   0.2482  0.6078  0.1806  11.00000  0.05    0.16
Q9    1   0.4199  0.3577  0.9921  11.00000  0.05    0.16
Q10   1   0.0763  0.7154  0.3695  11.00000  0.05    0.16
Q11   1   0.5807  0.4167  1.0201  11.00000  0.05    0.16
Q12   1   0.9529  0.5631  0.9424  11.00000  0.05    0.16
Q13   1   0.5592  0.4360  0.2406  11.00000  0.05    0.16
Q14   1   0.1306  0.3031  0.7467  11.00000  0.05    0.16
Q15   1   0.3793  0.3270  0.7492  11.00000  0.05    0.15
Q16   1   0.6428  0.4396  0.9058  11.00000  0.05    0.15
Q17   1   1.0738  0.5194  1.0057  11.00000  0.05    0.15
Q18   1   0.3153  0.4077  0.7711  11.00000  0.05    0.14
Q19   1  -0.1832  0.2875  0.2740  11.00000  0.05    0.14
Q20   1   0.5600  0.3385  1.0633  11.00000  0.05    0.14
;
_shelx_res_checksum              46207
_shelx_hkl_file
;
   0 -13  -1   87.13   16.07
   0 -12   0  309.95   27.75
   0 -12   0  347.78   31.78
   0 -12  -1  162.17   21.55
   0 -12  -1  166.57   21.07
   0 -12   1  230.52   26.14
   0 -12  -2   25.85    8.70
   0 -12  -2   11.44    6.91
   0 -12  -3   70.44   13.97
   0 -12  -3   57.65   13.43
   0 -12   3   80.60   14.95
   0 -12   4  219.46   25.25
   0 -12  -4  285.08   27.69
   0 -11   0    5.01    4.18
   0 -11   0    3.48    4.98
   0 -11   1  144.85   17.18
   0 -11  -1  113.41   17.20
   0 -11  -1   85.31   14.77
   0 -11   1  126.01   18.11
   0 -11  -2   30.63    9.14
   0 -11   2   19.02    7.61
   0 -11  -2   16.97    7.38
   0 -11  -3   14.56    8.10
   0 -11  -3   11.51    6.25
   0 -11   3   20.57    8.39
   0 -11  -4  128.51   17.50
   0 -11   4   84.43   15.63
   0 -11  -4   82.69   15.62
   0 -11   4   97.01   16.14
   0 -11  -5   31.32    8.60
   0 -11   5   35.82   10.36
   0 -10   0  797.40   44.07
   0 -10   1   12.14    5.90
   0 -10  -1    9.67    5.47
   0 -10  -1    6.30    4.56
   0 -10  -2  229.10   22.46
   0 -10   2  209.12   22.47
   0 -10  -2  215.15   22.38
   0 -10   3  131.25   17.88
   0 -10  -3  138.80   18.48
   0 -10  -3  173.09   19.28
   0 -10   4   57.20   12.01
   0 -10   4   59.85   12.69
   0 -10  -4   82.58   13.46
   0 -10  -5  183.29   19.46
   0 -10  -5  128.73   20.05
   0 -10   5  170.34   21.12
   0 -10   5  208.34   23.30
   0 -10  -5  176.25   22.78
   0 -10   6   -3.32    4.05
   0 -10  -6    1.53    4.43
   0 -10  -6    2.68    5.10
   0  -9   0    6.75    4.50
   0  -9   0   10.05    3.35
   0  -9   1   34.22    8.76
   0  -9   1   27.99    5.67
   0  -9  -1   42.12    9.14
   0  -9   2  160.68   18.62
   0  -9  -2  185.57   18.79
   0  -9   3   54.28   11.39
   0  -9  -3   70.65   11.62
   0  -9  -3   41.41    9.93
   0  -9   4  214.84   21.48
   0  -9   4  154.95   18.50
   0  -9  -4  175.91   17.98
   0  -9  -4  193.91   21.35
   0  -9  -5  501.60   36.33
   0  -9  -5  420.35   33.76
   0  -9   5  468.72   33.26
   0  -9  -5  485.05   29.74
   0  -9   5  414.43   31.80
   0  -9  -6  105.83   17.56
   0  -9  -6  111.68   13.73
   0  -9  -6  117.55   18.11
   0  -9   6  139.23   19.13
   0  -9  -7   11.41    6.15
   0  -9   7   21.02    9.04
   0  -9  -7   16.52    8.33
   0  -8   0  572.56   32.50
   0  -8   0  635.28   23.67
   0  -8   1   57.90   10.59
   0  -8  -1   79.32   11.78
   0  -8  -1   71.26    6.44
   0  -8  -2  484.27   28.73
   0  -8   2  454.53   29.34
   0  -8  -3 1138.29   46.06
   0  -8  -3 1146.33   29.67
   0  -8   3 1204.94   50.17
   0  -8  -4  120.64   13.81
   0  -8   4   96.20   13.84
   0  -8   4  139.11   16.34
   0  -8  -4  115.64    9.84
   0  -8  -4  136.69   17.20
   0  -8  -5  172.77   16.33
   0  -8   5  189.40   20.07
   0  -8   5  143.85   17.20
   0  -8  -5  159.72   20.02
   0  -8  -5  159.76   19.56
   0  -8  -6  171.23   15.69
   0  -8  -6  195.85   22.27
   0  -8   6  182.10   20.91
   0  -8   6  178.16   19.45
   0  -8  -6  174.78   15.73
   0  -8  -6  203.34   22.94
   0  -8  -7   84.25   15.18
   0  -8   7  152.59   20.04
   0  -8  -7  123.81   14.61
   0  -8  -7  116.46   18.00
   0  -8  -8   82.51   15.70
   0  -8   8   72.35   14.68
   0  -8  -8   52.17   12.63
   0  -7   0   98.50    8.47
   0  -7   0   83.73   12.01
   0  -7  -1  110.93    7.83
   0  -7   1   94.18   12.16
   0  -7  -1  107.72   12.45
   0  -7   2  146.05   15.12
   0  -7  -2  133.22    6.14
   0  -7  -2  128.34   13.44
   0  -7  -3  749.22   24.22
   0  -7   3  790.20   23.05
   0  -7   3  738.61   36.02
   0  -7  -3  760.79   33.78
   0  -7  -4  166.28   14.79
   0  -7   4  177.56   11.82
   0  -7   4  170.04   16.68
   0  -7  -4  178.78   12.75
   0  -7  -4  169.80   17.97
   0  -7   4  195.94   18.45
   0  -7   5  140.34   15.62
   0  -7  -5  141.07   17.51
   0  -7   5  164.84   17.81
   0  -7  -5  204.45   16.06
   0  -7  -5  167.40   18.60
   0  -7  -6  404.69   24.63
   0  -7   6  394.58   29.36
   0  -7  -6  351.26   28.96
   0  -7  -6  375.42   29.29
   0  -7   6  415.32   28.00
   0  -7  -6  395.70   22.17
   0  -7   7  600.35   39.21
   0  -7  -7  652.83   41.06
   0  -7  -7  639.63   34.39
   0  -7  -7  717.95   43.03
   0  -7  -8   65.73   11.83
   0  -7  -8   99.15   16.19
   0  -7   8   92.58   15.98
   0  -7  -8   78.76   14.43
   0  -7  -9  342.20   31.61
   0  -7  -9  357.25   29.30
   0  -7  -9  372.81   33.10
   0  -7   9  302.57   30.78
   0  -7 -10   76.35   14.93
   0  -6   0  446.13   24.33
   0  -6   0  434.87   17.36
   0  -6  -1  819.54   22.89
   0  -6   1  688.76   31.93
   0  -6  -1  714.75   31.52
   0  -6  -2  391.74   13.54
   0  -6   2  413.08   23.86
   0  -6   2  379.13   12.17
   0  -6  -2  392.09   21.85
   0  -6   3 1050.67   41.40
   0  -6   3 1080.34   30.17
   0  -6  -3 1094.31   31.76
   0  -6  -3 1168.06   39.80
   0  -6  -4  185.91   17.61
   0  -6  -4  157.51   13.32
   0  -6   4  164.87   16.12
   0  -6   4  187.44   16.34
   0  -6  -4  168.53   12.59
   0  -6  -5  363.94   26.26
   0  -6   5  345.50   22.95
   0  -6   5  361.43   25.22
   0  -6   5  377.16   13.08
   0  -6  -5  349.19   25.50
   0  -6  -5  361.33   19.80
   0  -6  -6  167.07   12.59
   0  -6  -6  155.01   17.87
   0  -6  -6  158.00   15.26
   0  -6   6  172.22   18.52
   0  -6  -6  171.84   19.19
   0  -6  -7  616.74   33.74
   0  -6  -7  557.61   35.92
   0  -6   7  605.19   37.21
   0  -6  -7  527.32   35.00
   0  -6  -8  207.15   22.62
   0  -6   8  175.71   21.16
   0  -6  -8  210.80   22.68
   0  -6  -8  159.88   18.20
   0  -6  -9   76.18   14.33
   0  -6  -9   79.89   14.67
   0  -6  -9   71.09   13.56
   0  -6   9   75.10   15.00
   0  -6 -10  167.49   22.02
   0  -6 -10  168.79   21.57
   0  -6 -10  173.87   22.48
   0  -5   0    4.87    2.60
   0  -5   0    1.72    2.41
   0  -5   1  858.10   32.83
   0  -5   1  881.38   32.27
   0  -5  -1  834.55   31.52
   0  -5  -1  892.28   23.26
   0  -5  -1  831.06   31.16
   0  -5  -2 1230.75   30.56
   0  -5   2 1253.86   41.94
   0  -5  -2 1260.09   39.55
   0  -5   2 1270.08   29.47
   0  -5  -2 1282.60   41.11
   0  -5   3  568.33   26.38
   0  -5  -3  529.96   20.81
   0  -5  -3  564.84   23.87
   0  -5  -3  531.72   24.71
   0  -5  -4  211.78   17.63
   0  -5   4  191.51   15.17
   0  -5  -4  218.82   13.85
   0  -5   4  204.99   16.77
   0  -5  -4  213.87   14.36
   0  -5  -5   60.09    7.06
   0  -5   5   69.08    9.35
   0  -5  -5   71.83   11.07
   0  -5  -5   68.17   10.69
   0  -5   5   80.01    4.80
   0  -5   5   89.36   11.93
   0  -5  -6 1019.99   41.70
   0  -5   6  974.98   44.53
   0  -5  -6 1045.68   31.67
   0  -5  -6 1002.76   45.03
   0  -5  -6  984.92   44.54
   0  -5  -7  945.77   42.80
   0  -5   7  943.59   46.08
   0  -5  -7  920.13   44.97
   0  -5  -7  918.43   44.49
   0  -5   8  449.98   32.82
   0  -5  -8  436.11   30.24
   0  -5  -8  446.35   31.72
   0  -5  -8  453.71   32.18
   0  -5  -9   70.98   13.65
   0  -5  -9   47.41   11.25
   0  -5   9   52.93   11.95
   0  -5  -9   70.28   12.83
   0  -5 -10  103.45   16.42
   0  -5 -10   71.81   14.31
   0  -5  10   80.16   15.54
   0  -5 -10   93.93   15.80
   0  -5 -11    7.39    6.00
   0  -5 -11   -0.36    5.14
   0  -4   0 1449.19   40.19
   0  -4   0 1419.06   40.89
   0  -4   1  175.63    5.85
   0  -4  -1  175.33   11.68
   0  -4  -1  161.48    6.27
   0  -4   1  162.55   11.55
   0  -4   1  193.00   12.84
   0  -4  -1  175.02    7.76
   0  -4  -1  176.75   11.75
   0  -4  -2  108.12    9.06
   0  -4   2   99.55    9.63
   0  -4  -2  116.23    9.83
   0  -4  -3  758.32   25.50
   0  -4   3  739.74   28.39
   0  -4  -3  721.50   28.56
   0  -4   3  687.33   28.78
   0  -4  -3  787.92   28.66
   0  -4  -4  519.68   19.65
   0  -4   4  499.19   23.12
   0  -4  -4  529.43   26.73
   0  -4   4  443.76   23.99
   0  -4   4  470.29   13.90
   0  -4  -4  485.56   25.44
   0  -4  -5  364.34   23.09
   0  -4   5  329.02   21.99
   0  -4  -5  375.37   15.73
   0  -4  -5  370.73   23.48
   0  -4   5  374.77   11.20
   0  -4   5  406.44   20.75
   0  -4  -6  395.20   14.87
   0  -4   6  351.13   24.51
   0  -4   6  380.97   15.61
   0  -4  -6  341.76   23.97
   0  -4  -6  353.59   24.04
   0  -4  -7  206.86   19.06
   0  -4  -7  209.56   19.08
   0  -4   7  197.48   19.42
   0  -4  -7  199.33   19.11
   0  -4  -8  115.09   14.82
   0  -4  -8   78.41   12.76
   0  -4   8  108.15   15.70
   0  -4  -8  101.50   14.35
   0  -4  -9   43.87   10.19
   0  -4  -9   68.62   12.31
   0  -4  -9   63.79   12.48
   0  -4   9   37.16    9.80
   0  -4  10    3.07    5.46
   0  -4 -10    6.82    4.55
   0  -4 -10    1.30    3.34
   0  -4 -10    9.59    6.66
   0  -4 -11   -0.18    4.29
   0  -4 -11    0.61    3.63
   0  -4 -11    6.05    5.17
   0  -3   0    1.17    1.65
   0  -3   0   -1.91    1.56
   0  -3   1  110.69    8.61
   0  -3  -1   88.66    4.82
   0  -3  -1   96.02    7.50
   0  -3   1   98.68    7.80
   0  -3  -1   92.82    7.48
   0  -3  -2 1201.44   31.82
   0  -3   2 1241.71   35.44
   0  -3  -2 1275.29   35.01
   0  -3  -2 1229.81   33.90
   0  -3   2 1164.05   34.16
   0  -3   3  167.42   12.23
   0  -3  -3  178.10    9.66
   0  -3   3  166.76    6.91
   0  -3  -3  190.59   12.18
   0  -3   3  179.20   11.62
   0  -3   4  195.52    9.43
   0  -3  -4  195.52   13.59
   0  -3  -4  208.54   15.19
   0  -3  -4  215.42   10.15
   0  -3  -4  208.03   15.46
   0  -3   4  209.82    7.82
   0  -3   4  215.46   13.02
   0  -3   4  191.26   14.62
   0  -3   4  214.53   12.17
   0  -3   5  172.36   12.39
   0  -3   5  138.48    6.77
   0  -3   5  134.29   13.48
   0  -3  -5  129.67   12.74
   0  -3  -5  159.70    7.92
   0  -3   5  168.74    9.20
   0  -3  -5  147.78   13.82
   0  -3   5  168.65   11.34
   0  -3   6  140.75   11.09
   0  -3   6  141.11   14.75
   0  -3  -6  155.95   14.96
   0  -3   6  132.55    8.87
   0  -3  -6  135.85   13.94
   0  -3   7   25.27    7.18
   0  -3  -7   41.99    8.29
   0  -3   7   44.79    5.61
   0  -3  -7   49.84    8.82
   0  -3  -8  512.83   31.47
   0  -3  -8  535.69   31.25
   0  -3  -8  568.05   34.77
   0  -3   8  565.12   34.91
   0  -3  -9  224.97   20.94
   0  -3  -9  244.31   23.88
   0  -3  -9  182.16   19.57
   0  -3   9  231.97   23.68
   0  -3  10   27.00    9.40
   0  -3 -10   30.06    9.51
   0  -3 -10   28.11    8.24
   0  -3 -10   21.60    7.99
   0  -3 -11  187.97   22.01
   0  -3 -11  160.06   18.85
   0  -3 -11  167.56   22.50
   0  -3  11  152.06   21.88
   0  -2   0 9262.77  163.91
   0  -2   0 9212.84  163.27
   0  -2  -1 4123.09   79.72
   0  -2  -1 4310.64   74.34
   0  -2  -1 4127.48   78.56
   0  -2   1 3954.79   80.21
   0  -2  -2 4635.28   89.41
   0  -2   2 4484.87   86.37
   0  -2  -2 4536.62   84.73
   0  -2   2 4603.31   91.20
   0  -2  -2 4637.04   90.11
   0  -2   2 4791.78   83.18
   0  -2   2 4345.80   88.18
   0  -2   3  288.67   15.42
   0  -2  -3  292.66   15.64
   0  -2  -3  300.86   10.36
   0  -2   3  303.61   12.67
   0  -2   3  312.15   13.45
   0  -2  -3  285.00   14.32
   0  -2   3  294.61   10.47
   0  -2   3  299.70    9.13
   0  -2  -4 4726.50  103.18
   0  -2   4 4866.08   97.77
   0  -2  -4 4830.00   86.66
   0  -2  -4 4907.18  101.93
   0  -2   4 4853.49   94.33
   0  -2  -4 4686.80  102.31
   0  -2   4 4930.81   90.55
   0  -2   4 4974.05   95.41
   0  -2   4 4621.39  103.61
   0  -2   4 4886.17   88.31
   0  -2   4 4691.49   94.60
   0  -2   5   11.94    2.63
   0  -2   5    6.38    3.37
   0  -2   5   10.54    3.14
   0  -2   5   10.98    2.86
   0  -2  -5   12.00    3.77
   0  -2  -5    6.25    2.75
   0  -2   5   15.46    3.47
   0  -2   6   47.89    8.51
   0  -2   6   69.84    7.53
   0  -2  -6   68.87    9.59
   0  -2   6   62.41    6.03
   0  -2   6   52.54    6.15
   0  -2  -6   55.97    8.35
   0  -2  -7   52.20    8.88
   0  -2   7   55.22    6.45
   0  -2  -7   39.10    7.39
   0  -2   7   40.10    5.41
   0  -2   7   50.15    6.99
   0  -2   7   58.28   10.02
   0  -2  -8   84.47   11.30
   0  -2  -8   90.38   12.39
   0  -2   8   75.48   12.53
   0  -2  -9   72.31   11.01
   0  -2   9   64.19   11.91
   0  -2  -9   94.07   13.28
   0  -2  -9   67.47   12.67
   0  -2 -10  179.86   18.28
   0  -2 -10  160.97   20.84
   0  -2 -10  159.20   18.40
   0  -2  10  198.80   23.21
   0  -2  11  143.79   20.60
   0  -2 -11  116.59   16.71
   0  -2 -11  124.47   19.53
   0  -2 -12  315.24   29.04
   0  -1   2 2404.73   48.69
   0  -1   2 2480.06   52.16
   0  -1   2 2409.49   47.60
   0  -1   2 2405.24   47.38
   0  -1  -2 2449.03   50.90
   0  -1   2 2405.54   45.21
   0  -1   2 2345.96   46.94
   0  -1  -2 2486.90   52.13
   0  -1   2 2452.16   44.37
   0  -1   3 1191.31   29.82
   0  -1  -3 1273.75   34.16
   0  -1  -3 1200.03   32.80
   0  -1   3 1222.46   27.29
   0  -1  -3 1173.42   33.24
   0  -1   3 1239.01   34.70
   0  -1   3 1229.92   28.47
   0  -1   3 1266.82   31.66
   0  -1   4 3923.81   75.76
   0  -1  -4 3836.78   84.07
   0  -1  -4 3992.89   82.98
   0  -1   4 3847.56   81.60
   0  -1   4 3985.17   79.11
   0  -1   4 3796.23   86.38
   0  -1  -4 3788.48   84.38
   0  -1   5  173.06   11.27
   0  -1   5  171.84   14.12
   0  -1   5  186.20   12.86
   0  -1  -5  181.80   12.76
   0  -1   5  186.22   10.08
   0  -1  -5  191.45   13.66
   0  -1  -6  486.22   23.36
   0  -1   6  463.02   26.17
   0  -1   6  526.39   19.17
   0  -1   6  506.00   21.82
   0  -1  -6  455.80   23.85
   0  -1  -7   28.07    6.43
   0  -1   7   28.10    5.58
   0  -1  -7   32.32    6.35
   0  -1   7   24.07    6.44
   0  -1   7   35.40    4.94
   0  -1   7   24.88    3.07
   0  -1  -8  159.35   14.57
   0  -1  -8  147.02   15.15
   0  -1   8  168.65   18.08
   0  -1  -9  384.13   26.50
   0  -1   9  403.97   30.38
   0  -1  -9  423.81   25.19
   0  -1  -9  414.76   31.43
   0  -1  10   49.17   11.18
   0  -1 -10   54.10   10.37
   0  -1 -10   50.39   11.97
   0  -1 -10   45.69    8.55
   0  -1  11    8.82    6.54
   0  -1 -11    6.07    5.42
   0  -1 -11    7.33    3.70
   0   0   2 2550.32   50.10
   0   0   2 2433.97   51.06
   0   0  -2 2444.62   48.51
   0   0  -2 2395.43   47.76
   0   0  -2 2511.03   49.59
   0   0   2 2355.23   48.36
   0   0  -3 1970.24   36.43
   0   0  -3 1935.70   43.92
   0   0  -3 1961.58   43.35
   0   0   3 1955.63   40.18
   0   0   3 1883.68   47.06
   0   0  -3 1994.93   47.36
   0   0   3 2002.74   44.08
   0   0  -3 1973.80   45.26
   0   0   3 2103.61   46.33
   0   0  -4   51.75    3.15
   0   0  -4   54.85    5.76
   0   0   4   67.13    7.81
   0   0   4   52.05    6.39
   0   0  -4   56.19    6.11
   0   0  -4   67.30    7.15
   0   0   4   63.25    6.54
   0   0   4   51.88    4.68
   0   0  -5 1200.76   36.66
   0   0   5 1122.50   40.17
   0   0  -5 1236.22   35.30
   0   0  -5 1238.55   38.06
   0   0   5 1303.33   31.91
   0   0   5 1207.54   36.20
   0   0  -5 1239.47   25.02
   0   0   5 1275.02   39.64
   0   0   6  216.02   17.18
   0   0   6  203.06   11.16
   0   0  -6  207.24   15.12
   0   0   6  207.67   14.14
   0   0  -6  218.52   14.55
   0   0  -6  203.25   13.30
   0   0  -7  504.63   26.09
   0   0   7  482.56   28.51
   0   0  -7  483.53   22.74
   0   0  -7  473.53   24.19
   0   0   7  508.02   19.55
   0   0  -8  343.32   22.81
   0   0   8  339.37   16.49
   0   0  -8  358.96   20.34
   0   0   8  275.05   23.24
   0   0  -9  102.14   13.69
   0   0   9   84.33   13.90
   0   0  -9   91.09   14.84
   0   0  -9  123.23   12.32
   0   0 -10  307.88   28.81
   0   0  10  257.73   25.62
   0   0  11   15.06    7.25
   0   0 -11   12.99    7.37
   0   1   2 2415.61   51.04
   0   1  -2 2481.10   48.25
   0   1  -2 2428.66   44.34
   0   1   2 2483.54   51.32
   0   1  -2 2394.48   47.74
   0   1  -2 2432.02   47.27
   0   1   3 1224.66   33.98
   0   1  -3 1247.76   27.32
   0   1   3 1300.03   33.66
   0   1  -3 1254.00   28.56
   0   1  -3 1226.33   28.77
   0   1   3 1194.37   34.34
   0   1  -3 1259.37   30.75
   0   1  -4 4038.07   80.14
   0   1  -4 3812.31   74.36
   0   1  -4 4019.66   75.35
   0   1   4 3943.28   83.26
   0   1   4 3627.52   84.68
   0   1   4 3986.59   86.31
   0   1  -5  166.19    8.56
   0   1   5  187.21   14.25
   0   1  -5  171.83    9.73
   0   1   5  186.56   12.92
   0   1  -5  188.89   12.07
   0   1  -5  185.70   12.44
   0   1   5  173.43   13.65
   0   1   6  456.70   18.16
   0   1  -6  496.48   16.00
   0   1  -6  483.11   21.91
   0   1  -6  476.47   18.91
   0   1   6  455.91   25.38
   0   1   6  466.11   23.12
   0   1   7   26.22    4.34
   0   1  -7   21.08    4.20
   0   1  -7   22.26    5.05
   0   1   7   28.99    7.20
   0   1  -7   30.56    3.44
   0   1  -8  179.11   12.62
   0   1  -8  137.62   13.10
   0   1   8  155.49   16.96
   0   1   9  346.42   27.69
   0   1  -9  393.80   20.39
   0   1  -9  395.60   30.38
   0   1  -9  374.98   23.30
   0   1 -10   63.32   13.29
   0   1  10   37.04    9.93
   0   1 -11    8.80    7.48
   0   1  11   14.74    7.71
   0   2   0 9219.24  162.75
   0   2   1 4123.98   79.34
   0   2   1 4175.00   77.95
   0   2   1 4090.03   73.42
   0   2  -2 4519.34   85.88
   0   2  -2 4539.13   86.36
   0   2   2 4510.32   89.69
   0   2  -2 4534.76   82.04
   0   2  -2 4754.02   88.84
   0   2   2 4501.12   84.05
   0   2   3  307.80   15.47
   0   2  -3  319.68   13.01
   0   2  -3  303.80   12.91
   0   2  -3  300.65   13.32
   0   2   3  313.08   15.71
   0   2   3  305.81   15.32
   0   2   3  311.71   10.55
   0   2   4 4797.62  101.33
   0   2  -4 4862.24   95.01
   0   2  -4 4750.98   93.02
   0   2   4 4842.24  101.18
   0   2  -4 4595.76   93.59
   0   2  -5    9.04    2.53
   0   2  -5    8.28    2.82
   0   2  -5   10.37    2.57
   0   2  -5   14.55    2.43
   0   2   5   10.84    3.72
   0   2   5   10.15    3.64
   0   2  -6   64.34    5.59
   0   2   6   70.04    9.76
   0   2  -6   68.76    7.83
   0   2  -6   66.61    6.52
   0   2  -7   50.92    5.82
   0   2  -7   43.45    6.82
   0   2  -7   50.44    5.53
   0   2   7   48.50    8.88
   0   2  -8   82.79    7.44
   0   2   8   77.25   12.29
   0   2  -8   72.37    9.42
   0   2  -9   78.01   10.43
   0   2  -9   66.69   12.62
   0   2   9   80.40   13.30
   0   2  10  151.99   19.75
   0   2 -10  205.73   23.50
   0   2 -11  159.47   21.99
   0   2  11  150.51   21.06
   0   3   0   -0.48    1.63
   0   3  -1   92.69    4.42
   0   3   1   91.00    7.30
   0   3   1   98.04    7.74
   0   3  -1   87.88    7.52
   0   3  -2 1228.88   34.81
   0   3   2 1209.19   31.77
   0   3  -2 1182.48   28.91
   0   3  -2 1202.91   32.03
   0   3   2 1211.68   34.41
   0   3   2 1216.02   28.18
   0   3   3  179.18    9.59
   0   3   3  178.18   12.33
   0   3  -3  180.12   10.70
   0   3  -3  169.28   10.57
   0   3  -3  179.46    8.39
   0   3  -3  183.97   11.74
   0   3   4  202.67   14.48
   0   3   4  216.91   14.58
   0   3   4  193.37   14.27
   0   3   4  200.80    9.81
   0   3  -4  206.63   12.91
   0   3  -4  195.89   11.91
   0   3  -4  204.61   12.03
   0   3  -5  166.29   11.30
   0   3  -5  164.61   11.88
   0   3   5  142.53   13.15
   0   3   5  144.84   13.27
   0   3  -5  155.57   11.33
   0   3  -6  143.15   11.22
   0   3  -6  148.22   11.87
   0   3  -6  138.05   10.70
   0   3   6  125.78   13.66
   0   3   6  140.97   14.14
   0   3  -7   40.89    6.78
   0   3  -7   42.59    6.20
   0   3   7   24.62    6.28
   0   3   7   41.11    8.51
   0   3  -7   35.77    5.64
   0   3  -8  548.18   27.04
   0   3   8  519.95   32.49
   0   3   8  576.50   34.64
   0   3  -8  572.33   34.58
   0   3  -9  220.14   17.42
   0   3   9  216.47   21.86
   0   3  -9  235.92   23.47
   0   3   9  174.74   20.04
   0   3  10   22.06    8.04
   0   3  10   25.56    8.52
   0   3 -10   24.15    8.47
   0   3 -11  137.11   20.78
   0   3  11  175.24   22.51
   0   3  11  149.81   21.23
   0   4   0 1473.04   40.13
   0   4  -1  154.31    5.50
   0   4  -1  157.38   11.20
   0   4   1  158.30   11.28
   0   4   1  186.61   12.14
   0   4   2  101.01    9.31
   0   4  -2   96.54    8.63
   0   4   2  100.24    8.69
   0   4  -2  102.24    7.50
   0   4   2  110.89    6.51
   0   4  -2  101.97    6.56
   0   4  -3  778.60   29.31
   0   4   3  743.45   25.34
   0   4   3  701.15   28.13
   0   4  -3  756.69   26.36
   0   4  -3  722.71   26.81
   0   4   3  741.10   22.48
   0   4  -3  753.28   22.38
   0   4   4  467.48   18.85
   0   4  -4  484.49   21.47
   0   4   4  486.79   24.20
   0   4  -4  478.16   16.69
   0   4  -4  459.84   20.48
   0   4   4  483.61   19.43
   0   4   5  379.73   16.01
   0   4  -5  362.43   18.63
   0   4   5  338.23   21.44
   0   4  -5  339.17   18.10
   0   4  -6  374.71   20.11
   0   4   6  398.85   25.15
   0   4   6  367.05   23.67
   0   4  -6  355.34   19.16
   0   4   7  186.14   17.86
   0   4  -7  213.58   18.97
   0   4  -7  230.40   16.46
   0   4  -7  188.08   14.11
   0   4   7  193.69   18.84
   0   4   8  102.94   14.32
   0   4  -8   95.28   10.14
   0   4   8  108.69   15.19
   0   4  -8   99.81   14.17
   0   4  -8   85.77   10.57
   0   4  -9   50.17   10.93
   0   4   9   41.09    9.90
   0   4  10    6.66    5.47
   0   4 -10    1.60    4.11
   0   4  10    5.10    5.56
   0   4 -11    0.39    3.56
   0   4  11   -7.37    6.66
   0   4  11    2.20    4.63
   0   5   0    6.83    3.57
   0   5   1  851.34   31.75
   0   5   1  826.65   30.79
   0   5  -1  855.74   31.35
   0   5  -2 1220.39   29.56
   0   5   2 1282.78   40.16
   0   5   2 1279.77   40.75
   0   5   3  534.41   25.43
   0   5  -3  543.83   23.75
   0   5  -3  572.24   20.71
   0   5   3  525.00   23.32
   0   5  -3  570.92   20.68
   0   5   3  529.10   18.31
   0   5  -3  554.35   24.78
   0   5   4  213.18   13.70
   0   5   4  213.86   12.19
   0   5   4  215.59   16.49
   0   5  -4  227.57   15.04
   0   5  -4  192.72   11.02
   0   5  -4  204.87   14.80
   0   5  -4  213.22   13.99
   0   5   5   67.86   10.06
   0   5  -5   85.46    9.77
   0   5  -5   76.06    8.74
   0   5  -5   73.54    9.26
   0   5   5   78.44    8.26
   0   5   5   77.97    8.02
   0   5  -6  978.16   36.69
   0   5  -6 1001.75   40.60
   0   5  -6 1023.66   37.16
   0   5   6 1038.70   44.03
   0   5   7  911.56   43.62
   0   5  -7  966.56   42.75
   0   5  -7  921.20   36.29
   0   5  -7  937.60   36.96
   0   5  -8  491.59   32.16
   0   5  -8  475.34   25.35
   0   5  -8  461.43   25.93
   0   5   8  470.34   32.51
   0   5   9   51.44   11.65
   0   5  -9   69.30   12.59
   0   5 -10  108.74   17.02
   0   5  10   82.97   15.22
   0   5  11    3.56    4.26
   0   5 -11   -1.25    4.69
   0   6   0  442.67   23.09
   0   6  -1  741.35   31.18
   0   6   1  760.07   31.27
   0   6   2  402.94   13.31
   0   6  -2  377.18   12.24
   0   6   2  414.02   22.84
   0   6  -3 1062.10   38.26
   0   6  -3 1058.42   33.49
   0   6  -3 1101.59   39.94
   0   6   3 1056.28   40.21
   0   6  -3 1076.30   30.41
   0   6  -4  189.07   11.93
   0   6  -4  174.79   14.19
   0   6  -4  198.05   13.20
   0   6   4  168.17   15.47
   0   6   4  185.77   11.17
   0   6  -4  199.87   16.05
   0   6  -5  352.95   20.60
   0   6   5  362.63   24.41
   0   6  -5  369.83   16.60
   0   6   5  354.16   17.66
   0   6  -5  369.94   21.55
   0   6  -5  331.59   21.30
   0   6  -6  153.96   13.94
   0   6  -6  150.91   14.74
   0   6   6  145.98   16.32
   0   6  -6  154.99   14.50
   0   6  -7  594.99   32.85
   0   6   7  557.90   34.51
   0   6  -7  584.67   29.58
   0   6  -7  618.77   30.63
   0   6  -8  194.53   17.02
   0   6   8  224.79   22.68
   0   6  -8  197.94   19.98
   0   6  -8  200.56   17.21
   0   6   9   75.01   14.21
   0   6  -9   92.44   14.85
   0   6 -10  175.89   21.64
   0   6  10  158.73   21.46
   0   6 -11   -0.43    4.47
   0   7   0  116.39   12.78
   0   7   1  116.10   12.40
   0   7  -1   84.20   10.87
   0   7   2  139.03    5.95
   0   7   2  131.66   13.62
   0   7  -3  784.76   23.16
   0   7  -3  745.22   29.15
   0   7   3  769.06   35.54
   0   7  -3  729.32   33.31
   0   7  -3  733.27   34.13
   0   7   3  787.05   23.93
   0   7  -4  189.35   13.05
   0   7  -4  177.58   15.44
   0   7   4  146.75   15.44
   0   7   4  186.98   12.53
   0   7  -4  190.33   16.68
   0   7  -4  171.63   11.93
   0   7  -5  186.78   14.49
   0   7  -5  191.84   12.61
   0   7  -5  175.21   15.62
   0   7   5  143.22   16.01
   0   7  -5  187.50   17.10
   0   7   6  391.32   28.12
   0   7  -6  434.15   24.83
   0   7  -6  342.55   23.68
   0   7  -6  418.51   25.09
   0   7  -7  593.45   32.78
   0   7  -7  655.26   32.84
   0   7   7  610.50   37.26
   0   7  -7  632.97   33.03
   0   7  -8   88.63   13.48
   0   7   8   73.87   13.48
   0   7  -8   81.48   11.77
   0   7  -9  416.75   31.26
   0   7   9  371.56   31.85
   0   7 -10   75.03   14.67
   0   7  10   57.02   13.27
   0   8   0  577.40   30.92
   0   8   1   77.34   10.98
   0   8  -1   61.83   10.14
   0   8   2  459.80   27.68
   0   8  -3 1170.80   40.50
   0   8   3 1088.11   46.10
   0   8  -3 1110.13   45.99
   0   8  -3 1095.61   44.76
   0   8  -4  141.96   15.42
   0   8  -4  119.87   11.28
   0   8  -4  122.22    9.23
   0   8   4  119.52   14.88
   0   8  -4  105.42   13.13
   0   8  -5  178.94   16.83
   0   8  -5  163.59   17.01
   0   8  -5  144.62   11.91
   0   8   5  140.10   16.61
   0   8  -6  205.85   18.44
   0   8   6  132.20   16.80
   0   8  -6  184.29   18.13
   0   8  -7  120.07   14.25
   0   8   7   86.03   14.32
   0   8  -7  106.28   14.26
   0   8  -8   78.56   12.41
   0   8   8   77.50   14.57
   0   8   9   56.72   12.96
   0   9   0    9.11    4.83
   0   9   1   22.29    6.23
   0   9  -1   28.17    7.67
   0   9  -2  145.08   14.55
   0   9   2  167.86   17.33
   0   9   3   48.33    9.93
   0   9  -3   46.65    9.57
   0   9  -3   62.05    9.56
   0   9  -3   49.16   10.06
   0   9  -4  167.27   14.47
   0   9   4  179.71   19.02
   0   9  -4  163.48   17.39
   0   9  -4  176.56   18.70
   0   9   5  455.31   32.04
   0   9  -5  463.08   31.00
   0   9  -5  472.71   29.92
   0   9   6  130.53   17.60
   0   9  -6  117.90   14.94
   0   9  -6   96.76   14.25
   0   9  -7   17.29    6.52
   0   9   7   13.95    6.89
   0   9  -8   16.27    7.00
   0   9   8   18.66    7.72
   0   9   9  215.11   25.83
   0  10   0  788.64   41.56
   0  10  -1   11.91    5.70
   0  10   1    3.01    3.36
   0  10  -2  184.13   17.57
   0  10   2  201.12   20.39
   0  10  -3  167.63   16.17
   0  10  -3  147.54   17.74
   0  10   3  149.29   17.99
   0  10  -3  170.43   19.36
   0  10  -4   64.44   12.26
   0  10  -4   66.64   11.92
   0  10   4   68.31   12.63
   0  10  -5  187.85   20.79
   0  10   5  184.68   21.23
   0  10  -5  206.77   20.81
   0  10   6    1.04    4.01
   0  10  -6   -0.75    3.60
   0  10  -6    8.94    6.07
   0  10   7   39.98   10.64
   0  10  -7   54.53   11.49
   0  10   8   80.70   15.87
   0  11   0    0.87    3.98
   0  11   1  120.57   16.74
   0  11  -2   32.55    8.45
   0  11   2   28.59    9.11
   0  11  -2   19.42    7.65
   0  11  -2   41.82   10.43
   0  11  -3   17.18    7.41
   0  11   3    8.65    5.23
   0  11  -3   18.44    7.76
   0  11  -4   89.94   14.56
   0  11   4   71.89   13.63
   0  11  -4   78.73   14.19
   0  11  -5   50.30   11.08
   0  11   5   49.29   11.86
   0  11  -5   33.36    9.52
   0  11   6   10.31    6.53
   0  11  -6   11.94    6.37
   0  11   7   -2.63    7.58
   0  12   0  384.82   32.14
   0  12   1  156.17   20.25
   0  12  -1  146.16   18.17
   0  12   2   20.33    7.70
   0  12  -2   17.22    7.43
   0  12  -3   68.64   13.45
   0  12   3   78.59   14.57
   0  12   4  198.16   23.49
   0  12  -4  266.39   26.48
   0  12   5   27.54    9.46
   0  13   1   96.65   16.80
  -1 -13  -1   13.74    8.82
   1 -12  -5   20.71    9.32
  -1 -12   5   16.11    7.63
   1 -12  -4   66.32   14.50
  -1 -12   4   13.38    7.11
   1 -12  -3   75.74   14.95
  -1 -12   3   76.21   14.15
   1 -12  -2   12.51    6.63
   1 -12  -1   73.81   14.87
  -1 -12   0   34.81   10.16
  -1 -12  -1   12.46    6.26
  -1 -12  -2  106.69   17.75
  -1 -11   6    2.05    4.19
   1 -11  -5   75.51   13.66
   1 -11  -5   76.96   16.01
  -1 -11   5   66.20   13.39
   1 -11  -4    8.41    5.53
  -1 -11   4    3.93    5.44
   1 -11  -3   56.54   12.52
  -1 -11   3   48.45   10.77
   1 -11  -2  191.71   22.32
  -1 -11   2  165.47   18.37
   1 -11  -1  109.38   17.08
  -1 -11   1  102.93   14.61
  -1 -11   0   26.87    8.21
   1 -11   0   47.80   11.63
  -1 -11  -1   56.31   12.13
   1 -11   1   46.02   11.54
  -1 -11  -2  438.62   34.19
   1 -11   2  376.69   32.46
  -1 -11  -3  141.47   20.51
  -1 -11  -3  136.78   19.84
   1 -11   3  138.13   19.82
  -1 -11  -4   70.69   14.68
   1 -11   4   47.27   12.49
   1 -11   4   54.01   12.69
  -1 -11  -4   48.35   12.57
  -1 -10   7  256.95   27.60
   1 -10  -6  376.53   28.53
   1 -10  -6  331.42   31.83
  -1 -10   6  322.91   29.39
   1 -10  -5   39.44    9.65
  -1 -10   5   32.88    9.48
  -1 -10   4   64.82   12.09
   1 -10  -4   67.95   12.66
   1 -10  -3  105.82   15.53
  -1 -10   3   90.34   13.24
  -1 -10   2  186.70   17.43
  -1 -10   2  199.66   17.62
   1 -10  -2  166.00   19.67
  -1 -10   1   -0.34    3.71
  -1 -10   1    1.05    1.91
   1 -10  -1   -0.46    4.23
  -1 -10   0   39.22    9.13
   1 -10   0   29.66    8.93
  -1 -10  -1  268.62   24.28
   1 -10   1  281.12   26.00
  -1 -10  -2    2.83    4.89
   1 -10   2    4.13    5.05
  -1 -10  -3   38.80   10.44
  -1 -10  -3   46.29   11.16
   1 -10   3   30.06    9.25
   1 -10   4  196.58   22.44
  -1 -10  -4  170.05   21.61
  -1 -10  -4  218.43   24.55
  -1 -10  -5   64.58   13.93
  -1 -10  -5   89.28   16.43
   1 -10   5   65.11   13.41
   1 -10   5   69.62   14.13
   1 -10   6   25.70    9.63
   1 -10   6   34.66    9.82
   1 -10   7   99.84   17.13
  -1  -9   8   48.64   12.57
   1  -9  -7    7.11    5.51
   1  -9  -7   -1.09    5.03
  -1  -9   7    8.94    6.09
   1  -9  -6   13.30    5.50
  -1  -9   6    9.00    5.78
  -1  -9   5  198.74   20.63
   1  -9  -5  189.56   18.99
  -1  -9   4  285.95   23.77
   1  -9  -4  308.47   24.54
  -1  -9   3    8.93    3.94
  -1  -9   3   22.61    6.37
   1  -9  -3    5.95    3.53
  -1  -9   2  318.49   21.75
   1  -9  -2  317.05   25.32
  -1  -9   2  279.88   20.20
  -1  -9   1   36.70    7.90
  -1  -9   1   30.55    8.87
   1  -9  -1   50.07   10.32
  -1  -9   1   33.90    7.05
  -1  -9   0  172.72   18.83
   1  -9   0  179.07   19.22
  -1  -9   0  196.69   18.64
  -1  -9   0  214.05   15.90
  -1  -9  -1  314.45   25.04
  -1  -9  -1  375.00   27.25
   1  -9   1  385.97   28.83
  -1  -9  -1  350.36   19.73
  -1  -9  -2  115.35   10.70
  -1  -9  -2  105.27   14.94
   1  -9   2  110.21   15.53
  -1  -9  -3   38.32    9.68
  -1  -9  -3   42.62   10.38
   1  -9   3   36.55    8.99
  -1  -9  -4  148.62   19.50
   1  -9   4  180.74   20.19
  -1  -9  -4  162.13   19.94
  -1  -9  -5   28.85    9.58
   1  -9   5   63.33   12.65
  -1  -9  -5   53.12   12.24
   1  -9   5   48.88   11.57
  -1  -9  -6  170.01   21.95
  -1  -9  -6  161.71   21.50
   1  -9   6  199.15   23.57
   1  -9   6  149.87   19.12
  -1  -9  -7   77.85   15.96
  -1  -9  -7   42.52   11.69
   1  -9   7  106.37   17.82
   1  -9   7   81.57   14.18
   1  -8  -9  315.11   31.31
   1  -8  -9  295.53   30.09
  -1  -8   9  310.80   31.16
   1  -8  -8   87.19   15.81
  -1  -8   8   73.18   14.58
   1  -8  -8   80.03   15.35
  -1  -8   7   73.72   13.64
   1  -8  -7   75.33   14.03
   1  -8  -7   87.12   12.15
   1  -8  -7   80.47   11.11
   1  -8  -7  112.71   17.51
  -1  -8   6  630.80   38.45
   1  -8  -6  681.95   34.24
  -1  -8   5  116.89   15.16
   1  -8  -5  151.65   15.75
  -1  -8   4  195.69   12.52
  -1  -8   4  213.43   19.07
   1  -8  -4  193.69   18.14
   1  -8  -3  713.69   36.29
   1  -8  -3  709.92   21.92
  -1  -8   3  728.91   35.11
  -1  -8   3  687.96   28.42
  -1  -8   2  320.35   20.07
   1  -8  -2  298.15   23.14
   1  -8  -1   42.56    8.97
  -1  -8   1   65.86   10.94
  -1  -8   1   43.49    7.75
  -1  -8   1   40.99    7.08
  -1  -8   0  677.86   28.21
   1  -8   0  573.02   33.33
  -1  -8   0  626.93   34.09
  -1  -8   0  630.33   32.25
   1  -8   1  621.60   34.76
  -1  -8  -1  670.41   34.56
  -1  -8  -1  575.16   32.44
  -1  -8  -1  624.69   26.39
  -1  -8  -2  196.76   14.00
   1  -8   2  207.56   19.82
  -1  -8  -2  227.52   19.49
  -1  -8  -2  181.33   18.52
  -1  -8  -3  462.01   31.14
   1  -8   3  463.13   30.38
  -1  -8  -3  402.22   29.04
  -1  -8  -4    4.50    4.83
   1  -8   4    4.26    4.86
  -1  -8  -4   16.66    7.16
   1  -8   5  214.57   20.82
  -1  -8  -5  180.07   20.89
   1  -8   5  190.10   21.31
  -1  -8  -5  155.18   19.58
  -1  -8  -5  165.34   14.59
  -1  -8  -6   91.12   11.88
  -1  -8  -6   89.20   15.46
   1  -8   6  111.59   16.93
   1  -8   6   88.98   13.73
  -1  -8  -6   99.65   16.01
  -1  -8  -7   54.33   12.71
   1  -8   7   58.75   11.22
   1  -8   7   48.45   11.84
  -1  -8  -7   50.28   12.46
   1  -8   8   18.65    8.33
  -1  -8  -8    8.08    5.36
   1  -7 -11   88.54   16.76
   1  -7 -10  112.43   17.44
   1  -7 -10  136.54   20.35
   1  -7 -10  126.39   19.63
   1  -7  -9  290.40   26.02
   1  -7  -9  238.51   26.21
   1  -7  -9  271.37   27.93
  -1  -7   9  282.20   28.67
   1  -7  -8    5.87    5.30
  -1  -7   8   15.60    7.15
   1  -7  -8   20.29    8.54
   1  -7  -7   12.58    4.49
   1  -7  -7    9.88    6.17
  -1  -7   7   23.34    7.91
   1  -7  -7   13.09    5.47
   1  -7  -6  781.84   34.80
  -1  -7   6  810.77   41.75
   1  -7  -5   22.49    5.84
  -1  -7   5   35.75    8.62
   1  -7  -4  248.40   19.20
  -1  -7   4  242.23   19.49
  -1  -7   4  248.92   12.68
  -1  -7   3   98.49    9.17
   1  -7  -3  109.80   12.79
  -1  -7   3  122.59   12.90
  -1  -7   2  187.90    7.23
  -1  -7   2  194.02   17.63
   1  -7  -2  174.56   16.39
  -1  -7   2  172.55   13.32
   1  -7  -1  251.34   19.71
  -1  -7   1  233.47   19.10
  -1  -7   1  270.45   17.12
  -1  -7   1  260.81   17.70
  -1  -7   0  749.44   34.60
   1  -7   0  665.60   33.73
  -1  -7   0  735.85   28.57
  -1  -7   0  674.92   31.72
  -1  -7  -1  472.10   27.77
  -1  -7  -1  521.24   22.73
   1  -7   1  508.27   29.26
  -1  -7  -1  506.03   27.77
  -1  -7  -2  322.68   17.32
   1  -7   2  291.23   21.95
  -1  -7  -2  246.69   20.51
  -1  -7  -2  336.60   21.80
   1  -7   3  336.02   16.45
  -1  -7  -3  332.13   16.92
   1  -7   3  328.26   23.64
  -1  -7  -3  292.97   23.03
  -1  -7  -3  295.88   23.49
  -1  -7  -4   93.47   13.70
  -1  -7  -4   84.14   12.79
   1  -7   4   63.24   10.85
  -1  -7  -5  483.24   26.05
  -1  -7  -5  433.36   31.09
  -1  -7  -5  460.74   32.14
   1  -7   5  432.35   30.68
   1  -7   5  475.46   29.63
   1  -7   6  133.47   17.74
  -1  -7  -6  163.28   16.03
  -1  -7  -6  154.49   19.33
  -1  -7  -6  118.29   16.90
   1  -7   6  137.43   15.81
   1  -7   7  266.72   26.39
  -1  -7  -7  259.70   25.90
   1  -7   7  247.23   21.82
  -1  -7  -7  261.76   22.37
  -1  -7  -7  269.38   26.29
  -1  -7  -8   15.91    7.04
  -1  -7  -8   17.49    7.61
  -1  -7  -8   28.60    8.47
   1  -7   8   16.33    7.65
  -1  -7  -9    6.23    6.31
  -1  -7  -9    0.25    4.35
  -1  -7 -10  121.54   18.94
   1  -6 -11   33.26   11.48
   1  -6 -11   36.74   11.25
  -1  -6  10   90.88   16.64
   1  -6 -10   62.86   13.53
   1  -6 -10   86.53   15.53
   1  -6 -10   66.41   13.39
   1  -6  -9   85.22   15.05
  -1  -6   9   64.37   13.35
   1  -6  -9   74.38   13.91
  -1  -6   8  235.85   23.80
   1  -6  -8  240.16   23.72
   1  -6  -8  261.61   24.86
  -1  -6   7   38.04    9.07
   1  -6  -7   39.02    6.75
   1  -6  -7   33.97    8.93
  -1  -6   6  575.64   33.51
   1  -6  -6  567.58   26.94
   1  -6  -5  323.94   20.10
  -1  -6   5  356.99   24.15
   1  -6  -4  105.19   11.54
  -1  -6   4  112.95    6.98
  -1  -6   4  108.63   12.15
  -1  -6   3  286.63   14.12
   1  -6  -3  267.66   17.04
  -1  -6   3  232.16   16.99
   1  -6  -3  257.04   18.24
  -1  -6   2  540.73   22.76
   1  -6  -2  548.76   24.63
   1  -6  -2  555.07   27.64
  -1  -6   2  595.72   29.40
  -1  -6   1  932.51   33.61
   1  -6  -1  909.61   37.21
  -1  -6   1  956.95   38.08
   1  -6  -1  958.72   33.81
   1  -6  -1  954.50   22.67
  -1  -6   1  971.48   20.88
  -1  -6   0  158.62   13.42
   1  -6   0  131.16   13.34
   1  -6   0  162.69   12.99
   1  -6   0  150.69    6.46
  -1  -6   0  161.11   11.88
  -1  -6   0  140.84   13.37
  -1  -6  -1  146.96   13.72
  -1  -6  -1  134.12   12.83
  -1  -6  -1  147.95   11.16
   1  -6   1  119.15   12.84
  -1  -6  -2   27.53    4.10
  -1  -6  -2   26.53    6.20
  -1  -6  -2   24.47    4.72
   1  -6   2   22.89    3.69
   1  -6   2   15.36    5.41
  -1  -6  -2   21.56    5.35
  -1  -6  -3  166.69   16.50
   1  -6   3  166.54   15.54
  -1  -6  -3  184.62   17.31
  -1  -6  -3  171.26   12.13
  -1  -6  -3  207.35   13.97
   1  -6   3  196.45   12.54
   1  -6   4  289.33   20.85
  -1  -6  -4  299.38   23.12
  -1  -6  -4  308.08   23.49
   1  -6   5  584.89   34.21
  -1  -6  -5  542.65   33.75
  -1  -6  -5  614.74   29.91
  -1  -6  -5  668.27   36.61
   1  -6   5  593.44   31.10
   1  -6   6  167.93   16.30
   1  -6   6  160.83   18.40
  -1  -6  -6  160.93   18.70
  -1  -6  -6  160.09   16.07
  -1  -6  -6  147.80   17.89
   1  -6   7  128.02   14.29
   1  -6   7  145.01   18.66
  -1  -6  -7  119.21   15.00
  -1  -6  -7  143.24   18.33
  -1  -6  -7  111.42   15.97
   1  -6   8   60.10   13.03
  -1  -6  -8   69.03   12.73
  -1  -6  -8   65.03   13.16
  -1  -6  -8   71.67   13.99
   1  -6   9  113.20   18.33
  -1  -6  -9  113.36   18.19
  -1  -6  -9  119.84   17.67
  -1  -6  -9  112.55   17.84
  -1  -6 -10  148.62   20.86
  -1  -6 -10  113.33   18.43
   1  -5 -11  111.37   17.45
   1  -5 -11  108.53   17.84
   1  -5 -11  110.08   17.27
   1  -5 -10  259.01   25.46
   1  -5 -10  250.35   25.01
  -1  -5  10  208.19   24.97
  -1  -5   9   24.80    8.72
   1  -5  -9   35.01    9.57
   1  -5  -9   32.99    8.91
  -1  -5   8  212.07   21.98
   1  -5  -8  261.92   23.61
   1  -5  -8  226.02   21.74
   1  -5  -7    4.88    3.87
  -1  -5   7    1.48    3.19
   1  -5  -7    1.10    2.22
   1  -5  -6  968.32   33.63
   1  -5  -6  981.82   43.65
  -1  -5   6  960.42   42.71
  -1  -5   6  917.25   31.85
  -1  -5   5  640.63   31.78
   1  -5  -5  665.00   27.36
  -1  -5   4   81.26   10.06
  -1  -5   4   77.64    4.25
   1  -5  -4   83.29    9.13
   1  -5  -3  764.34   30.19
   1  -5  -3  775.42   28.13
  -1  -5   3  718.29   29.38
  -1  -5   3  740.69   22.11
   1  -5  -2  290.62   17.85
  -1  -5   2  321.22   15.04
  -1  -5   2  259.11   15.57
   1  -5  -2  311.27   16.08
  -1  -5   1 1306.10   38.97
   1  -5  -1 1408.01   39.36
   1  -5  -1 1327.91   43.43
  -1  -5   1 1386.22   30.29
  -1  -5   1 1380.88   44.23
  -1  -5   0  791.11   30.80
   1  -5   0  742.50   27.24
   1  -5   0  815.06   32.06
  -1  -5   0  754.13   29.05
  -1  -5   0  826.03   27.78
   1  -5   0  764.47   20.05
  -1  -5   0  767.47   19.23
   1  -5   1 1411.85   41.66
   1  -5   1 1391.94   33.16
  -1  -5  -1 1393.29   43.02
   1  -5   1 1331.86   44.42
  -1  -5  -1 1363.09   38.58
  -1  -5  -1 1357.01   44.01
  -1  -5  -2  818.70   26.61
  -1  -5  -2  746.41   32.75
  -1  -5  -2  811.43   25.86
   1  -5   2  766.36   32.06
   1  -5   2  818.23   25.34
  -1  -5  -2  774.33   27.34
  -1  -5  -2  749.47   32.90
  -1  -5  -3  714.96   26.71
  -1  -5  -3  718.83   32.99
  -1  -5  -3  623.07   31.28
   1  -5   3  680.07   30.10
   1  -5   3  676.79   25.30
  -1  -5  -3  688.60   25.46
   1  -5   4  427.43   18.50
  -1  -5  -4  437.12   26.56
  -1  -5  -4  405.31   20.25
   1  -5   4  408.04   25.27
   1  -5   4  485.36   25.11
  -1  -5  -4  392.60   25.55
  -1  -5  -5  436.32   28.16
   1  -5   5  449.24   18.91
  -1  -5  -5  472.05   29.01
  -1  -5  -5  426.94   24.54
   1  -5   5  379.16   23.02
   1  -5   5  435.18   27.66
   1  -5   6  209.99   17.07
  -1  -5  -6  208.96   20.19
  -1  -5  -6  237.16   21.49
   1  -5   6  187.11   19.19
  -1  -5  -6  248.19   19.98
  -1  -5  -7   47.62    9.89
  -1  -5  -7   22.25    7.40
  -1  -5  -7   45.07   10.27
   1  -5   7   28.90    8.68
   1  -5   7   34.96    7.11
  -1  -5  -8  641.07   38.69
  -1  -5  -8  681.86   40.83
   1  -5   8  650.25   40.92
  -1  -5  -8  670.22   40.68
   1  -5   9  146.37   20.23
  -1  -5  -9  140.92   19.01
  -1  -5  -9  166.37   20.62
  -1  -5  -9  142.96   19.35
  -1  -5 -10  155.69   20.71
  -1  -5 -10  164.99   21.95
  -1  -5 -10  164.52   21.73
   1  -5  10  144.43   21.29
   1  -4 -12   19.50    8.08
   1  -4 -11   39.59   10.34
  -1  -4  11   44.13   11.98
   1  -4 -11   51.58   11.71
   1  -4 -10  187.80   20.36
   1  -4 -10  153.35   18.77
  -1  -4  10  132.42   19.49
   1  -4  -9   62.44   11.44
   1  -4  -9   75.59   12.79
  -1  -4   9   89.68   15.08
  -1  -4   8  271.30   24.47
   1  -4  -8  265.55   22.31
   1  -4  -8  271.86   22.69
   1  -4  -7  735.95   25.27
  -1  -4   7  633.64   35.61
   1  -4  -7  671.75   35.35
  -1  -4   7  720.44   28.05
   1  -4  -6   49.20    6.12
  -1  -4   6   38.55    8.28
  -1  -4   6   54.92    6.51
   1  -4  -6   39.66    8.18
  -1  -4   5   32.68    6.94
   1  -4  -5   35.88    5.53
  -1  -4   5   28.80    4.45
   1  -4  -4  361.05   18.13
  -1  -4   4  411.34   21.94
   1  -4  -3   23.15    4.49
   1  -4  -3   19.21    3.88
  -1  -4   3   15.61    4.02
  -1  -4   3   18.39    2.45
  -1  -4   2 4732.63   95.10
  -1  -4   2 4635.52   88.85
   1  -4  -2 4542.14   91.50
   1  -4  -2 4435.10   97.11
  -1  -4   1  472.03   18.72
   1  -4  -1  477.06   17.93
   1  -4  -1  448.56   20.95
   1  -4   0  867.64   22.06
   1  -4   0  796.56   25.72
   1  -4   0  831.06   30.38
  -1  -4   0  819.66   21.22
  -1  -4   0  847.99   28.94
  -1  -4   0  887.23   27.56
   1  -4   1  339.08   16.30
  -1  -4  -1  354.83   16.08
   1  -4   1  326.43   13.14
   1  -4   1  340.42   13.44
  -1  -4  -1  338.26   18.54
   1  -4   1  341.43   18.25
  -1  -4  -2  457.17   17.23
  -1  -4  -2  427.83   22.43
  -1  -4  -2  451.99   22.68
  -1  -4  -2  441.64   18.12
  -1  -4  -2  443.59   19.01
   1  -4   2  496.15   22.52
   1  -4   2  434.17   17.56
   1  -4   2  453.44   20.95
  -1  -4  -3 1596.24   50.95
   1  -4   3 1582.95   43.37
  -1  -4  -3 1577.65   50.14
  -1  -4  -3 1517.16   44.16
   1  -4   3 1647.41   47.44
   1  -4   3 1620.11   43.99
  -1  -4  -3 1575.74   41.00
  -1  -4  -4 1007.35   32.85
   1  -4   4  974.29   29.61
   1  -4   4  930.12   34.30
   1  -4   4  982.14   32.23
  -1  -4  -4  953.59   38.81
   1  -4   4  979.10   39.32
  -1  -4  -4  939.28   38.92
   1  -4   5  431.25   18.52
  -1  -4  -5  440.86   24.87
  -1  -4  -5  451.13   27.03
   1  -4   5  409.35   25.74
   1  -4   5  449.35   22.67
  -1  -4  -5  466.08   27.50
  -1  -4  -6  104.43   13.71
   1  -4   6  110.20   11.17
  -1  -4  -6  112.36   14.01
  -1  -4  -6  106.71   13.28
   1  -4   6  119.62    9.58
   1  -4   6  122.32   14.70
   1  -4   7  321.13   19.16
  -1  -4  -7  338.22   25.56
   1  -4   7  328.68   26.05
  -1  -4  -7  288.46   23.77
  -1  -4  -7  313.08   24.89
  -1  -4  -8   88.83   14.05
   1  -4   8   86.85   14.44
  -1  -4  -8  113.87   15.96
  -1  -4  -8  103.36   14.76
  -1  -4  -9   62.97   12.29
  -1  -4  -9   52.40   11.63
  -1  -4  -9   45.80   11.06
   1  -4   9   59.59   12.31
  -1  -4 -10    9.03    6.53
   1  -4  10    5.82    5.19
  -1  -4 -10   17.25    8.16
  -1  -4 -10   11.34    6.71
  -1  -4 -11    9.03    6.30
   1  -3 -12  195.62   22.38
   1  -3 -11   44.45   10.49
  -1  -3  11   50.23   12.77
   1  -3 -11   47.58   10.57
  -1  -3  10  111.49   17.55
   1  -3 -10  107.85   14.51
   1  -3 -10  128.71   16.44
   1  -3  -9   41.18    8.35
  -1  -3   9   51.18   11.31
   1  -3  -9   60.67   10.81
   1  -3  -8  250.23   20.31
  -1  -3   8  259.95   23.05
   1  -3  -8  246.22   11.21
   1  -3  -8  266.64   21.30
   1  -3  -7  376.31   23.91
  -1  -3   7  379.38   19.48
   1  -3  -7  382.84   24.30
  -1  -3   7  358.33   25.40
   1  -3  -7  369.20   15.56
   1  -3  -6  173.85   15.17
  -1  -3   6  131.59   10.08
   1  -3  -6  150.83    9.93
  -1  -3   6  150.84   14.93
   1  -3  -5  227.30   12.46
  -1  -3   5  238.83   17.37
  -1  -3   5  232.32   11.99
   1  -3  -4  159.18   10.47
  -1  -3   4  165.61   13.03
  -1  -3   4  175.00    8.95
  -1  -3   4  181.43   12.69
   1  -3  -3  127.44    9.32
  -1  -3   3  125.37   10.23
  -1  -3   3  129.30   10.32
   1  -3  -2 3315.18   71.22
  -1  -3   2 3305.75   62.81
  -1  -3   2 3291.23   69.44
   1  -3  -2 3231.78   65.65
  -1  -3   1 6741.96  128.54
   1  -3  -1 7191.80  134.59
   1  -3  -1 7086.66  126.35
  -1  -3   1 6995.07  127.46
   1  -3   0 6949.54  134.45
  -1  -3   0 6999.80  132.31
   1  -3   0 6883.20  127.16
   1  -3   0 7021.59  125.76
  -1  -3   0 6943.07  124.97
  -1  -3   0 7091.61  131.40
  -1  -3  -1 1012.21   29.16
  -1  -3  -1 1009.46   27.16
   1  -3   1 1027.61   27.27
  -1  -3  -1  993.96   26.46
  -1  -3  -1 1062.08   31.91
   1  -3   1  982.88   26.80
  -1  -3  -1 1057.58   32.38
   1  -3   1  973.57   31.05
   1  -3   1  976.95   28.36
  -1  -3  -2 2247.63   52.10
   1  -3   2 2211.06   51.68
  -1  -3  -2 2093.02   56.55
  -1  -3  -2 2157.41   56.12
  -1  -3  -2 2274.84   47.04
   1  -3   2 2145.89   51.42
   1  -3   2 2169.68   53.72
   1  -3   2 2134.12   50.82
   1  -3   3   86.28    8.27
   1  -3   3  100.55    9.14
  -1  -3  -3   69.09    8.69
  -1  -3  -3   84.16    8.64
   1  -3   3   84.13    8.16
  -1  -3  -3   74.99    9.07
  -1  -3  -3   85.32    7.13
   1  -3   3   76.66    7.32
   1  -3   3   81.24    6.97
  -1  -3  -4  208.35   16.09
  -1  -3  -4  185.01   15.26
   1  -3   4  171.68   14.44
  -1  -3  -4  184.51   12.10
   1  -3   4  197.60   11.39
   1  -3   4  187.08   12.13
   1  -3   4  197.37   12.72
  -1  -3  -5  441.10   25.55
  -1  -3  -5  459.47   25.32
   1  -3   5  426.99   19.99
   1  -3   5  471.68   19.51
  -1  -3  -5  445.74   25.59
   1  -3   5  435.27   20.17
   1  -3   5  448.77   25.68
   1  -3   6  424.72   19.89
   1  -3   6  452.83   27.33
  -1  -3  -6  412.39   26.29
  -1  -3  -6  424.09   25.97
   1  -3   6  405.13   19.27
  -1  -3  -6  472.49   27.88
   1  -3   7 2147.64   71.63
  -1  -3  -7 2096.54   70.01
  -1  -3  -7 2242.43   72.85
  -1  -3  -7 2037.12   67.92
   1  -3   8  749.77   41.79
  -1  -3  -8  738.92   39.06
  -1  -3  -8  844.10   42.83
  -1  -3  -8  802.83   43.17
  -1  -3  -9  154.80   19.81
   1  -3   9  155.99   19.57
  -1  -3  -9  120.57   16.68
  -1  -3  -9  150.65   17.93
   1  -3  10  132.49   19.53
  -1  -3 -10  149.09   19.57
  -1  -3 -10  121.16   16.62
  -1  -3 -10  162.24   21.64
  -1  -3 -11  243.68   24.41
  -1  -3 -11  201.23   24.04
   1  -2 -12   35.92    9.64
  -1  -2  11    2.86    4.09
   1  -2 -11   17.78    6.48
   1  -2 -10  301.89   24.22
   1  -2 -10  329.71   24.15
  -1  -2  10  324.17   29.24
   1  -2  -9  801.98   38.61
  -1  -2   9  869.36   46.56
   1  -2  -9  852.74   38.56
  -1  -2   8  163.46   18.22
   1  -2  -8  211.92   17.58
   1  -2  -8  208.35   17.78
   1  -2  -8  217.88    9.53
  -1  -2   7  574.07   16.90
  -1  -2   7  578.83   25.01
   1  -2  -7  543.19   27.73
  -1  -2   7  566.67   31.71
   1  -2  -7  559.97   27.83
   1  -2  -7  577.69   18.76
  -1  -2   6 2437.26   56.92
   1  -2  -6 2239.89   62.95
  -1  -2   6 2339.51   45.15
   1  -2  -6 2297.50   51.57
  -1  -2   6 2313.06   68.34
  -1  -2   5   54.17    7.12
  -1  -2   5   49.04    5.28
  -1  -2   5   51.17    8.15
   1  -2  -5   40.09    6.51
   1  -2  -5   40.41    4.86
   1  -2  -4  189.82   10.41
   1  -2  -4  163.02   12.92
  -1  -2   4  180.50   12.14
  -1  -2   4  198.28    9.03
  -1  -2   4  180.09   13.26
  -1  -2   3  723.71   25.29
   1  -2  -3  688.49   22.24
  -1  -2   3  695.48   24.82
  -1  -2   3  713.75   17.10
  -1  -2   3  713.26   24.60
   1  -2  -2  197.34   10.57
  -1  -2   2  212.28   11.52
  -1  -2   2  193.80   10.35
  -1  -2   2  190.41    6.81
  -1  -2   1 9843.50  171.06
   1  -2  -1 9959.61  177.15
   1  -2  -1 9840.43  167.84
  -1  -2   1 9588.80  171.81
  -1  -2   0 3381.64   66.62
  -1  -2   0 3369.95   68.48
   1  -2   0 3544.16   69.91
   1  -2   0 3427.51   63.16
  -1  -2   0 3295.53   68.05
  -1  -2   0 3245.63   65.06
  -1  -2  -1 5972.38  113.30
  -1  -2  -1 6146.88  103.74
   1  -2   1 6063.33  111.51
  -1  -2  -1 5940.90  115.74
  -1  -2  -1 5868.33  110.78
   1  -2   1 6030.52  112.93
   1  -2   1 5896.50  113.47
   1  -2   1 5900.54  111.85
  -1  -2  -1 5780.57  111.50
  -1  -2  -1 5824.91  113.78
  -1  -2  -2  139.34   10.63
   1  -2   2  134.13    9.19
  -1  -2  -2  146.51   10.59
   1  -2   2  138.54    9.41
   1  -2   2  128.93    9.46
  -1  -2  -2  141.90    7.22
   1  -2   2  159.33    9.51
   1  -2   2  141.10    8.61
   1  -2   2  148.42    9.21
  -1  -2  -2  139.68    9.78
  -1  -2  -3 1855.23   50.29
   1  -2   3 1843.69   44.33
   1  -2   3 1871.69   50.08
  -1  -2  -3 1799.78   50.13
  -1  -2  -3 1804.83   43.58
   1  -2   3 1833.37   48.26
   1  -2   3 1892.89   45.37
   1  -2   3 1879.34   47.29
   1  -2   3 1862.15   43.95
  -1  -2  -3 1829.67   49.49
  -1  -2  -4  819.17   32.25
   1  -2   4  801.10   31.53
   1  -2   4  823.32   20.44
   1  -2   4  752.20   24.69
   1  -2   4  819.22   30.71
   1  -2   4  828.48   26.36
   1  -2   4  792.40   26.83
   1  -2   4  782.63   21.64
  -1  -2  -4  792.19   31.32
  -1  -2  -4  825.23   27.80
   1  -2   4  774.44   27.99
  -1  -2  -5  493.33   26.46
   1  -2   5  503.81   16.32
   1  -2   5  501.55   19.02
   1  -2   5  493.41   20.78
   1  -2   5  510.33   21.71
  -1  -2  -5  470.45   25.51
   1  -2   5  458.59   24.78
  -1  -2  -5  488.81   25.18
   1  -2   5  498.56   16.05
   1  -2   6  362.56   23.58
  -1  -2  -6  386.95   23.48
   1  -2   6  383.03   16.05
  -1  -2  -6  357.95   23.45
   1  -2   6  370.12   13.50
   1  -2   6  368.92   15.01
  -1  -2  -6  352.50   24.22
   1  -2   6  385.33   19.21
   1  -2   7  410.50   21.25
  -1  -2  -7  394.74   26.45
   1  -2   7  418.23   27.68
   1  -2   7  428.24   17.63
  -1  -2  -7  465.18   27.04
  -1  -2  -7  470.27   29.92
   1  -2   8   50.07   10.86
  -1  -2  -8   56.02   11.44
  -1  -2  -8   53.25   10.12
  -1  -2  -8   55.52   10.07
  -1  -2  -9   39.71    9.63
   1  -2   9   46.21   10.85
  -1  -2  -9   63.82   12.90
  -1  -2  -9   56.13   10.46
  -1  -2 -10   61.33   13.53
  -1  -2 -10   52.59   11.84
   1  -2  10   53.20   12.13
  -1  -2 -10   44.94    9.97
  -1  -2 -11   36.03   10.52
   1  -2  11   33.12   10.51
  -1  -1  11   29.50    9.77
   1  -1 -11   37.50    8.75
  -1  -1  10   25.79    8.16
   1  -1 -10   23.85    6.88
   1  -1 -10   30.06    6.89
   1  -1  -9   89.29   10.97
   1  -1  -9   74.52   10.72
  -1  -1   9   80.01   13.51
  -1  -1   8  138.06   16.51
   1  -1  -8  159.30   16.04
  -1  -1   8  175.37    8.71
   1  -1  -8  158.79   13.98
   1  -1  -8  166.85    8.48
   1  -1  -8  161.56    8.40
   1  -1  -8  153.07   14.29
   1  -1  -7  318.22   19.49
  -1  -1   7  317.97   12.17
  -1  -1   7  318.48   23.35
  -1  -1   7  283.74   17.87
   1  -1  -7  337.01   19.24
   1  -1  -7  287.36   20.48
   1  -1  -6 1034.24   35.88
   1  -1  -6 1049.71   39.47
  -1  -1   6 1049.52   41.47
  -1  -1   6 1115.15   34.68
  -1  -1   6 1083.02   26.51
  -1  -1   5  319.65   14.84
  -1  -1   5  307.77   11.17
  -1  -1   5  311.36   19.27
  -1  -1   5  317.09   17.48
   1  -1  -5  293.02   16.07
   1  -1  -5  304.32   18.35
  -1  -1   4 1195.50   35.65
   1  -1  -4 1190.39   33.87
  -1  -1   4 1141.08   26.62
  -1  -1   4 1210.81   29.59
  -1  -1   4 1146.38   37.25
   1  -1  -4 1170.97   37.07
  -1  -1   3  741.92   25.07
  -1  -1   3  711.53   18.31
  -1  -1   3  731.33   17.79
  -1  -1   3  736.51   24.37
   1  -1  -3  689.63   25.29
  -1  -1   2 4287.37   82.71
  -1  -1   2 4341.87   83.70
   1  -1  -2 4279.97   85.98
  -1  -1   2 4264.87   79.02
  -1  -1   1 7700.89  137.36
   1  -1  -1 7571.42  139.46
  -1  -1   1 7651.98  135.39
  -1  -1   1 7945.43  135.57
   1  -1  -1 7713.08  135.97
  -1  -1   1 7797.28  138.09
  -1  -1   0 2044.37   43.85
  -1  -1   0 2081.44   42.05
  -1  -1   0 2169.47   44.66
   1  -1   0 2059.20   44.70
  -1  -1   0 2048.13   44.74
   1  -1   0 2216.75   42.82
   1  -1   0 2120.86   41.48
  -1  -1   0 2042.12   43.77
  -1  -1  -1 1932.05   43.09
   1  -1   1 1854.25   42.37
  -1  -1  -1 1816.33   41.54
  -1  -1  -1 1896.30   42.64
   1  -1   1 1889.93   41.13
  -1  -1  -1 1874.14   42.50
   1  -1   1 1834.00   40.56
   1  -1   1 1769.02   39.52
   1  -1   1 1869.28   42.05
  -1  -1  -1 1907.11   42.15
  -1  -1  -2 2469.87   56.79
  -1  -1  -2 2459.42   56.32
   1  -1   2 2470.85   50.83
   1  -1   2 2434.14   50.59
   1  -1   2 2447.12   55.66
  -1  -1  -2 2461.68   56.36
   1  -1   2 2540.30   53.91
   1  -1   2 2436.74   56.36
   1  -1   2 2493.53   53.19
  -1  -1  -2 2475.80   50.32
   1  -1   2 2479.42   54.41
   1  -1   3 2422.67   54.49
   1  -1   3 2371.80   57.90
   1  -1   3 2226.31   49.46
  -1  -1  -3 2446.16   58.68
   1  -1   3 2448.44   57.34
  -1  -1  -3 2367.93   53.30
   1  -1   3 2359.32   49.51
   1  -1   3 2381.42   55.11
  -1  -1  -3 2369.31   57.44
   1  -1   3 2398.77   54.44
   1  -1   3 2419.71   44.01
   1  -1   4 1628.00   43.20
   1  -1   4 1648.88   35.08
  -1  -1  -4 1562.35   47.38
   1  -1   4 1674.20   37.17
  -1  -1  -4 1596.04   46.29
   1  -1   4 1704.57   44.31
   1  -1   4 1650.26   47.42
  -1  -1  -4 1628.62   44.38
   1  -1   4 1595.03   37.91
   1  -1   4 1640.59   47.21
   1  -1   4 1717.11   43.87
   1  -1   5  400.48   14.53
  -1  -1  -5  396.81   21.09
  -1  -1  -5  420.55   22.77
   1  -1   5  398.24   15.53
   1  -1   5  381.49   13.41
   1  -1   5  380.86   21.67
   1  -1   5  412.93   19.62
   1  -1   5  384.79   18.95
   1  -1   6  610.92   26.32
   1  -1   6  575.12   29.83
   1  -1   6  616.53   20.96
  -1  -1  -6  597.40   29.85
  -1  -1  -6  630.00   32.66
   1  -1   6  638.45   21.44
  -1  -1  -6  638.85   29.09
  -1  -1  -7  224.39   18.95
   1  -1   7  215.13   11.77
   1  -1   7  188.96   17.91
  -1  -1  -7  211.02   17.04
  -1  -1  -7  205.03   19.75
   1  -1   7  217.74   12.66
  -1  -1  -8  200.65   20.86
  -1  -1  -8  145.58   16.58
   1  -1   8  153.17   17.59
  -1  -1  -8  153.08   15.20
  -1  -1  -9   15.58    6.74
  -1  -1  -9   11.85    5.93
   1  -1   9   19.59    7.23
  -1  -1  -9   11.33    4.70
   1  -1  10   17.81    7.54
  -1  -1 -10   28.27    8.70
  -1  -1 -10   45.85    9.31
  -1  -1 -10   33.72   10.48
   1  -1  11  406.81   35.32
  -1  -1 -11  403.98   36.44
  -1   0  11   91.39   16.18
   1   0 -10  133.89   16.06
   1   0 -10  108.63   13.29
  -1   0  10  122.77   17.77
   1   0  -9 1485.34   56.28
   1   0  -9 1543.88   52.48
   1   0  -9 1588.43   47.84
  -1   0   9 1506.26   62.67
   1   0  -8    4.34    3.78
   1   0  -8    0.20    1.59
   1   0  -8    7.44    2.18
   1   0  -8    6.14    3.00
  -1   0   8    5.16    3.69
   1   0  -7  451.59   17.23
   1   0  -7  457.07   22.49
  -1   0   7  471.97   28.28
   1   0  -7  479.79   26.09
   1   0  -7  441.93   20.51
   1   0  -6 1197.15   36.76
  -1   0   6 1178.66   44.45
   1   0  -6 1223.24   41.85
   1   0  -6 1221.12   35.77
  -1   0   5  819.36   32.93
   1   0  -5  854.68   27.22
  -1   0   5  843.88   31.14
   1   0  -5  805.58   31.02
  -1   0   4  552.41   22.62
   1   0  -4  548.42   22.88
   1   0  -4  561.98   18.84
  -1   0   4  575.16   24.29
  -1   0   3 2096.67   50.48
   1   0  -3 2225.91   44.67
  -1   0   3 2069.36   51.21
   1   0  -3 2046.60   50.78
  -1   0   2 1210.99   26.07
   1   0  -2 1183.31   30.67
   1   0  -2 1255.36   32.00
  -1   0   2 1219.59   31.32
   1   0  -1  376.62    9.95
  -1   0   1  369.21   10.03
   1   0  -1  400.85   12.61
  -1   0   1  394.11   11.45
  -1   0   1  386.39   12.63
   1   0  -1  369.52   12.50
   1   0  -1  357.94   12.89
   1   0  -1  391.54   11.51
  -1   0   0    4.00    1.23
  -1   0   0    6.85    1.41
   1   0   0    6.61    1.41
  -1   0   0    7.68    1.95
  -1   0   0    7.57    2.01
  -1   0   0    7.55    1.79
   1   0   0    8.51    1.47
   1   0   0    4.44    1.42
  -1   0  -1 6177.22  112.29
   1   0   1 6211.87  115.30
  -1   0  -1 6194.16  113.37
   1   0   1 6192.13  112.37
   1   0   1 6169.18  105.88
   1   0   1 6043.61  114.45
   1   0   2  383.79   16.95
   1   0   2  419.69   14.67
  -1   0  -2  403.02   16.66
   1   0   2  429.34   15.09
   1   0   2  363.18   16.02
   1   0   2  398.35   16.08
  -1   0  -2  416.36   15.92
   1   0   3 1421.60   31.60
   1   0   3 1443.05   37.77
  -1   0  -3 1433.00   40.26
   1   0   3 1456.78   38.43
   1   0   3 1404.73   40.71
  -1   0  -3 1436.53   38.39
  -1   0  -3 1549.15   39.08
   1   0   3 1499.34   36.08
   1   0   3 1421.34   38.91
   1   0   3 1488.84   30.36
  -1   0  -4 1774.92   47.15
  -1   0  -4 1804.02   49.08
   1   0   4 1828.32   46.69
  -1   0  -4 1805.22   50.60
   1   0   4 1849.60   41.49
   1   0   4 1756.47   48.72
   1   0   4 1889.10   35.58
   1   0   4 1805.76   43.73
   1   0   4 1835.79   48.60
   1   0   5   43.82    6.59
  -1   0  -5   38.93    6.83
   1   0   5   28.89    4.14
   1   0   5   27.37    5.40
   1   0   5   33.65    4.85
  -1   0  -5   23.14    4.81
   1   0   5   27.56    4.85
  -1   0  -6  408.33   21.45
   1   0   6  375.66   23.10
   1   0   6  427.73   18.53
  -1   0  -6  434.42   26.75
  -1   0  -6  458.88   25.16
   1   0   6  396.45   18.15
   1   0   7    5.55    2.68
  -1   0  -7    6.00    4.43
   1   0   7    5.56    3.51
  -1   0  -7   18.73    4.78
  -1   0  -7   12.27    4.31
   1   0   7   16.15    3.78
  -1   0  -8    2.42    2.67
  -1   0  -8    0.34    2.96
   1   0   8    2.84    3.32
  -1   0  -9   59.80   12.66
   1   0   9   48.29   10.60
  -1   0  -9   52.97    8.84
   1   0  10    4.45    4.62
  -1   0 -10    8.12    6.06
  -1   0 -11  123.72   20.20
   1   0  11   71.59   14.98
  -1   1  11   45.96   12.03
   1   1 -11   47.25   10.14
  -1   1  10   45.42   11.24
   1   1 -10   17.21    6.22
   1   1  -9   89.39   12.32
  -1   1   9   68.91   12.82
   1   1  -9   83.87    8.35
   1   1  -8  162.35   15.62
   1   1  -8  160.74   10.88
   1   1  -8  173.70   11.11
  -1   1   8  144.76   16.82
  -1   1   8  162.02    6.64
   1   1  -7  306.11   17.51
   1   1  -7  316.54   14.68
   1   1  -7  311.62   15.20
  -1   1   7  309.05   22.98
   1   1  -7  281.75   19.51
  -1   1   7  327.18   10.12
   1   1  -6 1056.39   32.81
   1   1  -6 1121.04   29.66
  -1   1   6  979.46   40.47
  -1   1   6 1100.66   23.49
   1   1  -6 1096.20   38.82
   1   1  -6 1059.37   31.30
   1   1  -5  284.48   17.04
  -1   1   5  288.84   18.75
  -1   1   5  334.24   18.98
   1   1  -5  314.20   12.15
   1   1  -5  318.74   14.23
   1   1  -4 1205.49   23.90
  -1   1   4 1225.88   37.70
  -1   1   4 1139.27   37.81
   1   1  -4 1131.69   35.58
   1   1  -4 1172.25   28.69
   1   1  -3  716.32   24.72
   1   1  -3  754.90   17.54
  -1   1   3  737.32   16.33
   1   1  -3  723.58   24.68
  -1   1   3  710.60   25.76
   1   1  -2 4165.09   74.58
   1   1  -2 4245.45   81.42
  -1   1   2 4208.33   74.84
   1   1  -2 4165.88   82.73
   1   1  -2 4050.35   76.96
  -1   1   2 4168.16   83.98
  -1   1   1 7875.30  140.34
   1   1  -1 7957.55  138.87
   1   1  -1 7684.73  136.73
   1   1  -1 7676.08  138.36
   1   1  -1 7958.08  136.34
  -1   1   1 7688.54  135.80
   1   1  -1 7710.26  140.35
  -1   1   1 7894.41  139.24
  -1   1   1 7770.54  136.99
  -1   1   0 2084.12   40.77
   1   1   0 2053.67   42.67
   1   1   0 2025.72   43.55
   1   1   0 2010.88   43.67
  -1   1   0 2115.13   43.74
  -1   1   0 2089.56   43.48
   1   1   0 2054.50   41.70
  -1   1   0 2071.80   43.28
  -1   1   0 2056.36   41.80
  -1   1  -1 1844.47   42.45
   1   1   1 1861.41   42.93
   1   1   1 1861.64   42.35
   1   1   1 1917.50   35.59
   1   1   1 1968.18   43.03
  -1   1  -1 1863.03   41.38
  -1   1  -1 1873.58   40.18
   1   1   1 1876.74   43.43
  -1   1  -1 1838.98   41.96
  -1   1  -1 1884.93   42.11
  -1   1  -2 2508.25   56.79
   1   1   2 2466.34   56.67
   1   1   2 2483.47   56.02
  -1   1  -2 2470.48   52.83
  -1   1  -2 2439.25   54.06
   1   1   2 2507.52   55.93
   1   1   2 2470.23   50.34
   1   1   2 2513.85   56.91
   1   1   2 2467.17   57.12
  -1   1  -2 2387.45   50.97
  -1   1  -2 2438.54   50.30
   1   1   3 2290.04   53.39
   1   1   3 2363.47   57.88
   1   1   3 2458.57   58.72
  -1   1  -3 2415.90   49.99
  -1   1  -3 2403.75   53.50
   1   1   4 1611.04   44.52
   1   1   4 1644.00   46.93
  -1   1  -4 1596.82   41.81
   1   1   4 1616.55   40.81
   1   1   5  391.61   17.79
   1   1   5  340.05   19.55
  -1   1  -5  383.71   18.24
   1   1   6  667.48   25.92
   1   1   6  620.07   29.80
  -1   1  -6  589.05   31.76
  -1   1  -6  629.57   25.70
  -1   1  -7  229.23   20.83
   1   1   7  219.05   18.61
  -1   1  -7  226.23   15.42
   1   1   7  220.68   15.20
  -1   1  -8  176.23   19.60
   1   1   8  160.85   17.18
  -1   1  -8  143.75   13.03
  -1   1  -9   19.68    7.68
   1   1   9   21.03    6.90
  -1   1  -9   16.15    4.79
  -1   1 -10   25.31    9.03
   1   1  10   15.17    6.71
  -1   1 -11  390.84   35.93
   1   1  11  337.50   31.38
   1   2 -11   12.15    6.20
  -1   2  11   19.15    8.58
  -1   2  10  288.15   27.37
   1   2 -10  294.29   23.59
   1   2  -9  834.60   39.49
  -1   2   9  850.94   45.70
   1   2  -8  239.80   18.89
   1   2  -8  209.71   13.74
  -1   2   8  198.72   19.87
   1   2  -8  201.86    9.43
   1   2  -7  595.49   24.03
   1   2  -7  576.55   16.31
   1   2  -7  561.26   28.31
  -1   2   7  576.04   32.00
   1   2  -6 2495.49   58.81
   1   2  -6 2323.97   48.90
  -1   2   6 2203.06   68.00
   1   2  -6 2191.74   62.82
   1   2  -6 2384.68   44.91
   1   2  -5   49.69    6.15
  -1   2   5   45.54    7.75
   1   2  -5   48.35    4.37
   1   2  -5   46.89    6.88
   1   2  -4  179.67   11.51
  -1   2   4  177.84   13.60
   1   2  -4  162.71   11.78
   1   2  -4  175.18    8.31
   1   2  -3  654.16   17.28
   1   2  -3  646.58   23.58
  -1   2   3  701.11   21.24
   1   2  -3  679.76   24.06
   1   2  -2  184.37   10.82
   1   2  -2  195.06   10.13
   1   2  -2  195.55   11.25
  -1   2   2  184.23    8.03
   1   2  -2  186.71    8.42
   1   2  -2  189.69    7.07
   1   2  -1 9637.27  173.79
  -1   2   1 9941.70  169.27
  -1   2   1 9905.32  175.94
   1   2  -1 9999.00  178.70
  -1   2   1 9775.39  168.28
  -1   2   1 9861.12  178.59
   1   2   0 3444.50   69.00
   1   2   0 3323.94   70.01
   1   2   0 3406.65   65.91
  -1   2   0 3358.89   68.28
   1   2   0 3491.77   69.14
  -1   2   0 3315.23   65.52
  -1   2   0 3373.66   68.55
  -1   2  -1 5887.53  110.79
  -1   2  -1 5930.90  112.40
   1   2   1 6035.16  112.62
   1   2   1 6050.77  115.26
  -1   2  -1 5795.10  109.83
   1   2   1 5868.09  110.97
   1   2   1 5930.16  110.22
   1   2   1 5668.07  113.42
  -1   2  -1 6061.24  111.42
  -1   2  -1 5883.06  112.61
   1   2   2  153.80    9.89
  -1   2  -2  151.78    5.87
   1   2   2  157.09    8.04
   1   2   2  141.02    7.48
  -1   2  -2  136.63    9.57
  -1   2  -2  135.67    9.51
  -1   2  -2  135.95    7.58
   1   2   2  147.06   10.94
  -1   2  -2  160.00    9.33
   1   2   2  148.30    9.98
   1   2   2  145.34    9.92
  -1   2  -2  140.02    9.12
  -1   2  -3 1904.51   37.49
  -1   2  -3 1855.70   49.91
   1   2   3 1859.80   49.00
  -1   2  -3 1845.94   40.37
   1   2   3 1925.32   39.15
   1   2   3 1827.80   44.33
  -1   2  -3 1808.05   46.97
   1   2   3 1879.92   51.85
   1   2   3 1878.57   49.03
  -1   2  -3 1951.16   45.30
  -1   2  -4  818.65   20.97
  -1   2  -4  822.66   25.53
  -1   2  -4  760.65   27.81
   1   2   4  778.03   31.34
   1   2   4  793.63   27.98
   1   2   4  772.81   32.53
   1   2   4  826.94   18.30
  -1   2  -4  795.75   31.60
   1   2   5  496.46   22.60
  -1   2  -5  494.35   18.86
  -1   2  -5  478.96   16.52
   1   2   5  544.34   28.23
   1   2   5  475.27   23.26
  -1   2  -5  473.07   25.65
  -1   2  -5  482.65   20.04
  -1   2  -6  387.21   15.97
  -1   2  -6  351.21   24.11
  -1   2  -6  361.70   17.83
   1   2   6  392.44   25.85
   1   2   6  371.37   22.34
   1   2   6  388.02   20.99
  -1   2  -6  354.46   15.77
  -1   2  -7  471.77   21.95
   1   2   7  467.55   27.63
  -1   2  -7  519.40   31.73
  -1   2  -8   40.58    6.44
  -1   2  -8   60.91   11.52
   1   2   8   59.74   10.56
   1   2   8   32.43    9.05
   1   2   9   55.46   12.15
   1   2   9   46.08   10.05
  -1   2  -9   49.99   11.68
   1   2  10   24.41    9.22
  -1   2 -10   39.87   11.27
   1   2  10   31.24    9.12
   1   2  11   36.04   10.42
  -1   3  12  172.50   22.69
  -1   3  11   63.96   13.32
  -1   3  11   49.62   12.50
  -1   3  10  121.45   16.88
   1   3 -10  133.96   15.77
  -1   3  10  114.86   17.37
   1   3  -9   39.00    8.20
  -1   3   9   47.40   10.68
  -1   3   9   28.37    7.90
   1   3  -8  240.91   19.36
  -1   3   8  252.89   20.77
  -1   3   8  260.64   23.15
   1   3  -7  349.72   22.42
  -1   3   7  425.34   25.13
  -1   3   7  388.98   26.58
   1   3  -7  383.11   16.27
  -1   3   6  147.67   14.87
  -1   3   6  179.63   14.69
   1   3  -6  135.37   12.76
   1   3  -6  145.65    9.41
   1   3  -5  222.93   14.82
  -1   3   5  238.44   15.55
   1   3  -5  244.72   12.23
   1   3  -5  219.10   15.44
  -1   3   5  215.46   16.92
   1   3  -4  169.65   12.34
  -1   3   4  171.26   11.51
   1   3  -4  157.23   12.66
   1   3  -4  159.92    6.81
   1   3  -4  171.56   12.68
   1   3  -3  114.18    9.80
  -1   3   3  128.73    8.80
   1   3  -3  139.57    4.90
   1   3  -3  119.81    6.80
   1   3  -3  121.28    9.96
  -1   3   2 3290.55   71.05
   1   3  -2 3148.14   71.57
  -1   3   2 3252.43   65.08
   1   3  -2 3295.80   73.09
  -1   3   1 7105.80  134.41
   1   3  -1 7049.79  134.42
  -1   3   1 6884.79  125.65
   1   3  -1 6950.15  134.51
   1   3   0 6909.70  125.28
   1   3   0 6729.51  134.44
  -1   3   0 7078.86  132.77
   1   3   0 7210.53  132.96
   1   3   0 7105.87  133.42
  -1   3   0 6836.54  132.12
  -1   3   0 6928.95  125.11
  -1   3  -1  988.27   30.94
   1   3   1  984.67   26.57
   1   3   1  955.96   31.29
   1   3   1 1040.94   29.43
   1   3   1  998.20   27.10
   1   3   1 1015.91   29.19
  -1   3  -1  963.79   28.98
   1   3   1  910.80   31.11
  -1   3  -1 1039.52   31.06
  -1   3  -1  974.49   26.66
  -1   3  -1 1031.22   26.57
   1   3   2 2203.13   57.25
   1   3   2 2158.52   51.73
   1   3   2 2070.92   51.92
   1   3   2 2222.67   51.10
  -1   3  -2 2186.56   51.08
   1   3   2 2224.14   50.10
  -1   3  -2 2286.02   54.75
  -1   3  -2 2178.10   51.29
  -1   3  -2 2178.45   53.81
  -1   3  -3   86.42    8.79
   1   3   3   95.46    8.85
   1   3   3   92.93    6.83
   1   3   3   95.36    7.83
   1   3   3   86.93    8.43
  -1   3  -3   81.47    7.42
  -1   3  -3   86.68    8.15
  -1   3  -3   76.89    8.07
   1   3   3   80.23    9.34
  -1   3  -3   85.82    6.14
  -1   3  -3   71.16    5.29
  -1   3  -4  175.96   13.97
   1   3   4  190.97   13.99
  -1   3  -4  217.94   13.38
  -1   3  -4  194.27    8.93
  -1   3  -4  180.61   13.17
   1   3   4  187.62   15.54
   1   3   4  201.83   13.10
   1   3   4  176.17    8.90
  -1   3  -4  190.70    9.53
   1   3   5  452.27   12.81
   1   3   5  447.14   26.40
  -1   3  -5  447.17   16.74
   1   3   5  436.08   22.38
  -1   3  -5  477.43   25.75
  -1   3  -5  439.57   20.15
  -1   3  -5  433.81   21.85
  -1   3  -6  418.12   17.17
   1   3   6  414.52   23.80
  -1   3  -6  416.95   22.07
  -1   3  -6  433.40   20.15
   1   3   6  409.79   27.10
  -1   3  -6  414.68   26.18
  -1   3  -7 2224.93   53.22
   1   3   7 2172.34   74.27
   1   3   7 2202.11   67.94
  -1   3  -7 2149.98   72.30
  -1   3  -8  858.01   44.61
   1   3   8  786.44   39.85
   1   3   8  836.31   45.10
  -1   3  -9  110.83   16.67
   1   3   9  141.87   17.58
   1   3   9  135.15   19.13
   1   3  10  152.38   21.12
   1   3  10  156.69   19.93
  -1   3 -10  167.19   21.85
   1   3  11  259.09   27.11
  -1   4  12   43.99   12.02
  -1   4  11   33.63    9.90
  -1   4  11   35.28   10.01
   1   4 -10  138.76   16.32
  -1   4  10  126.80   17.28
  -1   4  10  123.91   18.16
   1   4  -9   79.14   11.61
  -1   4   9   72.39   12.16
  -1   4   9   76.83   13.91
   1   4  -8  297.96   21.91
  -1   4   8  241.67   20.75
  -1   4   8  297.58   24.91
   1   4  -8  264.37   15.03
  -1   4   7  672.53   33.30
   1   4  -7  649.06   31.97
   1   4  -7  723.64   26.08
   1   4  -6   55.32    6.68
  -1   4   6   51.47    8.07
   1   4  -6   42.81    7.54
   1   4  -5   29.02    6.06
   1   4  -5   21.78    4.24
  -1   4   5   28.82    5.56
  -1   4   4  349.81   18.17
   1   4  -4  361.69   19.94
   1   4  -4  370.15   13.01
   1   4  -4  380.96   10.14
  -1   4   3   18.87    1.91
   1   4  -3   29.02    5.38
  -1   4   3   22.96    4.14
  -1   4   3   27.28    5.01
   1   4  -2 4339.64   97.40
  -1   4   2 4594.56   96.46
   1   4  -2 4552.75   97.15
  -1   4   2 4487.96   90.22
   1   4  -1  503.19   22.25
  -1   4   1  464.84   17.48
   1   4   0  774.91   21.11
  -1   4   0  830.44   28.84
   1   4   0  863.02   29.93
  -1   4   0  858.76   25.98
   1   4   0  796.16   29.75
  -1   4   0  828.90   21.29
  -1   4  -1  334.77   17.65
   1   4   1  324.01   13.34
   1   4   1  322.04   15.55
   1   4   1  348.84   13.50
   1   4   1  332.08   17.08
  -1   4  -1  353.64   16.84
   1   4   1  347.45   19.12
  -1   4  -2  452.31   18.23
   1   4   2  484.26   20.17
  -1   4  -2  451.66   19.48
   1   4   2  469.96   19.73
   1   4   2  459.92   18.16
  -1   4  -2  465.42   21.76
   1   4   2  408.12   21.87
  -1   4  -3 1606.06   44.91
  -1   4  -3 1595.40   43.15
  -1   4  -3 1665.85   40.20
   1   4   3 1597.74   44.34
  -1   4  -3 1621.79   39.43
   1   4   3 1620.13   42.32
   1   4   3 1597.20   50.73
   1   4   3 1682.01   45.76
  -1   4  -3 1564.31   46.77
  -1   4  -4  966.99   28.39
  -1   4  -4 1045.73   36.66
   1   4   4  977.07   34.67
   1   4   4  922.61   38.73
  -1   4  -4  944.11   31.14
   1   4   4  969.79   28.90
  -1   4  -4  989.72   26.03
  -1   4  -4  941.79   34.90
   1   4   5  430.54   22.51
  -1   4  -5  452.61   18.07
  -1   4  -5  467.42   25.44
   1   4   5  417.91   26.38
  -1   4  -5  406.94   22.35
   1   4   5  465.76   16.88
  -1   4  -6  111.87    9.01
  -1   4  -6   90.98   12.20
   1   4   6  113.85   14.50
   1   4   6  119.83   12.50
  -1   4  -6  109.86   11.58
  -1   4  -7  293.70   15.63
   1   4   7  277.62   21.38
   1   4   7  313.50   25.67
  -1   4  -7  326.51   21.11
  -1   4  -7  278.63   22.92
   1   4   8  115.27   16.80
  -1   4  -8  107.76   15.54
   1   4   8   75.99   12.26
  -1   4  -9   62.48   12.59
   1   4   9   67.59   13.63
   1   4   9   46.96   10.43
   1   4  10   -1.61    3.77
   1   4  10   11.57    6.73
  -1   4 -10   11.37    7.31
  -1   5  11   85.34   15.41
   1   5 -11  134.75   19.96
  -1   5  10  217.87   23.05
   1   5 -10  218.64   21.01
   1   5  -9   19.06    6.54
  -1   5   9   23.26    7.63
   1   5  -8  233.83   20.07
  -1   5   8  268.63   22.35
   1   5  -8  270.48   16.88
   1   5  -7   -1.25    3.07
   1   5  -7   -0.42    1.73
  -1   5   7    2.06    3.20
  -1   5   6  853.26   36.38
   1   5  -6  866.31   32.09
   1   5  -6  870.85   37.09
   1   5  -5  604.25   17.07
  -1   5   5  564.41   27.03
   1   5  -5  590.09   25.41
   1   5  -5  604.40   28.94
   1   5  -4   89.47   10.26
  -1   5   4   79.52    9.22
  -1   5   4   92.30    9.56
  -1   5   4   83.82    5.16
   1   5  -4   97.39    6.01
  -1   5   3  733.24   27.67
   1   5  -3  802.95   31.83
  -1   5   2  260.66   14.68
   1   5  -2  286.40   17.71
   1   5  -2  273.55   18.02
  -1   5   1 1350.06   38.12
   1   5  -1 1327.92   43.59
  -1   5   0  788.61   27.42
  -1   5   0  759.72   30.12
   1   5   0  764.86   31.36
  -1   5   0  788.01   19.95
   1   5   0  779.56   20.02
   1   5   1 1395.32   43.35
   1   5   1 1331.67   32.69
   1   5   1 1394.14   46.00
  -1   5  -1 1426.60   42.10
  -1   5  -1 1389.76   43.72
   1   5   2  841.53   34.65
   1   5   2  783.28   27.99
  -1   5  -2  799.33   25.43
   1   5   2  891.57   31.68
  -1   5  -2  809.14   32.30
  -1   5  -2  782.91   28.97
   1   5   2  802.18   25.44
  -1   5  -3  655.15   24.58
   1   5   3  720.61   27.58
  -1   5  -3  689.54   26.03
  -1   5  -3  648.13   25.84
   1   5   3  698.01   25.87
  -1   5  -3  688.05   29.84
   1   5   3  673.12   26.70
   1   5   3  707.47   32.60
  -1   5  -4  434.68   22.18
  -1   5  -4  439.39   16.87
  -1   5  -4  404.54   22.89
   1   5   4  435.90   26.49
   1   5   4  419.05   21.74
  -1   5  -4  374.61   19.21
   1   5   4  450.11   20.36
  -1   5  -4  440.66   19.27
   1   5   5  434.08   27.99
  -1   5  -5  375.05   22.93
  -1   5  -5  453.68   25.26
  -1   5  -5  447.95   15.09
  -1   5  -5  452.98   19.82
   1   5   5  459.03   19.62
  -1   5  -6  203.65   13.35
  -1   5  -6  218.89   18.72
   1   5   6  202.41   20.07
  -1   5  -6  215.10   17.34
  -1   5  -7   45.83    9.64
  -1   5  -7   35.21    7.43
   1   5   7   37.05    9.30
  -1   5  -8  669.88   39.20
   1   5   8  603.33   39.79
  -1   5  -8  638.50   32.86
   1   5   9  160.84   21.42
  -1   5  -9  174.20   21.05
  -1   5 -10  180.75   22.84
   1   5  10  172.07   23.32
   1   6 -11   16.78    8.35
  -1   6  11   20.95    8.63
   1   6 -10  104.13   16.56
  -1   6  10   66.03   13.45
   1   6  -9   83.50   12.66
  -1   6   9   84.67   13.97
  -1   6   8  273.96   23.18
   1   6  -8  268.80   22.19
   1   6  -8  273.44   18.62
   1   6  -7   42.63    8.95
  -1   6   7   41.50    8.81
   1   6  -7   37.18    6.77
   1   6  -6  623.98   32.22
  -1   6   6  617.51   31.42
   1   6  -6  585.83   28.08
  -1   6   5  334.66   21.23
   1   6  -5  347.30   12.58
   1   6  -5  331.66   13.98
  -1   6   5  342.74   12.85
   1   6  -5  326.84   22.04
   1   6  -5  342.93   20.43
   1   6  -4  111.17    7.87
   1   6  -4   90.01   11.13
  -1   6   4  119.58   11.75
  -1   6   3  270.90   17.06
   1   6  -3  246.86   17.99
  -1   6   2  563.68   24.33
   1   6  -2  522.95   26.99
   1   6  -2  529.33   27.84
   1   6  -1  947.34   20.99
  -1   6   1  972.89   22.47
   1   6  -1  906.39   37.31
  -1   6   1  943.36   32.95
  -1   6   0  148.45   12.10
   1   6   0  130.92   13.19
   1   6   1  137.17   13.84
  -1   6  -1  134.69   12.93
  -1   6  -1  141.74   12.56
   1   6   2   33.17    4.52
  -1   6  -2   29.41    6.49
   1   6   2   37.22    7.46
  -1   6  -2   31.16    5.75
  -1   6  -3  189.68   13.71
  -1   6  -3  203.13   12.89
   1   6   3  196.27   17.48
   1   6   3  183.37   13.42
  -1   6  -3  184.46   13.92
   1   6   3  195.70   12.64
  -1   6  -3  181.23   15.79
  -1   6  -4  284.18   17.63
  -1   6  -4  317.32   17.78
   1   6   4  321.43   23.62
  -1   6  -4  304.12   20.90
  -1   6  -4  340.71   18.80
  -1   6  -5  609.73   29.40
  -1   6  -5  605.43   20.20
  -1   6  -5  573.43   25.62
   1   6   5  554.23   33.47
  -1   6  -5  633.36   31.62
   1   6   5  630.05   26.52
  -1   6  -5  589.70   25.43
   1   6   6  145.99   17.60
  -1   6  -6  145.26   15.25
  -1   6  -6  169.84   13.00
  -1   6  -6  172.47   16.47
  -1   6  -7  148.80   16.90
   1   6   7  125.46   17.33
  -1   6  -7  137.37   15.11
  -1   6  -8  101.71   14.94
   1   6   8   62.97   13.29
  -1   6  -8   72.67   11.40
   1   6   9  144.82   21.03
  -1   6  -9  122.74   17.73
  -1   6 -10  125.69   19.14
   1   7 -10  114.60   17.69
  -1   7  10  131.28   18.43
   1   7  -9  253.98   24.07
  -1   7   9  241.05   23.82
   1   7  -9  247.01   22.88
   1   7  -8    7.69    5.16
  -1   7   8    7.41    4.85
   1   7  -8   12.97    4.96
   1   7  -8    4.24    4.57
  -1   7   7    5.79    4.03
   1   7  -7    7.56    4.27
   1   7  -7   12.80    5.22
   1   7  -6  795.32   38.32
   1   7  -6  793.56   35.46
  -1   7   6  747.25   36.61
   1   7  -5   20.97    6.63
   1   7  -5   32.08    4.30
  -1   7   5   23.30    6.19
   1   7  -5   33.59    7.21
  -1   7   4  259.55   18.75
   1   7  -4  244.37   13.81
   1   7  -4  264.25   20.42
   1   7  -3  119.67   13.66
  -1   7   3  131.55   12.76
   1   7  -2  185.65   17.03
  -1   7   2  194.69   15.04
   1   7  -2  197.49   17.29
  -1   7   1  256.10   17.29
   1   7  -1  266.83   20.35
  -1   7   0  682.90   30.20
   1   7   0  725.23   34.53
  -1   7  -1  517.38   26.44
   1   7   1  510.14   28.93
  -1   7  -1  469.45   27.02
   1   7   2  295.25   13.22
  -1   7  -2  287.81   20.80
  -1   7  -2  323.34   19.92
   1   7   2  287.08   22.05
   1   7   3  352.37   25.18
  -1   7  -3  327.63   20.11
  -1   7  -3  347.85   16.66
   1   7   3  341.50   16.99
  -1   7  -3  325.02   19.97
  -1   7  -3  375.09   24.15
  -1   7  -4   72.10   10.69
  -1   7  -4   83.36    9.85
  -1   7  -4   74.04    8.57
  -1   7  -4   80.32    9.66
   1   7   4   63.16   11.15
  -1   7  -5  490.98   19.70
   1   7   5  494.97   32.51
  -1   7  -5  457.68   24.84
  -1   7  -5  503.99   24.88
  -1   7  -5  458.64   23.65
  -1   7  -5  467.96   28.54
  -1   7  -6  148.41   13.22
  -1   7  -6  135.69   15.55
   1   7   6  136.08   17.71
  -1   7  -6  146.77   15.00
  -1   7  -7  287.01   22.97
   1   7   7  262.80   25.76
  -1   7  -7  200.99   19.44
  -1   7  -8   17.35    6.26
   1   7   8   32.10   10.11
  -1   7  -8   40.89    9.70
  -1   7  -9    8.64    6.57
   1   7   9    2.38    3.40
  -1   8   9  299.00   27.21
   1   8  -8   68.69   12.09
  -1   8   8   72.87   12.94
   1   8  -7   83.24   12.98
  -1   8   7   64.35   11.42
  -1   8   6  657.53   35.82
   1   8  -6  790.77   40.04
   1   8  -6  662.74   34.81
  -1   8   5  140.45   15.30
   1   8  -5  136.24   14.96
   1   8  -5  148.25   16.53
   1   8  -4  231.03   20.30
  -1   8   4  193.42   17.18
   1   8  -4  220.07   12.44
   1   8  -4  206.90   13.80
   1   8  -3  662.42   34.95
  -1   8   3  690.45   32.58
  -1   8   2  331.98   21.53
   1   8  -2  352.47   24.88
   1   8  -2  376.61   26.18
   1   8  -1   35.35    7.70
  -1   8   1   38.17    7.26
   1   8   0  562.32   32.51
  -1   8   0  623.85   30.59
  -1   8   0  645.39   33.78
   1   8   1  596.00   33.61
  -1   8  -1  582.60   32.54
  -1   8  -1  589.38   30.61
   1   8   2  197.67   19.33
  -1   8  -2  208.22   19.18
  -1   8  -2  176.49   15.94
  -1   8  -3  449.74   28.85
   1   8   3  470.61   31.16
  -1   8  -3  500.79   27.39
  -1   8  -3  491.33   26.40
  -1   8  -4    6.19    4.07
  -1   8  -4    6.82    4.73
  -1   8  -4    7.48    4.48
  -1   8  -4    8.06    3.41
   1   8   4   -2.37    3.65
  -1   8  -5  198.54   15.90
   1   8   5  241.39   23.56
  -1   8  -5  170.81   18.19
  -1   8  -5  204.25   16.70
   1   8   6   95.94   15.71
  -1   8  -6  118.85   15.50
   1   8   7   42.75   10.88
  -1   8  -7   52.13   10.65
  -1   8  -8   18.21    7.26
   1   8   8   19.91    8.15
   1   9  -8   25.86    7.97
   1   9  -7    8.21    6.06
  -1   9   7    9.16    5.97
   1   9  -7    6.35    4.15
   1   9  -6   12.95    6.27
   1   9  -6    5.42    3.50
  -1   9   6   21.43    6.75
   1   9  -5  191.04   19.91
  -1   9   5  209.21   19.65
   1   9  -5  200.27   19.61
   1   9  -4  321.23   25.87
  -1   9   4  331.23   23.92
   1   9  -4  356.06   20.10
   1   9  -3    4.61    3.60
  -1   9   3    9.16    4.29
   1   9  -2  286.72   24.51
  -1   9   2  311.52   22.44
   1   9  -2  286.73   24.08
   1   9  -1   40.82    9.16
  -1   9   1   36.67    7.89
   1   9   0  194.77   20.06
  -1   9   0  202.50   18.15
  -1   9   0  209.25   20.27
   1   9   1  383.01   28.04
  -1   9  -1  287.45   24.35
  -1   9  -1  347.41   24.47
   1   9   2   84.20   13.67
  -1   9  -2  126.23   14.31
  -1   9  -2  110.31   14.97
  -1   9  -3   58.30    9.35
   1   9   3   42.98    9.94
  -1   9  -3   35.88    7.78
  -1   9  -3   34.37    9.03
   1   9   4  187.33   21.12
  -1   9  -4  201.31   17.20
  -1   9  -4  197.35   20.35
  -1   9  -4  179.90   17.11
  -1   9  -5   59.80   11.57
  -1   9  -5   52.24    9.10
   1   9   5   26.24    8.85
   1   9   6  167.52   21.60
  -1   9  -6  173.59   19.78
  -1   9  -7   72.49   12.96
   1   9   7   42.11   11.46
  -1   9  -8   31.12    9.16
   1  10  -7  272.65   25.88
   1  10  -7  253.32   24.15
   1  10  -6  351.40   28.16
   1  10  -6  275.98   25.80
  -1  10   6  299.67   25.83
  -1  10   5   27.07    8.23
   1  10  -5   27.10    8.30
   1  10  -5   30.45    9.07
   1  10  -4   64.26   12.33
  -1  10   4   85.49   12.64
   1  10  -3   78.01   13.45
  -1  10   3   78.28   12.07
  -1  10   2  174.91   17.67
   1  10  -2  190.04   20.86
   1  10  -2  182.19   20.54
  -1  10   1    3.95    3.52
   1  10  -1    1.85    4.28
  -1  10   0   44.17   10.35
   1  10   0   49.60   10.74
  -1  10   0   55.56   10.81
   1  10   1  244.90   23.70
  -1  10  -1  226.93   20.91
  -1  10  -1  279.61   25.23
  -1  10  -2   11.53    6.03
   1  10   2    5.06    4.32
  -1  10  -2    4.61    4.07
  -1  10  -3   60.95   10.96
   1  10   3   40.52   10.09
  -1  10  -3   43.35    8.71
  -1  10  -3   45.32   10.10
  -1  10  -4  186.59   18.66
  -1  10  -4  164.17   16.25
  -1  10  -4  185.67   20.91
   1  10   4  174.95   21.50
   1  10   5   88.74   15.50
  -1  10  -5   82.81   13.96
   1  10   6   42.95   11.71
  -1  10  -6   34.79    9.53
  -1  10  -7   57.87   12.51
   1  11  -7    2.33    5.33
   1  11  -6    1.92    3.50
   1  11  -6    3.59    5.06
   1  11  -5   61.50   12.53
   1  11  -5   80.25   14.30
   1  11  -4    1.81    3.14
  -1  11   4    6.44    5.37
   1  11  -4   10.28    5.37
   1  11  -3   49.29   11.49
  -1  11   3   43.47    9.52
   1  11  -2  206.59   23.18
   1  11  -2  195.50   22.58
  -1  11   2  195.95   20.03
  -1  11   1  119.96   17.69
   1  11  -1  111.63   16.88
   1  11  -1  112.59   17.00
  -1  11   1  105.97   14.99
   1  11   0   39.10   10.53
  -1  11   0   30.42    9.42
  -1  11   0   36.12    9.65
  -1  11  -1   53.38   12.04
  -1  11  -1   51.86   11.02
   1  11   1   43.14   10.93
  -1  11  -2  440.99   30.52
   1  11   2  375.75   31.55
  -1  11  -2  402.71   32.36
  -1  11  -3  145.12   19.55
  -1  11  -3  160.55   18.59
   1  11   3  133.19   19.15
  -1  11  -3  112.56   14.87
  -1  11  -4   58.31   12.75
   1  11   4   67.08   14.36
   1  11   5   52.98   12.98
   1  12  -4    7.10    5.27
   1  12  -3   65.09   13.74
  -1  12   2   10.19    5.90
   1  12  -2   10.48    7.80
   1  12  -1   61.12   13.74
   1  12  -1   67.52   14.07
  -1  12   1   55.78   12.19
  -1  12   0   17.31    7.34
   1  12   0   45.68   11.90
   1  12   1   21.44    8.23
  -1  12  -1   23.94    7.98
  -1  12  -2   92.40   15.86
   1  12   2   81.03   15.49
  -1  12  -2   92.95   14.62
  -1  12  -3  147.92   19.25
   1  12   3  169.91   22.38
  -1  13  -1   41.80   11.99
  -2 -12   0   87.52   15.06
  -2 -12   0   88.77   15.68
  -2 -12  -1   38.10   10.27
  -2 -12  -1   39.07   10.69
  -2 -12  -2    8.83    6.43
  -2 -11   7   72.82   15.80
   2 -11  -6   33.14   10.12
  -2 -11   6   35.43   10.26
   2 -11  -5   34.47    9.95
   2 -11  -4   30.37    9.77
  -2 -11   4   23.56    7.89
   2 -11  -3   24.71    8.60
  -2 -11   3   15.20    6.36
   2 -11  -2   80.33   14.96
   2 -11  -1   58.33   13.37
  -2 -11   1   60.08   11.48
  -2 -11   0   30.68    8.67
  -2 -11   0   12.90    5.87
   2 -11   0   18.61    7.98
  -2 -11  -1   82.83   14.63
  -2 -11  -1   91.52   15.16
   2 -11   1   61.90   13.54
   2 -11   2   -0.95    4.33
  -2 -11  -2   11.55    6.43
  -2 -11  -2    9.37    4.80
  -2 -11  -3  168.46   22.28
  -2 -11  -3  150.79   20.72
   2 -11   3  185.95   23.66
  -2 -10   7   71.92   14.11
   2 -10  -6   78.36   13.73
  -2 -10   6   77.28   13.97
  -2 -10   5  146.11   17.82
   2 -10  -5  136.74   18.00
   2 -10  -4   45.41   10.28
  -2 -10   4   38.28    8.89
  -2 -10   4   30.83    8.77
  -2 -10   3   73.37   11.23
  -2 -10   3  115.21   15.22
   2 -10  -3   74.96   13.67
  -2 -10   2  145.01   16.43
   2 -10  -2  132.26   18.18
  -2 -10   2  160.64   15.63
  -2 -10   2  164.62   16.42
  -2 -10   1  259.97   22.09
   2 -10  -1  266.50   25.71
  -2 -10   1  232.98   20.18
  -2 -10   0   79.82   13.20
   2 -10   0   63.34   13.18
  -2 -10   0   78.58   11.30
  -2 -10   0   86.14   13.17
  -2 -10  -1  338.25   27.95
   2 -10   1  373.39   31.10
  -2 -10  -1  404.14   30.63
  -2 -10  -2  149.07   18.88
   2 -10   2  134.57   18.95
  -2 -10  -2  125.74   18.03
  -2 -10  -3  160.13   20.49
   2 -10   3  148.89   20.11
  -2 -10  -3  141.01   19.63
  -2 -10  -4    3.49    5.91
  -2 -10  -4   10.65    6.95
   2 -10   4    5.02    5.51
  -2 -10  -5  184.96   23.45
   2 -10   5  141.58   19.93
   2 -10   6   26.65    8.64
  -2  -9   8   85.25   15.71
   2  -9  -8  100.93   18.10
  -2  -9   7   38.39   10.05
   2  -9  -7   30.12    8.41
   2  -9  -6   27.68    8.15
  -2  -9   6   12.45    5.37
   2  -9  -5  199.08   20.58
  -2  -9   5  204.89   20.13
   2  -9  -4  516.03   33.79
  -2  -9   4  514.24   30.70
  -2  -9   3  165.59   17.57
   2  -9  -3  163.12   19.02
  -2  -9   3  199.14   17.58
  -2  -9   3  191.92   15.51
  -2  -9   2   42.62    8.36
  -2  -9   2   43.66    8.72
  -2  -9   2   42.22    7.57
   2  -9  -2   61.55   11.87
  -2  -9   1  115.88   14.19
  -2  -9   1  109.76   13.30
  -2  -9   1  127.30   12.32
   2  -9  -1  111.50   15.90
  -2  -9   0    2.86    3.00
  -2  -9   0   15.47    5.89
  -2  -9   0    4.03    3.56
   2  -9   0    7.51    5.22
  -2  -9  -1  284.83   24.35
  -2  -9  -1  321.82   25.63
  -2  -9  -1  330.85   22.32
   2  -9   1  343.33   28.00
  -2  -9  -2   88.69   14.17
  -2  -9  -2   82.49   13.53
  -2  -9  -2   70.36   10.13
   2  -9   2   87.61   13.95
  -2  -9  -3  198.83   22.10
   2  -9   3  205.08   22.03
  -2  -9  -3  219.07   22.56
  -2  -9  -4   16.18    7.45
  -2  -9  -4   17.54    7.07
   2  -9   4   15.80    7.02
  -2  -9  -5   35.14   10.75
  -2  -9  -5   29.99    9.63
   2  -9   5   29.70    8.75
   2  -9   5   23.31    7.93
  -2  -9  -6  200.58   24.94
   2  -9   6  192.20   21.97
   2  -9   6  147.95   21.24
  -2  -9  -6  146.57   20.81
   2  -9   7  124.03   17.85
   2  -8  -9   11.63    6.20
   2  -8  -9   11.68    6.88
  -2  -8   9   30.25   10.20
   2  -8  -8  213.37   24.77
  -2  -8   8  145.82   19.70
   2  -8  -7  195.22   18.89
  -2  -8   7  170.74   19.82
   2  -8  -6  286.51   23.25
  -2  -8   6  339.63   26.78
  -2  -8   5   38.31    8.73
   2  -8  -5   21.48    7.00
  -2  -8   4   11.58    3.62
   2  -8  -4   12.40    5.39
  -2  -8   4   22.34    6.39
   2  -8  -3  377.24   27.17
  -2  -8   3  406.69   24.11
  -2  -8   3  386.03   20.97
  -2  -8   3  428.34   17.71
   2  -8  -2   83.66   13.06
  -2  -8   2   79.38   11.25
  -2  -8   2   74.90    6.16
  -2  -8   2   93.72   10.51
  -2  -8   2   97.83   11.42
  -2  -8   1  287.10   20.70
  -2  -8   1  258.30   19.81
   2  -8  -1  280.00   23.48
  -2  -8   1  256.99   16.44
  -2  -8   0   29.80    7.37
  -2  -8   0   28.33    6.62
  -2  -8   0   38.13    7.71
   2  -8   0   35.52    8.50
  -2  -8  -1  790.73   39.16
  -2  -8  -1  733.33   33.49
   2  -8   1  709.06   38.86
  -2  -8  -1  693.44   36.35
  -2  -8  -2  192.52   19.64
  -2  -8  -2  232.11   17.94
   2  -8   2  210.50   20.75
  -2  -8  -2  175.57   18.31
  -2  -8  -3   52.31   10.98
   2  -8   3   75.94   12.75
  -2  -8  -3   45.13    9.94
   2  -8   4   81.01   13.19
  -2  -8  -4   96.49   15.24
  -2  -8  -4   90.01   15.06
  -2  -8  -5  123.12   17.88
  -2  -8  -5  116.25   13.40
  -2  -8  -5  105.79   16.43
   2  -8   5   89.66   14.08
   2  -8   5  128.78   18.22
  -2  -8  -6   38.41   10.54
   2  -8   6   40.26    9.75
  -2  -8  -6   29.62    9.83
   2  -8   6   35.08   10.63
   2  -8   7    6.25    5.52
  -2  -8  -7    5.85    7.54
   2  -8   7    5.67    4.70
  -2  -8  -7   10.38    7.65
   2  -7 -10    5.13    6.78
   2  -7 -10    1.67    5.96
  -2  -7   9  128.93   18.95
   2  -7  -9  138.74   19.67
   2  -7  -8   95.05   15.68
  -2  -7   8   88.38   15.00
  -2  -7   7  193.77   20.46
   2  -7  -7  178.52   16.99
   2  -7  -6  197.03   18.05
  -2  -7   6  197.19   19.49
   2  -7  -5  218.12   18.92
  -2  -7   5  197.06   17.97
  -2  -7   4  130.45    9.59
   2  -7  -4  127.35   14.64
  -2  -7   4  119.21   13.01
   2  -7  -3  788.53   30.04
  -2  -7   3  740.08   28.74
   2  -7  -3  854.01   39.34
  -2  -7   3  820.03   33.31
  -2  -7   2  481.44   19.03
   2  -7  -2  509.61   23.32
  -2  -7   2  517.38   28.31
   2  -7  -2  458.82   28.71
  -2  -7   2  525.14   23.93
  -2  -7   2  541.38   25.38
  -2  -7   1  420.32   24.82
  -2  -7   1  444.41   17.07
   2  -7  -1  428.17   17.91
   2  -7  -1  452.07   22.13
   2  -7  -1  419.66   27.13
  -2  -7   1  433.04   20.06
  -2  -7   1  458.19   24.87
   2  -7   0  446.32   18.31
   2  -7   0  446.99   16.67
  -2  -7   0  393.93   24.17
  -2  -7   0  427.94   24.30
   2  -7   0  381.67   26.33
  -2  -7   0  421.53   25.40
  -2  -7  -1  317.78   23.25
   2  -7   1  308.77   15.86
  -2  -7  -1  326.62   20.86
  -2  -7  -1  337.20   23.11
   2  -7   1  328.33   24.19
  -2  -7  -2   66.02   11.05
  -2  -7  -2   87.14   10.83
  -2  -7  -2   73.42    7.04
  -2  -7  -2   88.09   12.08
   2  -7   2   64.51   10.99
   2  -7   3  213.40   19.98
  -2  -7  -3  234.41   21.59
  -2  -7  -3  257.70   22.05
  -2  -7  -4  165.97   15.00
  -2  -7  -4  170.88   18.71
   2  -7   4  204.72   19.53
  -2  -7  -4  169.20   19.31
  -2  -7  -5  703.99   34.65
   2  -7   5  651.25   36.36
  -2  -7  -5  624.32   38.60
   2  -7   5  662.54   40.50
  -2  -7  -5  706.25   41.81
   2  -7   6   98.59   14.06
  -2  -7  -6  112.61   16.85
  -2  -7  -6   97.60   13.50
  -2  -7  -6  108.72   16.72
   2  -7   6  105.35   16.25
   2  -7   7   95.69   14.11
  -2  -7  -7   97.98   14.70
  -2  -7  -7  100.88   16.40
   2  -7   7  109.28   17.65
  -2  -7  -7   88.04   15.57
   2  -7   8  234.55   27.25
  -2  -7  -8  280.62   26.29
  -2  -7  -8  223.92   26.06
  -2  -7  -9  316.25   29.91
   2  -6 -11  115.22   18.61
   2  -6 -11   89.41   16.10
   2  -6 -10   78.96   15.36
   2  -6 -10   82.02   15.06
  -2  -6  10   72.53   15.16
   2  -6  -9  175.18   21.11
  -2  -6   9  158.15   20.50
  -2  -6   8  293.33   26.13
   2  -6  -8  319.95   21.15
   2  -6  -8  281.77   25.91
  -2  -6   7  152.45   17.74
   2  -6  -7  175.08   15.62
   2  -6  -6   46.73    8.56
  -2  -6   6   37.48    8.30
   2  -6  -5   32.39    7.38
  -2  -6   5   54.37    9.21
  -2  -6   4  586.34   28.58
   2  -6  -4  587.95   30.31
  -2  -6   4  605.32   20.11
   2  -6  -3  383.42   18.04
   2  -6  -3  381.26   24.03
  -2  -6   3  396.31   21.20
  -2  -6   3  384.63   17.82
  -2  -6   2  241.66   15.34
  -2  -6   2  227.36   17.59
   2  -6  -2  254.48   14.10
  -2  -6   2  227.76   14.34
   2  -6  -2  249.37   19.33
  -2  -6   1   24.97    4.01
   2  -6  -1   34.63    2.81
  -2  -6   1   29.47    4.60
  -2  -6   1   29.46    6.48
   2  -6  -1   37.69    7.87
   2  -6  -1   22.12    4.28
  -2  -6   1   19.93    4.81
   2  -6  -1   34.90    5.07
  -2  -6   0   26.94    5.96
   2  -6   0   24.38    3.81
   2  -6   0   31.43    7.45
  -2  -6   0   22.47    5.36
  -2  -6   0   24.08    5.56
   2  -6   0   31.40    5.38
  -2  -6   0   25.84    4.27
   2  -6   0   31.49    4.90
   2  -6   1  232.84   15.45
   2  -6   1  172.96   12.06
  -2  -6  -1  172.88   15.30
   2  -6   1  177.62   16.45
  -2  -6  -1  194.22   16.74
  -2  -6  -1  208.58   15.95
  -2  -6  -2  184.59   17.23
   2  -6   2  174.43   16.36
   2  -6   2  165.07   12.73
  -2  -6  -2  177.66    9.84
  -2  -6  -2  193.89   15.47
  -2  -6  -2  208.24   17.53
  -2  -6  -3  422.89   27.85
   2  -6   3  351.98   24.22
  -2  -6  -3  428.96   16.95
  -2  -6  -3  419.48   27.01
  -2  -6  -4  142.71   16.82
  -2  -6  -4  158.53   17.17
  -2  -6  -4  163.02   14.96
   2  -6   4  146.69   15.58
  -2  -6  -5   32.31    8.25
   2  -6   5   47.81    9.26
   2  -6   5   28.82    8.32
  -2  -6  -5   35.05    9.15
  -2  -6  -5   47.82    8.86
  -2  -6  -6  341.74   28.42
   2  -6   6  367.73   25.40
  -2  -6  -6  342.82   28.33
  -2  -6  -6  317.88   24.74
   2  -6   6  372.26   29.57
  -2  -6  -7   51.65   11.34
  -2  -6  -7   45.47    9.89
  -2  -6  -7   31.36    9.26
   2  -6   7   45.19    9.06
   2  -6   7   37.47    9.76
  -2  -6  -8   34.95   10.91
   2  -6   8   56.09   12.98
  -2  -6  -8   27.49    9.24
  -2  -6  -8   37.73    9.61
  -2  -6  -9    1.22    4.61
   2  -5 -12   24.58   10.07
   2  -5 -11   77.45   14.69
   2  -5 -11   57.55   12.52
   2  -5 -10   36.04    9.97
   2  -5 -10   33.35    9.67
  -2  -5  10   10.96    6.53
   2  -5  -9   98.47   14.70
  -2  -5   9  108.90   16.77
   2  -5  -8  154.60   17.98
  -2  -5   8  154.38   18.67
   2  -5  -8  170.05   14.44
  -2  -5   7 1387.12   55.99
   2  -5  -7 1429.96   47.37
  -2  -5   6  828.72   23.10
  -2  -5   6  783.20   37.58
   2  -5  -6  831.35   34.28
  -2  -5   5   27.23    6.38
   2  -5  -5   18.68    4.68
  -2  -5   4  561.02   17.30
  -2  -5   4  518.97   25.61
   2  -5  -4  501.29   26.22
   2  -5  -3  633.66   21.09
  -2  -5   3  596.64   25.30
  -2  -5   3  569.67   20.89
   2  -5  -3  597.95   28.50
  -2  -5   2  815.66   28.52
  -2  -5   2  811.12   33.54
   2  -5  -2  864.54   25.38
  -2  -5   2  808.51   27.49
   2  -5  -2  822.23   34.42
  -2  -5   1 1928.00   47.66
   2  -5  -1 1960.36   46.14
   2  -5  -1 1910.84   39.82
  -2  -5   1 1955.18   50.77
  -2  -5   1 1966.46   44.92
  -2  -5   1 1821.40   55.00
   2  -5  -1 1918.80   58.04
  -2  -5   1 1895.98   52.52
  -2  -5   0  541.51   25.81
  -2  -5   0  569.09   21.35
  -2  -5   0  515.34   25.09
  -2  -5   0  563.74   24.86
   2  -5   0  531.43   21.52
  -2  -5   0  554.31   16.71
   2  -5   0  538.12   21.12
   2  -5   0  523.04   27.05
   2  -5   0  549.66   19.18
  -2  -5  -1 3527.98   86.23
  -2  -5  -1 3277.29   64.27
   2  -5   1 3432.47   77.16
   2  -5   1 3448.74   76.89
  -2  -5  -1 3481.40   82.56
  -2  -5  -1 3456.54   75.26
  -2  -5  -1 3176.14   81.38
   2  -5   1 3397.51   85.87
   2  -5   2  327.59   18.24
   2  -5   2  349.97   19.10
  -2  -5  -2  327.83   20.02
  -2  -5  -2  346.90   21.64
  -2  -5  -2  352.07   12.26
   2  -5   2  347.81   21.69
  -2  -5  -2  347.95   22.57
  -2  -5  -3 1297.57   48.58
   2  -5   3 1329.15   47.52
  -2  -5  -3 1387.05   33.97
  -2  -5  -3 1363.02   50.90
  -2  -5  -4  284.43   14.23
  -2  -5  -4  254.76   21.28
  -2  -5  -4  271.62   19.56
   2  -5   4  253.02   19.02
  -2  -5  -4  232.85   20.20
  -2  -5  -5  207.91   20.33
  -2  -5  -5  232.39   19.22
   2  -5   5  211.51   17.51
  -2  -5  -5  231.42   21.20
   2  -5   5  234.05   21.18
   2  -5   6  183.33   16.47
  -2  -5  -6  149.58   18.03
   2  -5   6  188.41   19.98
  -2  -5  -6  192.05   19.07
  -2  -5  -6  186.92   20.02
  -2  -5  -7   40.67   10.22
  -2  -5  -7   40.35    9.46
   2  -5   7   40.35    9.80
   2  -5   7   35.70    7.37
  -2  -5  -7   39.36   10.11
  -2  -5  -8   58.65   12.05
   2  -5   8   53.29   12.49
  -2  -5  -8   51.65   11.75
  -2  -5  -8   60.42   12.71
  -2  -5  -9   93.74   16.42
   2  -5   9  108.38   18.17
  -2  -5  -9   88.18   15.66
  -2  -5  -9  144.23   20.25
   2  -4 -11   56.90   12.29
  -2  -4  11   61.59   14.23
   2  -4 -11   43.93   10.22
   2  -4 -10  105.71   14.96
  -2  -4  10   99.74   16.85
   2  -4 -10   95.16   14.45
   2  -4  -9   31.93    8.44
  -2  -4   9   17.04    6.62
   2  -4  -8   24.33    5.40
   2  -4  -8   33.00    8.37
  -2  -4   8   17.29    6.76
   2  -4  -7 1286.09   42.26
   2  -4  -7 1296.03   50.45
  -2  -4   7 1287.71   52.57
  -2  -4   6  356.69   12.23
  -2  -4   6  338.23   23.31
   2  -4  -6  312.97   19.03
   2  -4  -5  276.83   17.74
  -2  -4   5  261.35    8.80
  -2  -4   5  243.86   18.15
   2  -4  -4  507.57   24.81
  -2  -4   4  585.28   26.00
  -2  -4   3  659.31   25.60
   2  -4  -3  650.64   28.32
  -2  -4   3  678.02   21.16
   2  -4  -2 2805.34   70.76
   2  -4  -2 2739.96   54.97
  -2  -4   2 2698.18   57.82
  -2  -4   2 2831.12   61.48
  -2  -4   2 2814.28   62.45
   2  -4  -1  807.20   31.87
   2  -4  -1  829.47   22.46
   2  -4  -1  804.09   21.66
  -2  -4   1  787.08   31.00
  -2  -4   1  772.81   26.58
  -2  -4   1  808.32   26.20
  -2  -4   1  824.12   22.41
  -2  -4   1  775.60   28.02
   2  -4   0   72.18    6.31
  -2  -4   0   73.18    7.28
  -2  -4   0   70.29    8.32
  -2  -4   0   80.48    8.13
   2  -4   0   87.26    6.99
  -2  -4   0   60.62    7.90
  -2  -4   0   79.76    4.24
   2  -4   0   77.99    7.73
   2  -4   0   88.23    9.78
  -2  -4  -1  474.92   23.72
   2  -4   1  458.07   19.27
  -2  -4  -1  438.55   19.51
  -2  -4  -1  476.85   22.97
  -2  -4  -1  438.39   21.61
   2  -4   1  465.07   20.81
   2  -4   1  437.84   22.91
  -2  -4  -2 1190.90   43.12
   2  -4   2 1213.98   39.44
   2  -4   2 1268.49   39.67
  -2  -4  -2 1165.87   41.36
  -2  -4  -2 1220.16   25.84
  -2  -4  -2 1241.23   41.32
   2  -4   2 1153.64   40.48
  -2  -4  -3   92.65   11.59
  -2  -4  -3   92.97   11.22
  -2  -4  -3   98.00    6.55
   2  -4   3   92.00   10.31
  -2  -4  -4   78.18   11.19
  -2  -4  -4   75.80   10.88
  -2  -4  -4   80.60    7.24
   2  -4   4   74.57    9.49
  -2  -4  -4   73.87   10.09
  -2  -4  -5  127.30   14.32
   2  -4   5  124.94   12.22
  -2  -4  -5  110.45   14.05
  -2  -4  -5  124.70   10.38
   2  -4   5  138.85   15.39
  -2  -4  -5  133.98   15.60
  -2  -4  -6   38.33    9.27
   2  -4   6   44.72    9.52
  -2  -4  -6   34.57    8.54
  -2  -4  -6   39.87    8.83
   2  -4   6   41.66    7.47
  -2  -4  -7    7.28    4.48
   2  -4   7    9.69    5.45
  -2  -4  -7    8.15    5.75
   2  -4   7    9.35    3.81
  -2  -4  -7   14.77    6.32
   2  -4   8   51.15   11.17
  -2  -4  -8   56.19   12.08
  -2  -4  -8   23.18    8.07
  -2  -4  -8   36.38    9.63
  -2  -4  -9   83.27   14.35
  -2  -4  -9   76.40   14.89
  -2  -4  -9   65.66   13.45
   2  -4   9   75.08   14.67
  -2  -4 -10   21.55    9.48
  -2  -4 -10   14.79    7.01
   2  -3 -11  244.09   22.67
   2  -3 -11  239.83   22.43
  -2  -3  11  210.86   25.61
   2  -3 -10  153.06   17.33
   2  -3 -10  111.16   14.67
  -2  -3  10  106.16   17.01
  -2  -3   9  440.96   33.08
   2  -3  -9  496.67   29.98
   2  -3  -8 1432.46   43.18
   2  -3  -8 1481.20   53.18
  -2  -3   8 1385.84   57.75
   2  -3  -7  194.45   13.93
   2  -3  -7  185.61   16.33
  -2  -3   7  157.24   16.85
   2  -3  -6  386.98   20.18
  -2  -3   6  365.61   24.00
   2  -3  -5  732.36   28.82
  -2  -3   5  697.02   31.15
   2  -3  -4  170.64   13.15
  -2  -3   4  179.78   13.61
   2  -3  -3 1952.25   53.96
  -2  -3   3 2023.49   44.44
  -2  -3   3 2032.16   51.23
  -2  -3   2 1575.62   45.46
   2  -3  -2 1590.88   46.15
  -2  -3   2 1529.98   33.32
  -2  -3   2 1590.44   38.75
  -2  -3   2 1535.83   38.85
   2  -3  -1  862.84   31.46
   2  -3  -1  915.03   29.80
  -2  -3   1  912.25   31.81
   2  -3  -1  884.10   20.32
   2  -3  -1  909.63   24.47
  -2  -3   1  869.14   31.57
  -2  -3   1  857.04   24.97
  -2  -3   1  909.22   22.37
  -2  -3   1  920.34   29.14
   2  -3   0 1284.64   40.21
   2  -3   0 1265.29   37.22
  -2  -3   0 1253.65   35.64
  -2  -3   0 1264.45   36.81
   2  -3   0 1367.87   34.87
  -2  -3   0 1330.64   40.47
  -2  -3   0 1361.67   39.34
   2  -3   1  835.17   29.21
   2  -3   1  864.06   29.91
  -2  -3  -1  825.37   30.84
  -2  -3  -1  873.55   29.23
  -2  -3  -1  799.44   29.23
  -2  -3  -1  821.63   31.07
   2  -3   1  827.27   30.83
  -2  -3  -2 1083.39   38.91
   2  -3   2 1167.94   38.00
   2  -3   2 1118.91   36.88
  -2  -3  -2 1146.59   38.52
  -2  -3  -2 1074.37   37.29
  -2  -3  -2 1118.26   36.20
   2  -3   2 1071.01   36.36
   2  -3   2 1157.28   36.44
  -2  -3  -3  164.56   14.80
  -2  -3  -3  209.33   15.94
  -2  -3  -3  197.53    9.66
   2  -3   3  188.33   13.46
   2  -3   3  171.76   13.10
  -2  -3  -4   83.95   10.99
  -2  -3  -4   92.35   11.14
  -2  -3  -4   72.78   10.21
   2  -3   4   73.33    8.59
  -2  -3  -4   84.29    7.46
   2  -3   4   83.22   10.65
  -2  -3  -5  958.14   41.42
  -2  -3  -5  919.09   40.55
   2  -3   5  920.58   33.46
   2  -3   5  909.22   40.04
  -2  -3  -5  955.43   32.65
  -2  -3  -5  998.97   42.27
  -2  -3  -6  414.49   27.98
   2  -3   6  432.97   21.18
  -2  -3  -6  354.21   25.76
   2  -3   6  332.34   24.59
  -2  -3  -6  365.04   25.84
  -2  -3  -7   74.65   12.16
  -2  -3  -7   63.76   11.34
   2  -3   7   59.40    7.55
   2  -3   7   45.57    9.86
  -2  -3  -7   56.39   10.96
  -2  -3  -8  136.35   18.20
  -2  -3  -8  136.23   17.91
   2  -3   8  166.00   19.69
  -2  -3  -8  169.55   19.01
   2  -3   9   21.58    7.98
  -2  -3  -9   43.66   11.24
  -2  -3  -9   26.02    8.57
  -2  -3  -9   36.94    9.89
  -2  -3 -10   23.70    8.46
  -2  -3 -10   31.12   11.21
   2  -3  10   24.19    8.78
  -2  -3 -11    9.82    9.29
   2  -2 -11   68.70   11.20
  -2  -2  11   57.89   13.25
   2  -2 -10  200.55   18.60
   2  -2 -10  200.43   18.48
  -2  -2  10  177.99   22.00
   2  -2  -9   50.56    9.30
   2  -2  -9   54.68    9.27
  -2  -2   9   51.57   11.27
   2  -2  -8  478.11   22.10
  -2  -2   8  488.50   16.31
   2  -2  -8  481.45   26.46
  -2  -2   8  515.33   32.74
   2  -2  -8  446.62   29.98
   2  -2  -7  446.75   21.44
   2  -2  -7  467.06   28.76
  -2  -2   7  456.43   16.58
   2  -2  -7  449.81   24.08
  -2  -2   7  467.03   29.09
  -2  -2   6  571.31   19.58
   2  -2  -6  571.40   30.32
   2  -2  -6  592.12   26.56
  -2  -2   6  546.54   29.33
  -2  -2   5  383.93   22.31
  -2  -2   5  409.19   16.35
   2  -2  -5  417.42   24.23
  -2  -2   4 1163.15   32.00
  -2  -2   4 1214.84   37.44
  -2  -2   4 1122.25   37.71
   2  -2  -4 1097.87   39.93
   2  -2  -3  437.04   21.55
  -2  -2   3  418.96   18.85
  -2  -2   3  498.25   20.73
  -2  -2   3  418.80   17.43
  -2  -2   2  142.65   10.36
  -2  -2   2  124.68    8.30
   2  -2  -2  149.16    9.36
   2  -2  -2  159.06   11.63
  -2  -2   2  147.14    8.99
  -2  -2   1  505.06   20.49
   2  -2  -1  508.00   21.89
  -2  -2   1  516.44   20.79
   2  -2  -1  503.18   17.89
  -2  -2   1  542.12   22.55
  -2  -2   1  515.11   16.07
  -2  -2   1  517.66   15.03
   2  -2  -1  498.81   20.03
   2  -2  -1  517.81   19.81
  -2  -2   1  511.57   19.39
  -2  -2   0  976.58   30.79
   2  -2   0  999.44   32.53
   2  -2   0  992.54   29.07
  -2  -2   0  952.12   32.10
  -2  -2   0 1033.50   32.17
  -2  -2   0  991.05   28.35
  -2  -2   0  950.06   30.58
   2  -2   1  478.89   20.09
  -2  -2  -1  483.19   21.88
   2  -2   1  460.83   20.71
  -2  -2  -1  469.74   20.63
   2  -2   1  428.17   19.81
   2  -2   1  481.72   21.14
  -2  -2  -1  495.40   21.92
  -2  -2  -1  454.04   19.75
  -2  -2  -1  491.84   21.63
   2  -2   1  487.32   20.80
   2  -2   2  210.88   13.13
  -2  -2  -2  186.37   13.85
  -2  -2  -2  204.42   13.87
   2  -2   2  221.25   14.88
   2  -2   2  205.07   14.05
  -2  -2  -2  187.05   13.39
   2  -2   2  208.98   13.46
   2  -2   3 1881.72   48.30
  -2  -2  -3 1830.30   54.20
   2  -2   3 1850.07   48.82
  -2  -2  -3 1960.56   55.70
   2  -2   3 1914.17   51.72
  -2  -2  -4  664.15   30.80
  -2  -2  -4  743.41   32.97
  -2  -2  -4  679.17   31.33
   2  -2   4  703.54   30.51
   2  -2   4  663.15   25.24
   2  -2   4  685.22   25.29
  -2  -2  -5  862.91   37.16
   2  -2   5  821.85   28.78
  -2  -2  -5  827.35   38.11
  -2  -2  -5  868.70   38.20
   2  -2   5  821.61   28.64
   2  -2   5  787.68   35.33
  -2  -2  -5  909.05   31.93
   2  -2   6  582.70   23.29
   2  -2   6  556.96   22.22
  -2  -2  -6  578.17   32.41
   2  -2   6  580.49   31.48
  -2  -2  -6  597.69   31.84
  -2  -2  -6  586.06   33.67
  -2  -2  -7   26.17    7.06
  -2  -2  -7   19.57    7.00
  -2  -2  -7   20.27    6.54
   2  -2   7   17.89    6.59
  -2  -2  -8   46.50    9.80
  -2  -2  -8   41.32   10.04
  -2  -2  -8   53.79   11.06
   2  -2   8   41.05    9.79
  -2  -2  -9   59.08   11.32
   2  -2   9   51.35   11.77
  -2  -2  -9   60.78   12.48
  -2  -2  -9   85.02   15.75
  -2  -2 -10  121.96   16.76
  -2  -2 -10  105.85   18.43
   2  -2  10  107.49   17.65
  -2  -1  11   39.03   11.30
   2  -1 -10   97.18   11.77
   2  -1 -10  119.12   16.80
   2  -1 -10   85.46   11.27
  -2  -1  10   88.54   15.91
   2  -1  -9  114.45   12.33
   2  -1  -9   79.36   12.77
   2  -1  -9   96.56   11.36
  -2  -1   9   92.36   14.97
  -2  -1   8   73.27    6.97
   2  -1  -8   82.14   12.23
   2  -1  -8   76.46    9.48
  -2  -1   8   64.27   11.92
   2  -1  -7  685.07   34.84
  -2  -1   7  714.91   24.14
   2  -1  -7  746.04   29.19
  -2  -1   7  634.94   34.48
  -2  -1   7  677.88   19.70
   2  -1  -6   24.29    4.78
  -2  -1   6   28.84    3.19
  -2  -1   6   30.77    7.02
  -2  -1   6   18.67    3.61
   2  -1  -6   17.48    5.36
   2  -1  -5  332.25   20.89
  -2  -1   5  375.36   21.80
  -2  -1   5  369.40   16.15
  -2  -1   5  361.78   11.85
   2  -1  -4  307.17   18.50
  -2  -1   4  300.25   15.58
  -2  -1   4  290.89   17.49
  -2  -1   4  316.54   14.78
  -2  -1   4  321.44   10.99
   2  -1  -3 2015.20   53.53
  -2  -1   3 2019.98   47.95
  -2  -1   3 1954.42   47.94
  -2  -1   3 2005.72   42.26
  -2  -1   3 2019.17   50.95
   2  -1  -3 2103.67   43.07
   2  -1  -2 5304.15  109.22
  -2  -1   2 5491.87  104.23
  -2  -1   2 5570.51  110.65
   2  -1  -2 5545.49  110.14
  -2  -1   2 5314.11  104.79
   2  -1  -2 5343.33  105.95
  -2  -1   2 5369.14  106.70
   2  -1  -2 5465.17  102.48
  -2  -1   2 5489.59  109.11
   2  -1  -1  850.84   26.72
  -2  -1   1  895.83   25.90
  -2  -1   1  869.22   26.83
  -2  -1   1  887.14   29.14
   2  -1  -1  905.71   26.91
   2  -1  -1  884.71   27.50
  -2  -1   1  911.05   27.51
   2  -1  -1  908.07   19.33
   2  -1  -1  947.67   26.90
  -2  -1   1  871.55   27.89
   2  -1   0 3071.41   62.84
   2  -1   0 3111.86   68.81
  -2  -1   0 3137.60   64.90
  -2  -1   0 3162.09   70.41
   2  -1   0 3101.75   67.52
  -2  -1   0 3080.20   69.17
  -2  -1   0 3123.96   66.64
   2  -1   0 3090.70   60.98
   2  -1   0 2988.78   67.18
  -2  -1   0 3158.44   68.10
   2  -1   1 1938.67   50.33
   2  -1   1 1908.58   49.83
  -2  -1  -1 1891.79   49.83
   2  -1   1 1866.19   48.39
   2  -1   1 1935.18   38.59
   2  -1   1 1860.87   47.45
  -2  -1  -1 1847.68   47.09
  -2  -1  -1 1828.27   48.72
   2  -1   2  899.74   32.18
   2  -1   2  889.35   32.66
   2  -1   2  887.83   28.42
   2  -1   2  852.96   28.54
  -2  -1  -2  869.73   30.85
   2  -1   2  938.35   31.16
  -2  -1  -2  919.34   31.88
   2  -1   3  379.37   16.84
   2  -1   3  403.12   20.15
   2  -1   3  380.47   18.02
  -2  -1  -3  391.76   21.08
   2  -1   3  409.52   19.56
  -2  -1  -3  426.17   21.61
   2  -1   4   55.21    7.67
  -2  -1  -4   67.53    9.13
   2  -1   4   59.55    6.17
  -2  -1  -4   68.88    8.97
   2  -1   4   60.58    7.03
  -2  -1  -5   10.94    4.44
   2  -1   5    2.11    2.27
   2  -1   5    6.69    2.10
  -2  -1  -5   12.65    4.65
  -2  -1  -5   14.81    5.07
   2  -1   5    8.70    3.03
  -2  -1  -6 2264.35   73.53
   2  -1   6 2244.50   49.63
  -2  -1  -6 2124.15   69.18
   2  -1   6 2135.64   66.64
   2  -1   6 2289.34   57.72
  -2  -1  -6 2189.43   66.60
  -2  -1  -7  229.65   22.35
  -2  -1  -7  218.71   20.60
   2  -1   7  206.65   19.19
  -2  -1  -7  243.30   19.92
  -2  -1  -8  570.45   37.55
   2  -1   8  479.92   31.92
  -2  -1  -8  471.91   29.80
  -2  -1  -9   23.86    8.24
   2  -1   9   14.52    5.81
  -2  -1  -9   41.93    9.33
  -2  -1 -10  389.26   35.07
   2  -1  10  326.28   30.16
  -2  -1 -10  393.60   28.99
   2  -1  11   14.74    8.28
   2   0 -12    4.87    4.74
   2   0 -11   16.28    6.23
  -2   0  11   43.53   11.84
   2   0 -10   81.18   13.64
   2   0 -10   91.93   11.15
  -2   0  10   51.26   12.63
   2   0  -9  622.97   36.52
   2   0  -9  678.17   28.74
  -2   0   9  704.23   27.31
   2   0  -9  673.50   29.58
  -2   0   9  668.44   40.56
   2   0  -8  399.45   27.19
   2   0  -8  413.11   21.04
  -2   0   8  395.54   28.67
  -2   0   8  443.02   20.57
   2   0  -7   18.61    6.06
   2   0  -7   21.89    4.36
  -2   0   7   16.86    3.93
  -2   0   7   23.53    6.74
   2   0  -6 3218.00   83.79
  -2   0   6 3128.53   71.56
   2   0  -6 3241.51   69.29
  -2   0   6 3053.61   84.07
  -2   0   5  755.15   23.31
   2   0  -5  746.71   32.11
  -2   0   5  774.33   33.01
   2   0  -5  834.57   24.41
  -2   0   5  799.16   27.17
  -2   0   4 1936.92   47.25
  -2   0   4 1833.96   52.26
   2   0  -4 1745.60   51.06
  -2   0   4 1830.85   42.22
   2   0  -4 1838.88   52.79
   2   0  -4 1874.56   35.55
  -2   0   3 4382.54   83.76
   2   0  -3 4270.73   93.77
  -2   0   3 4149.45   91.81
   2   0  -3 4343.05   91.86
  -2   0   3 4346.94   83.96
  -2   0   3 4334.51   89.21
   2   0  -3 4379.99   80.62
   2   0  -2 2270.41   47.53
   2   0  -2 2418.04   55.40
  -2   0   2 2332.61   54.66
  -2   0   2 2380.11   55.86
   2   0  -2 2346.35   56.42
   2   0  -2 2367.66   54.47
  -2   0   2 2415.03   55.49
  -2   0   2 2332.99   51.20
   2   0  -2 2287.23   51.17
   2   0  -2 2450.15   50.20
  -2   0   2 2386.22   48.06
   2   0  -1 7485.62  141.33
   2   0  -1 7448.92  134.94
   2   0  -1 7604.32  142.31
  -2   0   1 7521.97  142.74
  -2   0   1 7601.80  140.77
   2   0  -1 7539.87  143.43
   2   0  -1 7695.08  143.25
  -2   0   1 7663.24  135.15
  -2   0   1 7597.85  139.94
   2   0  -1 7531.46  140.28
   2   0   0 6171.47  114.76
  -2   0   0 6081.05  113.85
  -2   0   0 6101.45  120.92
   2   0   0 6200.42  121.04
   2   0   0 6098.44  114.89
   2   0   0 6298.33  118.95
   2   0   0 6374.09  121.03
   2   0   1  349.83   17.61
   2   0   1  342.97   11.99
  -2   0  -1  363.49   12.06
   2   0   1  347.38   17.73
  -2   0  -1  347.25   16.74
   2   0   1  384.08   17.10
   2   0   1  320.08   15.26
   2   0   1  351.03   16.63
  -2   0  -1  352.31   16.60
   2   0   2  910.65   31.97
  -2   0  -2  879.59   30.14
   2   0   2  880.03   20.34
   2   0   2  840.72   31.82
   2   0   2  836.37   28.70
   2   0   2  821.59   25.39
   2   0   3  234.69   15.49
   2   0   3  208.22    7.50
  -2   0  -3  220.09   14.62
   2   0   3  206.90   12.55
   2   0   3  203.14   13.28
   2   0   4  624.77   20.30
   2   0   4  638.74   16.68
   2   0   4  620.79   25.66
   2   0   4  590.71   24.75
  -2   0  -4  608.26   26.89
  -2   0  -5  561.09   30.75
   2   0   5  562.87   26.80
  -2   0  -5  618.56   28.45
   2   0   5  597.71   18.50
   2   0   5  579.45   17.10
   2   0   5  537.37   24.36
   2   0   6  119.32    7.44
  -2   0  -6  127.31   15.65
  -2   0  -6  120.51   12.67
   2   0   6  129.50    6.12
   2   0   6  125.70   13.28
  -2   0  -7 1010.07   48.49
   2   0   7  974.12   42.89
  -2   0  -7 1001.16   41.28
  -2   0  -8   18.66    7.47
   2   0   8    6.67    3.59
  -2   0  -8   18.52    6.16
   2   0   9   64.83   12.27
  -2   0  -9   63.57   10.43
  -2   0 -10   13.68    7.34
   2   0  10    2.77    5.41
   2   0  11    3.43    5.21
   2   1 -12   61.04   13.17
   2   1 -11   45.09   10.80
  -2   1  11   39.20   11.08
   2   1 -10   82.49   13.62
  -2   1  10   70.67   13.86
   2   1  -9  111.11   15.11
  -2   1   9  104.48   15.76
   2   1  -8   61.82    6.82
   2   1  -8   62.25   10.59
   2   1  -8   76.96    8.09
  -2   1   8   71.73   12.18
   2   1  -7  641.34   33.26
   2   1  -7  761.65   24.81
  -2   1   7  630.44   34.67
   2   1  -6   39.88    7.67
   2   1  -6   27.78    3.86
  -2   1   6   20.22    6.09
   2   1  -5  339.78   20.91
   2   1  -5  373.78   12.43
  -2   1   5  334.71   21.38
   2   1  -4  318.95   18.66
  -2   1   4  311.19   18.82
   2   1  -4  309.10    8.85
   2   1  -4  317.32   17.76
  -2   1   4  285.52   14.31
   2   1  -3 2006.01   52.96
   2   1  -3 2008.34   47.65
   2   1  -3 1945.19   44.69
   2   1  -3 1963.15   49.27
  -2   1   3 1935.30   46.76
   2   1  -3 1953.13   41.72
  -2   1   3 1962.49   41.99
  -2   1   2 5602.29  109.33
   2   1  -2 5443.47  103.74
   2   1  -2 5273.04  109.24
  -2   1   2 5301.04  104.78
   2   1  -2 5548.94  107.09
   2   1  -2 5411.27   95.37
   2   1  -2 5343.23  104.05
   2   1  -2 5388.78  101.20
  -2   1   2 5420.28  105.64
  -2   1   2 5451.61  102.29
  -2   1   2 5349.58  108.21
   2   1  -2 5416.38  104.15
  -2   1   1  909.33   26.80
   2   1  -1  840.78   27.07
   2   1  -1  885.03   25.84
   2   1  -1  892.77   23.02
  -2   1   1  844.69   26.02
   2   1  -1  893.60   25.68
  -2   1   1  887.74   27.13
  -2   1   1  912.84   26.53
   2   1  -1  873.88   22.81
   2   1  -1  873.09   27.88
   2   1  -1  912.94   27.21
   2   1   0 3153.26   68.91
  -2   1   0 3098.27   62.37
  -2   1   0 3080.32   69.47
   2   1   0 2945.47   66.18
  -2   1   0 3142.97   67.44
   2   1   0 3139.71   65.22
  -2   1   0 3126.76   67.98
  -2   1   0 3155.03   68.77
   2   1   0 3103.22   65.12
   2   1   0 3041.18   68.83
   2   1   1 1911.04   50.25
   2   1   1 1817.66   42.56
   2   1   1 1860.19   47.52
   2   1   1 1901.47   48.44
   2   1   1 1928.71   50.16
  -2   1  -1 1873.85   47.98
   2   1   1 1940.75   49.08
  -2   1  -1 1914.22   37.92
  -2   1  -1 1910.98   47.78
   2   1   2  885.80   30.57
   2   1   2  869.18   24.33
   2   1   2  930.68   33.24
   2   1   2  860.68   31.56
   2   1   2  874.74   31.63
   2   1   2  893.75   23.81
  -2   1  -2  864.79   28.51
   2   1   3  433.50   20.88
   2   1   3  391.19   21.82
   2   1   3  424.75   17.25
  -2   1  -3  402.84   19.85
   2   1   4   66.91    9.67
   2   1   4   57.44    6.96
  -2   1  -4   72.45    8.51
  -2   1  -5    6.34    2.81
   2   1   5    6.73    3.29
   2   1   5    5.21    1.41
   2   1   5    4.78    2.26
  -2   1  -5    9.78    4.87
   2   1   6 2229.62   53.68
  -2   1  -6 2324.34   73.61
   2   1   6 2095.15   63.05
  -2   1  -6 2124.88   61.88
  -2   1  -7  228.90   22.32
   2   1   7  223.96   19.01
  -2   1  -7  210.93   17.18
  -2   1  -8  479.88   34.65
  -2   1  -8  527.13   28.93
   2   1   8  480.49   30.65
   2   1   9   20.11    8.52
  -2   1  -9   30.12    9.47
  -2   1  -9   14.40    5.29
   2   1   9   19.97    7.57
  -2   1 -10  392.24   35.14
   2   1  10  396.65   35.98
   2   1  10  366.09   30.66
   2   1  11   12.92    6.53
   2   2 -12   38.21   10.19
   2   2 -11   97.72   15.69
  -2   2  11   72.62   15.26
   2   2 -10  230.60   22.37
  -2   2  10  172.61   21.75
   2   2  -9   54.67   10.95
  -2   2   9   56.99   11.44
   2   2  -8  494.99   15.25
   2   2  -8  446.34   28.80
  -2   2   8  434.89   31.18
   2   2  -7  450.93   14.58
  -2   2   7  446.27   29.19
   2   2  -7  426.08   26.72
   2   2  -6  559.13   29.17
  -2   2   6  562.49   30.88
  -2   2   6  587.09   14.83
   2   2  -6  603.28   15.07
   2   2  -5  411.45   23.18
  -2   2   5  406.33   24.20
  -2   2   5  412.86   13.34
   2   2  -5  421.64   13.65
   2   2  -4 1218.12   40.73
   2   2  -4 1146.29   32.49
   2   2  -4 1136.09   37.59
  -2   2   4 1171.93   29.02
   2   2  -4 1233.25   29.00
   2   2  -3  415.22   17.50
  -2   2   3  423.18   12.21
   2   2  -3  410.39   18.23
   2   2  -3  441.92   13.27
   2   2  -3  441.94   21.42
  -2   2   3  402.19   18.65
  -2   2   3  419.58   15.74
   2   2  -3  455.62   15.82
  -2   2   2  146.84   11.10
   2   2  -2  131.45    9.74
  -2   2   2  134.65    8.28
   2   2  -2  147.75    9.09
   2   2  -2  140.11   10.90
   2   2  -2  135.40    7.82
   2   2  -2  143.82    8.66
  -2   2   2  125.64    9.83
   2   2  -2  144.21   10.00
  -2   2   2  142.39    9.07
   2   2  -1  535.53   20.32
  -2   2   1  514.90   19.93
   2   2  -1  521.37   21.04
   2   2  -1  484.52   20.09
   2   2  -1  543.66   21.35
  -2   2   1  518.16   18.10
   2   2  -1  495.95   16.53
   2   2  -1  539.91   14.86
  -2   2   1  526.78   20.96
  -2   2   1  530.88   20.11
   2   2   0 1031.77   32.42
  -2   2   0 1023.08   27.87
   2   2   0  988.70   30.49
  -2   2   0  991.25   31.47
   2   2   0 1016.52   31.69
   2   2   0 1112.81   33.43
   2   2   0 1034.73   29.62
   2   2   0 1015.83   32.52
  -2   2   0 1020.93   31.74
  -2   2   0  983.70   31.35
  -2   2   0 1009.39   31.94
   2   2   1  458.80   18.56
   2   2   1  506.62   21.72
   2   2   1  457.06   21.27
   2   2   1  479.44   20.59
  -2   2  -1  474.51   20.57
  -2   2  -1  463.57   20.16
  -2   2  -1  447.61   19.43
  -2   2  -1  447.46   20.46
  -2   2  -1  463.58   14.35
   2   2   1  478.57   21.37
   2   2   1  507.47   21.55
  -2   2  -2  203.20   14.20
   2   2   2  207.12   14.19
   2   2   2  199.50   14.10
   2   2   2  206.24   14.76
   2   2   2  202.76    8.38
  -2   2  -2  182.84   12.78
  -2   2  -2  211.41   12.57
  -2   2  -2  207.85   14.00
  -2   2  -3 1932.58   55.19
  -2   2  -3 1948.86   48.03
   2   2   3 1817.39   55.59
   2   2   3 1805.12   43.04
  -2   2  -3 1717.68   51.22
  -2   2  -4  663.49   31.43
   2   2   4  707.18   33.21
   2   2   4  649.95   24.55
   2   2   5  856.18   21.57
  -2   2  -5  842.62   38.54
   2   2   5  793.72   38.76
   2   2   5  837.47   31.55
   2   2   5  822.41   29.80
   2   2   6  585.24   25.40
  -2   2  -6  512.81   31.67
   2   2   6  562.21   27.51
   2   2   6  550.15   33.51
   2   2   7    9.20    5.56
  -2   2  -7   18.05    6.37
   2   2   7   14.48    5.19
   2   2   8   52.93   11.98
   2   2   8   45.62    9.06
  -2   2  -8   52.80   11.75
   2   2   9   87.21   15.87
  -2   2  -9   69.04   14.08
   2   2   9   51.76   10.79
   2   2  10  160.69   22.74
  -2   2 -10   98.95   17.91
   2   2  10  114.21   16.65
  -2   3  12   43.56   11.21
   2   3 -11  248.90   24.58
  -2   3  11  257.87   28.33
  -2   3  11  189.61   21.41
  -2   3  10  120.13   15.56
   2   3 -10  136.10   17.45
  -2   3  10  132.88   19.25
   2   3  -9  407.67   29.18
  -2   3   9  406.48   31.96
   2   3  -8 1460.02   56.29
  -2   3   8 1444.09   60.09
  -2   3   7  188.37   18.94
   2   3  -7  174.29   17.06
   2   3  -7  196.91    9.35
  -2   3   7  176.81    8.79
   2   3  -6  378.04   24.01
  -2   3   6  391.54   19.97
   2   3  -6  386.88   15.02
  -2   3   6  408.51   15.14
   2   3  -5  744.97   33.10
   2   3  -5  751.83   23.91
  -2   3   5  763.94   26.24
   2   3  -5  784.86   17.74
  -2   3   5  747.06   23.41
   2   3  -4  179.28   10.85
   2   3  -4  180.80   14.56
  -2   3   4  182.29    9.84
   2   3  -4  197.32   13.95
  -2   3   4  173.26   10.35
   2   3  -4  181.83    8.46
   2   3  -3 2043.73   45.39
   2   3  -3 1915.20   53.40
   2   3  -3 2043.25   55.87
  -2   3   3 2026.03   40.66
  -2   3   3 1997.16   43.60
   2   3  -3 2016.16   41.43
   2   3  -3 2035.74   50.50
  -2   3   3 1961.10   48.25
   2   3  -3 2010.94   49.37
   2   3  -2 1428.27   38.56
   2   3  -2 1379.05   42.56
   2   3  -2 1556.02   44.77
  -2   3   2 1569.84   34.21
  -2   3   2 1629.30   45.43
  -2   3   2 1461.69   43.08
   2   3  -2 1493.91   41.12
   2   3  -2 1502.12   36.95
  -2   3   2 1470.93   40.26
  -2   3   1  896.70   29.92
   2   3  -1  926.24   29.82
   2   3  -1  928.17   31.96
   2   3  -1  895.22   31.40
   2   3  -1  954.21   31.12
  -2   3   1  855.70   30.67
  -2   3   1  879.38   29.64
  -2   3   0 1312.20   35.58
   2   3   0 1358.14   40.21
   2   3   0 1296.92   40.23
  -2   3   0 1338.56   37.46
   2   3   0 1284.31   37.24
   2   3   0 1290.26   38.67
   2   3   0 1291.13   40.78
  -2   3   0 1245.68   38.68
  -2   3   0 1302.92   39.14
  -2   3  -1  867.08   24.55
   2   3   1  828.66   29.33
  -2   3  -1  910.17   29.94
   2   3   1  890.27   30.49
   2   3   1  842.45   32.39
   2   3   1  856.78   31.77
   2   3   1  825.02   30.18
  -2   3  -1  787.80   29.46
  -2   3  -1  864.73   29.57
  -2   3  -1  806.78   30.11
  -2   3  -2 1091.89   25.68
   2   3   2 1022.70   38.46
   2   3   2 1048.62   36.52
  -2   3  -2 1149.92   37.27
   2   3   2 1100.25   37.79
  -2   3  -2 1068.50   35.54
  -2   3  -2 1042.80   36.56
  -2   3  -2 1098.02   33.72
   2   3   2 1093.21   36.48
  -2   3  -3  178.57   11.91
   2   3   3  200.48   11.88
   2   3   3  182.68   15.85
   2   3   3  201.11   10.26
  -2   3  -3  192.09   14.94
  -2   3  -3  177.85   13.35
  -2   3  -3  195.05   14.90
   2   3   4   88.21    7.29
  -2   3  -4   76.36   10.36
   2   3   4   65.26   10.21
  -2   3  -4   66.73    9.01
   2   3   4   74.30    7.38
  -2   3  -4   74.18    7.47
   2   3   5  948.82   25.76
   2   3   5  982.90   43.82
   2   3   5  957.96   33.71
  -2   3  -5  994.30   41.84
  -2   3  -6  414.73   27.73
   2   3   6  352.06   26.98
   2   3   6  359.17   21.41
   2   3   7   77.15   13.17
  -2   3  -7   97.10   14.51
   2   3   7   74.47   10.57
   2   3   8  161.33   20.69
  -2   3  -8  138.93   18.30
   2   3   8  160.15   16.92
   2   3   9   52.14   12.46
  -2   3  -9   24.95    8.65
   2   3   9   32.36    8.27
  -2   3 -10   45.50   12.70
  -2   4  11   67.60   12.71
   2   4 -11   77.67   13.99
  -2   4  10   97.64   14.07
   2   4 -10   90.72   14.24
  -2   4   9   37.17    8.52
   2   4  -9   40.93    9.23
  -2   4   8   26.10    6.49
   2   4  -8   33.23    8.01
   2   4  -7 1276.12   50.57
  -2   4   7 1246.53   43.84
   2   4  -7 1325.81   35.90
  -2   4   7 1261.49   35.48
   2   4  -6  347.18   23.42
  -2   4   6  320.49   18.32
  -2   4   6  318.48   15.70
   2   4  -5  231.21   18.08
  -2   4   5  247.10   14.22
   2   4  -5  255.61   12.91
  -2   4   5  232.99   13.73
   2   4  -4  625.07   29.14
  -2   4   4  569.55   22.88
   2   4  -4  586.15   13.83
   2   4  -4  574.73   21.92
  -2   4   4  573.31   20.17
   2   4  -3  670.38   29.35
  -2   4   3  642.91   19.38
   2   4  -3  690.84   29.90
  -2   4   3  662.77   16.64
   2   4  -3  644.85   21.82
   2   4  -3  649.13   24.53
  -2   4   3  661.40   25.39
   2   4  -2 2847.28   64.71
  -2   4   2 2858.43   55.88
   2   4  -2 2843.53   71.95
   2   4  -2 2939.09   72.53
  -2   4   2 2769.28   70.90
  -2   4   2 2840.46   67.79
   2   4  -2 2822.06   67.41
  -2   4   1  838.18   30.51
   2   4  -1  825.16   29.35
   2   4  -1  828.79   32.10
   2   4  -1  813.91   31.48
  -2   4   1  777.34   26.78
  -2   4   1  750.14   30.23
  -2   4   1  762.73   29.29
  -2   4   0   93.58    8.21
   2   4   0   74.79    8.70
  -2   4   0   78.01    7.93
   2   4   0   78.39    9.06
   2   4   0   84.80    9.90
  -2   4   0   74.77    8.63
  -2   4   0   90.42    9.57
   2   4   0   76.73    7.61
  -2   4  -1  478.42   20.50
   2   4   1  442.96   24.02
   2   4   1  478.39   22.34
   2   4   1  481.66   23.54
   2   4   1  431.55   19.96
  -2   4  -1  458.24   22.21
   2   4   1  444.76   20.63
  -2   4  -1  454.38   18.66
  -2   4  -1  425.49   22.19
   2   4   2 1230.42   39.13
   2   4   2 1238.46   38.52
   2   4   2 1254.10   40.05
   2   4   2 1121.61   43.01
  -2   4  -2 1204.31   37.49
  -2   4  -2 1183.72   39.40
  -2   4  -2 1172.15   40.84
  -2   4  -3   82.84    8.29
  -2   4  -3   87.11    5.71
  -2   4  -3   77.89    9.54
   2   4   3   89.84    8.72
   2   4   3   79.37   10.92
  -2   4  -3   95.68   10.16
  -2   4  -3   56.55    8.68
   2   4   4   71.54   11.31
  -2   4  -4   82.04    4.68
  -2   4  -4   70.99    9.94
   2   4   4   83.62    7.98
  -2   4  -4   92.33    8.46
  -2   4  -4   80.88   10.48
   2   4   5  106.26   10.30
  -2   4  -5  138.56   14.94
   2   4   5  112.69    8.58
  -2   4  -5  133.15   13.90
   2   4   5  132.32   15.93
  -2   4  -5  129.54    9.71
  -2   4  -6   51.26    9.84
   2   4   6   37.25    6.82
  -2   4  -6   43.68    8.25
   2   4   6   37.55    9.67
  -2   4  -7   15.21    6.88
   2   4   7   10.96    4.66
   2   4   7   11.73    6.10
  -2   4  -8   39.97   10.09
   2   4   8   35.34    9.94
   2   4   8   27.28    7.18
  -2   4  -9   72.06   14.02
   2   4   9   74.27   15.18
  -2   4 -10    9.24    6.16
   2   5 -11   67.87   13.29
   2   5 -10   14.78    6.16
  -2   5  10   27.57    7.90
  -2   5   9   75.61   11.72
   2   5  -9  101.54   14.74
   2   5  -8  164.54   18.38
  -2   5   8  164.74   15.83
   2   5  -7 1396.29   54.73
   2   5  -7 1412.45   42.15
  -2   5   7 1382.57   47.30
  -2   5   7 1413.64   41.94
  -2   5   6  737.87   30.29
   2   5  -6  849.64   39.11
   2   5  -6  791.86   23.97
  -2   5   6  783.33   29.79
   2   5  -5   21.71    5.89
   2   5  -5    8.83    2.70
  -2   5   5   19.97    4.33
  -2   5   5   23.19    4.97
   2   5  -4  534.11   28.52
  -2   5   4  577.02   21.60
   2   5  -4  556.70   22.72
  -2   5   4  524.80   24.12
   2   5  -3  594.81   29.42
  -2   5   3  614.99   20.86
   2   5  -3  600.56   29.36
   2   5  -3  612.94   25.13
  -2   5   3  584.03   26.08
   2   5  -2  839.17   35.26
   2   5  -2  811.97   34.32
  -2   5   2  852.86   24.83
  -2   5   2  841.80   34.51
  -2   5   2  849.51   32.74
  -2   5   1 1887.10   47.71
   2   5  -1 1830.58   57.00
  -2   5   1 1884.78   54.56
   2   5  -1 1936.65   56.84
  -2   5   1 1830.82   55.02
  -2   5   0  539.02   21.43
   2   5   0  545.97   28.09
   2   5   0  582.83   27.87
   2   5   0  544.00   21.66
  -2   5   0  527.20   25.75
  -2   5   0  582.22   27.24
  -2   5  -1 3524.48   76.10
   2   5   1 3301.77   76.33
   2   5   1 3339.29   87.84
  -2   5  -1 3374.81   82.74
  -2   5  -1 3410.82   84.69
   2   5   2  333.15   18.45
   2   5   2  319.25   18.37
   2   5   2  327.70   22.88
  -2   5  -2  352.27   20.44
  -2   5  -2  347.10   21.51
  -2   5  -3 1399.46   36.16
  -2   5  -3 1394.40   45.07
   2   5   3 1319.66   51.64
  -2   5  -3 1361.11   44.95
  -2   5  -3 1343.17   48.16
  -2   5  -4  294.72   12.70
  -2   5  -4  275.27   15.68
  -2   5  -4  299.22   20.35
   2   5   4  299.96   23.57
   2   5   4  278.36   16.61
  -2   5  -4  267.48   18.36
  -2   5  -4  203.37   17.67
  -2   5  -5  226.75   10.17
  -2   5  -5  232.45   13.68
  -2   5  -5  239.33   19.59
   2   5   5  223.23   21.32
  -2   5  -5  242.69   19.59
  -2   5  -6  209.12   19.63
  -2   5  -6  184.79   17.67
   2   5   6  150.33   18.61
  -2   5  -7   18.23    6.72
  -2   5  -7   36.23    8.67
   2   5   7   43.11   10.68
  -2   5  -8   76.06   13.93
   2   5   8   90.89   16.13
  -2   5  -9  121.39   18.39
   2   5   9  106.27   18.53
   2   6 -10   69.40   13.71
   2   6  -9  127.29   17.26
  -2   6   9  157.99   17.06
   2   6  -8  309.10   25.72
  -2   6   8  301.54   22.26
   2   6  -7  156.05   17.35
  -2   6   7  151.49   13.22
  -2   6   7  168.87   15.11
   2   6  -7  137.04   12.67
   2   6  -6   58.27   10.72
  -2   6   6   58.00    8.30
  -2   6   6   40.70    7.11
   2   6  -5   48.58    9.38
   2   6  -5   70.61    7.58
   2   6  -5   65.15    3.48
  -2   6   5   57.64    7.52
  -2   6   5   54.43    8.17
   2   6  -4  574.96   30.97
  -2   6   4  567.44   23.33
  -2   6   4  527.57   26.44
   2   6  -4  556.82   24.29
   2   6  -3  392.96   25.37
  -2   6   3  385.70   17.71
   2   6  -3  390.55   24.57
  -2   6   3  403.36   23.06
  -2   6   2  245.63   13.48
   2   6  -2  266.89   19.82
   2   6  -2  192.15   17.18
  -2   6   2  210.25   16.68
  -2   6   1   35.65    5.09
   2   6  -1   39.06    7.45
   2   6  -1   36.38    5.02
   2   6  -1   35.45    7.47
  -2   6   1   31.18    7.03
  -2   6   1   27.84    6.40
  -2   6   0   33.65    5.00
   2   6   0   23.61    4.25
   2   6   0   33.48    7.47
  -2   6   0   33.98    7.11
  -2   6   0   26.14    6.67
  -2   6  -1  188.59   12.11
   2   6   1  189.61   17.82
   2   6   1  176.76   12.12
  -2   6  -1  154.02   14.16
  -2   6  -1  178.24   15.91
   2   6   2  165.91   12.71
   2   6   2  177.37   13.36
   2   6   2  160.33   16.58
  -2   6  -2  163.61   14.54
  -2   6  -2  207.37   17.64
   2   6   3  405.12   27.91
  -2   6  -3  400.53   23.22
  -2   6  -3  433.18   26.42
  -2   6  -4  178.64   15.46
   2   6   4  156.43   17.87
  -2   6  -4  146.06   10.31
  -2   6  -4  159.26   14.45
  -2   6  -4  112.93   13.81
  -2   6  -5   49.25    9.55
   2   6   5   39.24    9.90
  -2   6  -5   51.00    9.06
  -2   6  -6  387.77   27.01
   2   6   6  427.58   32.58
  -2   6  -6  368.28   26.52
  -2   6  -7   40.02    9.53
   2   6   7   48.71   11.52
  -2   6  -7   52.85   10.32
   2   6   8   43.98   12.04
  -2   6  -8   50.08   11.41
  -2   6  -9   -5.73    5.23
   2   7 -10    6.42    5.00
   2   7  -9  157.60   19.64
   2   7  -8   88.92   14.50
  -2   7   8   92.26   12.55
   2   7  -7  168.67   19.09
  -2   7   7  208.72   17.62
   2   7  -7  185.98   16.17
  -2   7   7  219.92   17.58
   2   7  -6  205.01   20.40
  -2   7   6  225.20   17.12
  -2   7   6  167.16   15.47
   2   7  -5  217.31   20.07
  -2   7   5  200.29   15.14
  -2   7   5  209.18   17.56
  -2   7   4  108.35   10.56
   2   7  -4  132.02   15.40
  -2   7   4  150.61   14.59
   2   7  -3  858.80   40.63
  -2   7   3  805.62   30.03
   2   7  -3  882.80   40.41
  -2   7   3  821.67   36.52
  -2   7   2  557.35   23.74
  -2   7   2  537.95   21.08
   2   7  -2  543.48   30.96
   2   7  -2  445.11   28.70
  -2   7   2  518.49   28.74
   2   7  -1  460.62   28.54
  -2   7   1  455.97   18.04
   2   7  -1  455.09   27.99
   2   7  -1  422.13   17.22
  -2   7   1  435.70   26.58
  -2   7   1  427.71   26.34
   2   7   0  453.90   28.70
  -2   7   0  439.34   26.90
   2   7   0  423.60   17.67
  -2   7   0  404.11   25.50
  -2   7   0  439.66   17.81
   2   7   1  300.66   24.00
   2   7   1  275.63   15.17
  -2   7  -1  301.70   21.07
  -2   7  -1  267.46   21.10
   2   7   2   73.14   12.02
  -2   7  -2   52.91    8.80
  -2   7  -2   67.39   10.73
   2   7   3  223.84   21.59
  -2   7  -3  223.88   18.09
  -2   7  -3  241.86   20.73
  -2   7  -3  225.57   16.67
  -2   7  -4  176.45   13.02
   2   7   4  203.38   21.14
  -2   7  -4  175.88   15.92
  -2   7  -4  200.17   19.20
  -2   7  -5  697.88   33.92
   2   7   5  690.68   41.77
  -2   7  -5  639.43   32.16
  -2   7  -5  598.34   35.60
  -2   7  -6   99.17   14.24
  -2   7  -6  123.11   14.94
   2   7   6  129.01   18.37
  -2   7  -7  118.90   16.00
   2   7   7   92.32   16.65
  -2   7  -7   99.41   14.72
  -2   7  -8  266.22   25.34
  -2   7  -8  229.80   22.94
   2   7   8  207.22   26.12
  -2   7  -9  285.64   28.39
   2   8  -9   27.22    8.50
   2   8  -8  213.25   23.15
   2   8  -7  191.52   21.16
   2   8  -7  193.44   17.76
  -2   8   7  151.84   15.99
  -2   8   6  308.67   21.21
  -2   8   6  307.32   23.04
   2   8  -6  274.11   24.58
   2   8  -5   29.80    8.70
  -2   8   5   17.46    5.02
  -2   8   5   19.73    6.07
   2   8  -4   13.15    5.33
  -2   8   4   20.61    5.05
  -2   8   4    9.00    4.20
   2   8  -3  467.78   30.96
  -2   8   3  437.54   27.75
   2   8  -3  485.03   31.14
  -2   8   3  415.87   22.37
  -2   8   2   83.73    7.11
  -2   8   2   61.06   10.40
   2   8  -2   62.45   10.95
  -2   8   2   78.23    9.38
   2   8  -2   60.83   11.20
   2   8  -1  271.71   23.54
  -2   8   1  266.97   12.28
   2   8  -1  287.11   23.44
  -2   8   1  253.27   21.58
  -2   8   1  296.53   23.30
  -2   8   0   27.67    7.75
   2   8   0   28.92    7.60
  -2   8   0   46.00    9.24
   2   8   1  717.80   39.79
  -2   8  -1  768.31   36.81
  -2   8  -1  707.75   37.59
   2   8   2  213.89   21.46
  -2   8  -2  206.07   18.44
  -2   8  -2  188.25   19.06
  -2   8  -3   59.96    9.84
  -2   8  -3   66.73   11.56
  -2   8  -4   85.20   13.37
  -2   8  -4   76.35    9.39
  -2   8  -4   67.45   10.32
   2   8   4   89.96   14.93
  -2   8  -4   97.43   10.84
  -2   8  -5  116.18   13.74
   2   8   5  119.99   18.04
  -2   8  -5  122.36   16.33
  -2   8  -6   47.72   10.61
   2   8   6   16.24    7.53
  -2   8  -7    0.49    4.77
   2   8   7   -0.02    4.08
  -2   8  -8   68.32   13.06
   2   9  -9    8.14    6.33
   2   9  -8  109.78   17.30
   2   9  -7   18.34    7.63
   2   9  -7   25.12    7.50
  -2   9   7   37.37    8.85
   2   9  -6   23.35    7.94
  -2   9   6   15.94    5.89
  -2   9   5  192.45   19.37
   2   9  -5  211.45   22.27
  -2   9   4  491.52   26.62
   2   9  -4  525.31   34.90
  -2   9   4  499.15   31.76
   2   9  -3  170.74   19.84
  -2   9   3  204.97   16.34
  -2   9   3  168.25   18.29
   2   9  -3  193.38   20.40
   2   9  -2   60.17   11.80
  -2   9   2   40.45    7.52
   2   9  -2   40.94   10.14
  -2   9   2   57.02   10.90
  -2   9   2   38.92    9.02
  -2   9   1  123.57   16.14
   2   9  -1  118.54   16.19
   2   9  -1  119.02   16.41
  -2   9   1  148.41   17.30
   2   9   0    7.93    5.30
  -2   9   0    1.52    4.73
  -2   9   0   13.59    5.70
   2   9   1  304.01   26.63
  -2   9  -1  302.54   24.21
  -2   9  -1  312.75   25.90
  -2   9  -2   61.30   11.91
   2   9   2   58.87   12.17
  -2   9  -2   84.70   12.29
   2   9   3  192.91   22.23
  -2   9  -3  207.00   17.76
  -2   9  -3  210.57   19.30
  -2   9  -3  202.43   21.30
  -2   9  -4   33.47    8.03
   2   9   4   16.14    6.52
  -2   9  -4   26.18    8.23
  -2   9  -5   29.23    7.44
   2   9   5   31.24   10.02
  -2   9  -5   37.41    9.83
   2   9   6  200.61   25.06
  -2   9  -6  183.11   21.34
  -2   9  -7  158.90   20.34
   2  10  -8   21.67    8.61
   2  10  -7   49.04   12.04
  -2  10   7   29.20    8.41
   2  10  -6   75.28   13.30
   2  10  -6   94.44   15.90
  -2  10   6   91.27   14.49
   2  10  -5  173.00   21.03
  -2  10   5  142.10   18.04
   2  10  -4   39.10   10.59
  -2  10   4   33.47    9.28
   2  10  -3   76.96   14.03
   2  10  -3   70.44   13.82
  -2  10   3   71.99   13.17
   2  10  -2  180.62   21.56
   2  10  -2  136.85   18.22
  -2  10   2  122.39   17.03
  -2  10   2  161.30   18.87
   2  10  -1  259.19   25.64
   2  10  -1  274.50   26.12
  -2  10   1  239.81   23.43
  -2  10   1  237.61   22.91
   2  10   0   77.14   13.86
   2  10   0   81.36   14.47
  -2  10   0   88.08   13.92
  -2  10   0   56.78   11.90
   2  10   1  349.44   30.17
  -2  10  -1  350.87   27.17
  -2  10  -1  319.70   27.99
  -2  10  -2  146.79   19.02
   2  10   2  117.48   17.88
  -2  10  -2  139.16   16.97
  -2  10  -3  148.06   19.44
  -2  10  -3  151.68   17.35
   2  10   3  152.24   20.69
   2  10   4   21.89    8.70
  -2  10  -4    4.96    3.90
  -2  10  -4   12.63    6.58
   2  10   5  169.47   23.23
  -2  10  -5  207.21   23.30
  -2  11   6   37.30    9.56
   2  11  -6   32.02    9.03
  -2  11   5   32.70    9.18
   2  11  -5   25.54    9.53
   2  11  -4   30.57    9.43
  -2  11   4   27.86    8.82
  -2  11   3    8.82    5.93
   2  11  -3   11.54    6.41
  -2  11   3   18.39    7.76
   2  11  -2   82.08   15.07
   2  11  -2   89.32   16.13
  -2  11   2   94.78   16.14
  -2  11   2   78.27   14.19
  -2  11   1   47.98   11.34
   2  11  -1   63.09   13.21
   2  11  -1   47.18   11.66
  -2  11   1   62.04   12.55
   2  11   0   33.61    9.85
   2  11   0   18.89    8.31
  -2  11   0   28.37    8.51
  -2  11   0   24.83    8.36
   2  11   1   83.59   15.27
  -2  11  -1  111.26   16.29
  -2  11  -1  106.97   16.78
   2  11   2   10.56    7.98
  -2  11  -2   -1.66    4.35
  -2  11  -2   -2.08    5.56
   2  11   3  155.23   21.97
  -2  11  -3  136.78   17.37
  -2  12   1  186.83   22.96
  -2  12   0  103.66   16.53
  -2  12  -1   37.10   10.15
  -2  12  -2    6.14    4.94
  -3 -11   5    4.69    4.38
  -3 -11   4   73.58   13.94
   3 -11  -3   91.76   16.92
  -3 -11   3   54.01   11.70
  -3 -11   2  -12.33    6.01
  -3 -11   0  117.56   16.98
  -3 -11  -1   56.49   12.05
  -3 -11  -1   69.29   14.05
  -3 -11  -2   25.46    8.36
  -3 -11  -2   40.43   10.68
  -3 -11  -3  106.39   17.45
   3 -10  -7   91.93   15.76
   3 -10  -6   72.22   14.09
  -3 -10   5  203.53   23.47
   3 -10  -5  239.41   26.23
   3 -10  -4   61.82   12.83
  -3 -10   4   92.75   15.37
   3 -10  -3    6.57    5.35
  -3 -10   3    7.81    5.45
  -3 -10   2  103.11   15.03
   3 -10  -2  119.31   18.20
  -3 -10   1   33.39    8.25
   3 -10  -1   39.59   11.28
  -3 -10   1   47.14   10.27
   3 -10   0  112.96   17.97
  -3 -10   0  102.03   15.04
  -3 -10   0  109.73   15.16
  -3 -10   0  111.22   15.10
   3 -10   1   77.80   15.30
  -3 -10  -1   91.99   15.10
  -3 -10  -1   88.51   13.37
  -3 -10  -1   85.61   13.94
  -3 -10  -2   94.44   15.90
  -3 -10  -2   60.60   12.70
   3 -10   2   90.46   15.83
   3 -10   3   74.51   14.84
  -3 -10  -3   61.82   13.73
  -3 -10  -3   71.79   13.72
  -3 -10  -4   81.93   15.83
   3 -10   4   80.53   15.69
  -3  -9   8  131.72   19.01
   3  -9  -7   66.48   12.77
  -3  -9   7   55.32   11.80
   3  -9  -6   29.01    8.99
  -3  -9   6   30.76    8.48
   3  -9  -5  120.18   16.94
  -3  -9   5   98.67   15.70
  -3  -9   5  101.52   13.42
  -3  -9   4  278.82   25.55
   3  -9  -4  298.58   27.07
   3  -9  -3   50.99   11.55
  -3  -9   3   57.23   11.49
  -3  -9   2  235.33   19.65
  -3  -9   2  224.50   21.67
  -3  -9   2  235.77   18.73
   3  -9  -2  243.04   24.44
  -3  -9   1  198.90   19.25
  -3  -9   1  172.58   18.56
  -3  -9   1  179.95   17.35
   3  -9  -1  179.72   20.96
  -3  -9   0  218.95   21.24
  -3  -9   0  235.94   21.44
  -3  -9   0  238.32   20.99
   3  -9   0  255.62   25.30
  -3  -9  -1   74.73   12.81
   3  -9   1  114.59   17.51
  -3  -9  -1   81.52   12.51
  -3  -9  -1   81.50   12.81
   3  -9   2   62.09   13.00
  -3  -9  -2   53.67   12.02
  -3  -9  -2   42.89    9.13
  -3  -9  -2   39.17    9.29
   3  -9   3   41.65   11.10
  -3  -9  -3   16.83    7.12
  -3  -9  -3   20.45    7.07
  -3  -9  -4   12.37    6.77
  -3  -9  -4   12.35    5.79
   3  -9   4    3.10    2.93
  -3  -9  -5  121.61   19.01
   3  -9   5  131.85   19.23
   3  -9   6   26.07    9.37
   3  -8  -9  514.17   40.33
  -3  -8   9  518.57   39.44
  -3  -8   8   14.69    6.43
   3  -8  -7    1.16    2.86
  -3  -8   7    5.02    4.11
   3  -8  -6    7.15    5.06
  -3  -8   6    4.87    3.47
  -3  -8   5  262.41   21.02
   3  -8  -5  205.46   21.23
  -3  -8   4  409.42   29.85
  -3  -8   4  390.98   23.94
   3  -8  -4  342.63   27.90
  -3  -8   3  445.01   22.37
  -3  -8   3  480.07   31.57
  -3  -8   3  418.72   21.91
  -3  -8   3  409.40   22.61
   3  -8  -3  459.95   32.15
  -3  -8   3  426.22   23.88
  -3  -8   2   35.79    7.49
  -3  -8   2   33.50    5.99
   3  -8  -2   44.97   10.23
  -3  -8   2   17.66    6.01
  -3  -8   2   41.31    7.29
  -3  -8   1  371.45   19.21
  -3  -8   1  356.32   26.12
  -3  -8   1  363.02   23.29
   3  -8  -1  379.93   29.27
  -3  -8   1  351.92   24.41
  -3  -8   0  525.27   31.56
  -3  -8   0  535.10   23.66
  -3  -8   0  463.18   29.75
  -3  -8   0  450.38   27.83
   3  -8   0  495.68   33.61
  -3  -8  -1  658.32   37.94
  -3  -8  -1  744.01   37.60
  -3  -8  -1  679.19   36.20
   3  -8   1  675.77   40.09
  -3  -8  -2  135.28   17.44
   3  -8   2  139.26   17.96
  -3  -8  -2  159.79   17.10
  -3  -8  -2  147.57   17.02
  -3  -8  -3   69.12   13.43
   3  -8   3   52.78   10.98
  -3  -8  -3   39.63    9.52
   3  -8   4   27.54    8.59
  -3  -8  -4   26.92    9.27
  -3  -8  -4   20.36    7.42
   3  -8   5   56.41   12.83
  -3  -8  -5   55.13   12.16
  -3  -8  -5   69.75   14.25
   3  -8   5   53.25   11.81
  -3  -8  -6   56.01   13.11
   3  -8   6   33.96    9.20
   3  -7 -10   36.77   10.90
  -3  -7  10   30.19   10.20
   3  -7  -9   54.84   12.47
  -3  -7   9   30.73    9.61
   3  -7  -8   10.32    5.29
  -3  -7   8    8.44    5.52
   3  -7  -7   25.42    7.91
  -3  -7   7   34.41    8.77
  -3  -7   6  319.26   24.42
   3  -7  -6  282.73   23.69
  -3  -7   5  232.81   19.20
   3  -7  -5  207.23   20.24
  -3  -7   4   41.08    9.71
   3  -7  -4   44.68    9.52
  -3  -7   4   41.57    7.59
  -3  -7   4   40.03    6.14
  -3  -7   3  296.16   18.41
  -3  -7   3  278.97   23.47
  -3  -7   3  288.29   16.16
  -3  -7   3  290.98   17.89
  -3  -7   3  262.21   17.54
   3  -7  -3  308.25   24.57
  -3  -7   2   30.20    6.47
  -3  -7   2   49.95    7.27
  -3  -7   2   52.85    9.55
  -3  -7   2   45.89    6.04
  -3  -7   2   48.69    7.27
   3  -7  -2   38.57    8.97
  -3  -7   1  491.67   27.89
  -3  -7   1  490.65   29.67
  -3  -7   1  475.29   25.07
  -3  -7   1  521.39   18.40
   3  -7  -1  474.64   31.24
  -3  -7   1  504.69   23.57
  -3  -7   0 1266.01   50.12
  -3  -7   0 1396.31   43.05
  -3  -7   0 1252.81   49.91
  -3  -7   0 1250.47   46.65
   3  -7   0 1276.54   53.85
  -3  -7  -1  530.72   30.52
  -3  -7  -1  490.13   28.67
   3  -7   1  492.59   32.05
  -3  -7  -1  508.59   31.23
  -3  -7  -2   89.46   13.54
   3  -7   2   93.98   13.87
  -3  -7  -2   72.38   11.35
  -3  -7  -2  104.74   13.91
  -3  -7  -3   14.12    6.72
   3  -7   3   19.65    6.46
  -3  -7  -3   17.53    6.75
  -3  -7  -4   33.18    9.17
   3  -7   4   38.12    9.30
  -3  -7  -4   23.70    7.84
   3  -7   5   56.70   11.14
   3  -7   5   86.80   15.21
  -3  -7  -5   59.30   12.45
  -3  -7  -5   51.96   11.58
   3  -7   6   22.15    8.43
  -3  -7  -6   42.51   11.54
  -3  -7  -6   34.16    8.87
  -3  -7  -6   27.95    8.81
   3  -7   6   21.89    7.63
   3  -7   7   32.53   10.62
  -3  -7  -7   19.64    7.38
  -3  -7  -8   -3.03    4.50
   3  -6 -11   39.31   11.28
   3  -6 -10   81.73   15.01
  -3  -6  10  109.62   18.30
   3  -6  -9   20.69    7.51
  -3  -6   9    7.45    5.82
   3  -6  -8   63.05   10.34
  -3  -6   8   64.76   12.41
  -3  -6   7  365.55   27.50
   3  -6  -7  360.56   25.51
  -3  -6   6   13.45    5.35
   3  -6  -6    2.60    3.66
   3  -6  -5  332.59   24.49
  -3  -6   5  351.43   22.94
  -3  -6   4  119.46    7.08
  -3  -6   4  146.80   13.23
   3  -6  -4   93.80   12.98
  -3  -6   4  126.25   10.13
  -3  -6   3  637.57   34.16
  -3  -6   3  565.45   21.11
  -3  -6   3  616.48   25.78
   3  -6  -3  665.15   34.79
  -3  -6   3  562.27   25.26
  -3  -6   2   60.32    8.47
  -3  -6   2   56.66    8.04
   3  -6  -2   61.64    5.38
  -3  -6   2   51.56    9.27
  -3  -6   2   50.88    6.67
  -3  -6   2   59.72    6.54
   3  -6  -2   61.73   10.59
  -3  -6   1  514.84   27.01
  -3  -6   1  484.07   23.61
   3  -6  -1  513.77   19.47
  -3  -6   1  506.74   29.20
   3  -6  -1  532.75   19.34
  -3  -6   1  501.25   23.95
  -3  -6   1  512.13   16.57
   3  -6  -1  474.70   29.72
  -3  -6   0  461.12   23.22
   3  -6   0  478.70   20.66
  -3  -6   0  509.10   28.07
   3  -6   0  471.82   20.81
  -3  -6   0  500.39   28.70
  -3  -6   0  419.23   23.83
   3  -6   0  452.47   29.05
  -3  -6  -1  102.40   13.18
  -3  -6  -1   68.63    8.97
  -3  -6  -1   76.37   11.10
  -3  -6  -1   71.34   10.33
   3  -6   1   64.15   10.62
   3  -6   1   76.09    8.95
  -3  -6  -2  321.36   24.57
  -3  -6  -2  293.78   22.11
  -3  -6  -2  310.13   22.73
   3  -6   2  312.33   23.81
  -3  -6  -3 1226.36   52.80
  -3  -6  -3 1191.89   49.94
   3  -6   3 1202.10   50.21
  -3  -6  -4  225.34   22.17
  -3  -6  -4  235.51   21.98
   3  -6   4  221.72   20.24
  -3  -6  -5  181.15   20.89
   3  -6   5  169.24   19.88
  -3  -6  -5  155.32   17.69
  -3  -6  -5  180.00   20.32
   3  -6   5  154.57   17.08
  -3  -6  -6   78.49   14.41
   3  -6   6   84.05   12.96
  -3  -6  -6   87.10   14.31
  -3  -6  -6   98.00   15.82
   3  -6   6  120.01   17.42
  -3  -6  -7   34.27   10.73
  -3  -6  -7   32.88    9.55
  -3  -6  -7   33.35   10.33
   3  -6   7   29.77    9.34
  -3  -6  -8   71.10   14.29
   3  -5 -11   85.11   14.76
   3  -5 -10   66.86   12.71
  -3  -5  10   67.79   14.40
   3  -5  -9  326.68   26.84
  -3  -5   9  289.59   27.50
  -3  -5   8  228.88   22.61
   3  -5  -8  175.53   16.79
  -3  -5   7  172.66   18.35
   3  -5  -7  134.25   14.52
  -3  -5   6  426.89   27.09
   3  -5  -6  442.80   26.99
   3  -5  -5  229.94   19.17
  -3  -5   5  204.21   17.01
   3  -5  -4   61.64   10.03
  -3  -5   4   42.24    7.06
   3  -5  -3  199.83   17.74
  -3  -5   3  193.71   17.87
  -3  -5   3  217.56   10.33
  -3  -5   3  250.83   14.99
  -3  -5   3  222.20   14.34
  -3  -5   2   70.07    8.70
   3  -5  -2   70.29   10.52
  -3  -5   2   68.86    8.52
   3  -5  -2   60.88    3.77
  -3  -5   2   61.85   10.18
  -3  -5   2   79.01    7.28
  -3  -5   2   70.45    6.73
  -3  -5   1 1527.93   46.94
   3  -5  -1 1475.50   35.41
  -3  -5   1 1530.37   52.87
   3  -5  -1 1469.18   39.75
  -3  -5   1 1559.52   44.09
  -3  -5   1 1503.59   32.19
  -3  -5   1 1504.41   48.20
   3  -5  -1 1446.55   52.62
   3  -5   0   36.36    7.63
  -3  -5   0   41.22    7.88
  -3  -5   0   29.71    6.10
   3  -5   0   49.19    6.56
  -3  -5   0   38.79    7.64
  -3  -5   0   52.38    7.72
   3  -5   0   44.32    5.41
  -3  -5  -1  597.69   31.28
   3  -5   1  695.35   26.60
  -3  -5  -1  621.10   28.52
  -3  -5  -1  637.49   32.19
  -3  -5  -1  663.48   30.45
   3  -5   1  656.69   33.35
  -3  -5  -2  495.99   29.63
  -3  -5  -2  502.51   26.11
  -3  -5  -2  507.38   28.75
  -3  -5  -2  480.32   27.34
   3  -5   2  497.72   28.73
  -3  -5  -3  205.99   18.62
  -3  -5  -3  211.50   20.00
   3  -5   3  198.75   18.12
  -3  -5  -4  230.36   21.67
  -3  -5  -4  266.32   21.51
  -3  -5  -4  245.07   21.64
   3  -5   4  201.39   18.35
   3  -5   5    1.96    2.82
  -3  -5  -5    5.00    5.43
   3  -5   5    1.71    2.38
  -3  -5  -5    1.95    2.67
  -3  -5  -5   -2.72    4.85
   3  -5   6   59.28   10.11
  -3  -5  -6   58.14   11.76
  -3  -5  -6   64.82   12.18
  -3  -5  -6   58.36   12.12
   3  -5   6   87.19   14.67
  -3  -5  -7    0.78    4.44
  -3  -5  -7   11.21    6.55
  -3  -5  -7    0.95    3.57
   3  -5   7   -3.91    4.88
  -3  -5  -8   79.86   15.07
   3  -5   8   61.83   13.38
  -3  -5  -8   70.89   14.45
  -3  -5  -8   89.38   16.10
  -3  -4  11   29.51   10.60
   3  -4 -10  118.04   15.68
  -3  -4  10   90.30   16.29
   3  -4  -9   94.85   11.87
   3  -4  -9   68.07   11.82
  -3  -4   9   97.57   15.68
   3  -4  -8  167.43   15.77
   3  -4  -8  188.46   18.36
  -3  -4   8  188.25   20.34
   3  -4  -7  197.78   17.28
  -3  -4   7  205.50   19.89
   3  -4  -6    5.86    3.86
  -3  -4   6    0.69    2.24
   3  -4  -5  366.77   23.45
  -3  -4   5  366.60   22.45
   3  -4  -4   41.69    7.78
  -3  -4   4   19.69    4.95
   3  -4  -3  285.71   20.42
  -3  -4   3  320.66   21.97
  -3  -4   3  323.32   16.83
  -3  -4   3  310.43   16.65
   3  -4  -2  232.55   18.19
  -3  -4   2  218.70   14.69
  -3  -4   2  233.48   18.20
  -3  -4   2  232.28   11.52
  -3  -4   2  234.32   11.93
   3  -4  -1  919.91   38.50
  -3  -4   1  980.08   35.55
   3  -4  -1  963.52   22.67
  -3  -4   1  907.81   38.09
   3  -4  -1  948.31   30.53
  -3  -4   1  957.77   30.56
  -3  -4   1  918.78   34.71
  -3  -4   0  145.17   13.43
   3  -4   0  140.09   13.82
   3  -4   0  152.23    9.17
  -3  -4   0  154.77   13.25
   3  -4   0  149.17   11.61
  -3  -4   0  139.24   13.83
  -3  -4   0  136.92   11.43
  -3  -4  -1   45.39    7.27
   3  -4   1   33.04    6.94
  -3  -4  -1   42.66    7.60
  -3  -4  -1   35.65    7.27
  -3  -4  -1   33.49    6.25
  -3  -4  -2  223.89   18.44
  -3  -4  -2  199.44   16.06
  -3  -4  -2  228.65   18.64
  -3  -4  -2  203.29   16.58
   3  -4   2  204.64   16.99
  -3  -4  -3  192.98   18.07
  -3  -4  -3  249.98   19.72
   3  -4   3  210.51   17.47
  -3  -4  -4  264.49   22.12
  -3  -4  -4  197.74   18.43
  -3  -4  -4  199.31   18.74
   3  -4   4  224.80   18.19
  -3  -4  -5 1304.74   55.52
  -3  -4  -5 1436.76   56.73
  -3  -4  -5 1393.46   56.78
   3  -4   5 1372.06   49.26
   3  -4   5 1387.84   55.59
   3  -4   6    7.81    4.21
  -3  -4  -6    1.11    3.49
   3  -4   6    2.06    3.98
  -3  -4  -6    4.29    4.33
  -3  -4  -6    2.52    3.83
  -3  -4  -7  114.23   16.60
  -3  -4  -7  124.44   17.74
  -3  -4  -7  105.03   16.35
   3  -4   7  108.85   16.32
  -3  -4  -8  237.15   25.91
  -3  -4  -8  275.94   28.01
   3  -4   8  266.53   27.03
  -3  -4  -8  278.85   27.24
  -3  -4  -9   72.64   14.46
   3  -4   9   65.56   14.17
  -3  -3  11   51.83   12.90
   3  -3 -10  122.22   14.81
  -3  -3  10  142.59   19.94
   3  -3  -9  346.02   22.33
   3  -3  -9  306.08   22.94
  -3  -3   9  293.96   27.24
   3  -3  -8  146.12   18.30
   3  -3  -8  182.57   16.12
   3  -3  -8  179.09   16.77
  -3  -3   8  160.06   18.44
   3  -3  -7   36.10    9.07
   3  -3  -7   30.12    6.54
  -3  -3   7   25.38    7.25
   3  -3  -6  819.56   40.43
  -3  -3   6  859.76   38.42
   3  -3  -6  747.62   34.25
   3  -3  -5  124.44   14.44
   3  -3  -5  146.77   14.09
  -3  -3   5  147.75   13.92
   3  -3  -4   61.88    9.66
   3  -3  -4   48.21    7.86
  -3  -3   4   49.98    7.35
   3  -3  -3  807.05   34.15
   3  -3  -3  748.35   33.40
  -3  -3   3  808.15   35.14
  -3  -3   3  796.34   28.04
   3  -3  -3  716.79   27.72
   3  -3  -2  579.00   28.69
  -3  -3   2  611.12   29.31
  -3  -3   2  627.96   20.96
   3  -3  -2  602.68   27.42
  -3  -3   2  592.98   24.91
  -3  -3   1 1074.88   38.13
   3  -3  -1 1036.25   39.78
  -3  -3   1 1075.11   40.53
   3  -3  -1 1061.36   33.96
   3  -3  -1 1084.98   22.90
   3  -3  -1 1091.91   23.17
  -3  -3   1 1111.06   31.84
  -3  -3   1 1066.91   36.59
  -3  -3   0  720.06   29.76
   3  -3   0  655.44   30.40
  -3  -3   0  681.80   31.30
   3  -3   0  674.18   27.03
  -3  -3   0  650.58   25.64
  -3  -3   0  674.83   29.26
   3  -3   1 1648.90   53.02
  -3  -3  -1 1853.64   53.85
  -3  -3  -1 1725.52   55.52
  -3  -3  -1 1700.05   50.44
  -3  -3  -1 1853.52   55.43
  -3  -3  -2  669.18   32.37
   3  -3   2  675.84   30.43
  -3  -3  -2  734.25   32.24
  -3  -3  -2  714.85   33.21
  -3  -3  -2  644.70   30.07
  -3  -3  -3  368.09   24.44
   3  -3   3  356.59   21.46
  -3  -3  -3  368.62   23.99
  -3  -3  -3  359.87   23.16
  -3  -3  -4  645.12   34.22
  -3  -3  -4  636.61   33.45
   3  -3   4  672.60   33.30
   3  -3   4  607.57   28.84
  -3  -3  -4  635.74   33.88
  -3  -3  -5   95.16   13.45
  -3  -3  -5   83.00   12.66
   3  -3   5   85.22   10.38
  -3  -3  -5   81.92   12.86
   3  -3   5  102.30   13.25
  -3  -3  -6  320.83   25.98
  -3  -3  -6  259.19   24.21
  -3  -3  -6  293.80   25.01
   3  -3   6  260.52   18.04
   3  -3   6  265.01   22.93
  -3  -3  -7   56.55   11.96
  -3  -3  -7   43.73   10.58
  -3  -3  -7   41.59   10.12
   3  -3   7   49.41   10.75
  -3  -3  -8   63.97   12.56
  -3  -3  -8   80.02   15.17
  -3  -3  -8   81.99   14.94
   3  -3   8   66.81   12.93
  -3  -3  -9  150.63   21.91
   3  -3   9  178.56   22.50
  -3  -3  -9  198.70   22.82
  -3  -2  11    7.25    5.57
   3  -2 -10    9.38    5.94
  -3  -2  10   13.80    6.29
   3  -2  -9  702.14   41.85
   3  -2  -9  657.64   31.53
   3  -2  -9  673.46   32.15
  -3  -2   9  625.98   40.12
   3  -2  -8  267.51   24.18
  -3  -2   8  256.32   23.56
   3  -2  -8  287.24   19.45
  -3  -2   8  266.19   15.68
   3  -2  -7  934.74   45.15
  -3  -2   7  956.81   44.27
   3  -2  -7 1058.53   38.61
  -3  -2   7 1031.40   34.34
   3  -2  -6   32.22    7.47
  -3  -2   6   17.85    5.73
  -3  -2   6   31.40    5.49
   3  -2  -5  401.24   25.54
  -3  -2   5  487.44   22.29
  -3  -2   5  433.31   24.39
  -3  -2   4   54.58    7.17
   3  -2  -4   50.36    8.21
   3  -2  -4   61.00    6.37
  -3  -2   4   52.58    7.76
   3  -2  -3  447.82   24.19
  -3  -2   3  502.44   22.74
  -3  -2   3  420.09   23.87
  -3  -2   3  517.33   21.96
   3  -2  -3  507.12   20.84
  -3  -2   3  459.48   22.37
   3  -2  -2  738.89   29.64
  -3  -2   2  766.25   28.56
  -3  -2   2  730.78   31.59
   3  -2  -2  731.16   27.31
  -3  -2   2  747.99   29.89
   3  -2  -1  559.14   23.57
  -3  -2   1  586.52   26.46
   3  -2  -1  574.06   15.32
  -3  -2   1  538.30   26.52
   3  -2  -1  609.90   24.59
  -3  -2   1  572.02   24.62
  -3  -2   1  582.68   24.90
  -3  -2   0   53.13    7.76
   3  -2   0   51.68    6.05
  -3  -2   0   54.47    7.78
  -3  -2   0   39.66    7.14
   3  -2   0   46.89    6.74
   3  -2   0   43.61    4.81
  -3  -2  -1  372.53   21.32
   3  -2   1  357.18   20.74
  -3  -2  -1  408.31   23.11
  -3  -2  -1  370.34   19.67
  -3  -2  -1  372.23   21.47
  -3  -2  -2  217.83   16.99
   3  -2   2  200.87   15.10
  -3  -2  -2  225.50   16.29
  -3  -2  -2  223.87   17.23
   3  -2   3  434.35   22.58
  -3  -2  -3  470.50   26.35
  -3  -2  -3  436.95   26.15
  -3  -2  -3  433.42   25.67
  -3  -2  -3  437.91   25.24
  -3  -2  -4  124.71   14.82
   3  -2   4  129.91   11.91
  -3  -2  -4  112.58   13.33
   3  -2   4  161.66   14.84
  -3  -2  -4  127.20   14.19
  -3  -2  -5 1370.64   54.96
  -3  -2  -5 1266.24   51.83
   3  -2   5 1271.88   48.87
   3  -2   5 1284.52   42.01
  -3  -2  -5 1316.17   51.67
  -3  -2  -6  908.11   46.37
  -3  -2  -6  889.87   44.48
   3  -2   6  863.65   32.54
   3  -2   6  876.77   41.42
  -3  -2  -6  968.14   44.97
  -3  -2  -7   75.48   13.89
  -3  -2  -7   64.89   12.53
   3  -2   7   79.88   12.67
  -3  -2  -7  105.50   14.61
  -3  -2  -8  405.80   33.74
   3  -2   8  320.96   27.68
  -3  -2  -8  325.03   27.55
   3  -2   9  285.48   27.67
  -3  -2  -9  292.40   27.03
  -3  -2 -10   37.44   10.37
   3  -2  10   38.31   11.40
   3  -1 -12   57.30   13.45
   3  -1 -11   90.44   16.20
  -3  -1  11   54.88   13.19
   3  -1 -10   32.12    9.66
  -3  -1  10   38.11   10.86
   3  -1  -9    3.08    3.52
   3  -1  -9   13.99    4.47
  -3  -1   9   16.21    7.15
   3  -1  -8  509.37   33.54
  -3  -1   8  541.96   34.60
   3  -1  -8  503.78   24.04
  -3  -1   8  537.51   17.44
  -3  -1   8  590.89   25.61
   3  -1  -7  539.62   32.82
  -3  -1   7  605.35   34.06
   3  -1  -7  544.71   24.40
  -3  -1   7  587.56   18.75
  -3  -1   7  601.75   25.89
   3  -1  -6   57.23    9.78
  -3  -1   6   48.13    4.89
  -3  -1   6   35.67    8.02
  -3  -1   6   50.30    7.22
  -3  -1   5   66.85    7.87
   3  -1  -5   63.44    9.78
  -3  -1   5   55.06    5.47
  -3  -1   5   49.74    8.40
   3  -1  -5   50.21    4.70
  -3  -1   5   56.11    7.46
   3  -1  -4 1028.06   39.66
  -3  -1   4 1043.14   32.86
  -3  -1   4 1014.42   37.11
  -3  -1   4 1021.35   29.44
   3  -1  -4 1052.85   29.15
  -3  -1   4  983.08   34.94
   3  -1  -3 4778.61  105.42
  -3  -1   3 4603.40   95.54
  -3  -1   3 4399.56  103.78
  -3  -1   3 4554.91   99.32
   3  -1  -3 4696.19  104.58
   3  -1  -3 4535.45   98.58
   3  -1  -3 4776.48   94.80
  -3  -1   3 4798.45  102.12
   3  -1  -2  681.11   27.71
  -3  -1   2  662.30   23.91
  -3  -1   2  639.92   28.34
   3  -1  -2  664.61   27.60
   3  -1  -2  689.92   27.11
   3  -1  -2  675.85   25.25
   3  -1  -2  691.55   17.14
  -3  -1   1   64.25    7.23
   3  -1  -1   60.33    4.97
   3  -1  -1   64.48    7.31
  -3  -1   1   56.98    6.68
  -3  -1   1   57.39    7.96
   3  -1  -1   55.54    7.38
   3  -1  -1   57.64    7.59
   3  -1  -1   64.43    7.72
   3  -1   0  739.04   24.80
  -3  -1   0  734.90   25.68
  -3  -1   0  659.18   29.22
   3  -1   0  735.10   23.62
  -3  -1   0  735.78   27.30
  -3  -1   0  664.76   28.18
  -3  -1  -1   11.98    3.96
   3  -1   1   12.26    2.68
  -3  -1  -1   10.04    4.23
   3  -1   1   10.61    3.11
   3  -1   2  575.63   15.37
   3  -1   2  545.50   24.89
  -3  -1  -2  483.73   25.63
   3  -1   3   59.14    7.84
  -3  -1  -3   68.59    9.64
  -3  -1  -3   77.33   10.51
  -3  -1  -3   71.99   10.44
   3  -1   3   62.95    7.94
   3  -1   4  600.00   25.44
  -3  -1  -4  650.97   34.15
   3  -1   4  561.99   27.24
  -3  -1  -4  584.41   30.66
  -3  -1  -5  878.69   42.86
   3  -1   5  802.54   29.71
   3  -1   5  799.89   35.56
  -3  -1  -5  872.17   39.39
  -3  -1  -6   62.52   10.80
  -3  -1  -6   77.90   13.21
   3  -1   6   43.27    8.50
   3  -1   6   51.76    6.75
  -3  -1  -7   89.10   13.29
   3  -1   7   96.53   13.65
  -3  -1  -7   98.88   15.97
  -3  -1  -8   57.69   11.20
   3  -1   8   63.97   11.98
  -3  -1  -8   47.76   11.48
  -3  -1  -9   31.89    8.71
  -3  -1  -9   34.68   11.44
   3  -1   9   14.42    6.54
   3  -1  10  112.95   18.30
  -3  -1 -10  140.91   18.80
   3   0 -12   -0.39    4.08
   3   0 -11    2.12    2.91
  -3   0  11    8.37    5.98
   3   0 -10   12.27    6.61
  -3   0  10    9.12    5.68
   3   0  -9 1464.95   61.97
  -3   0   9 1395.15   62.65
  -3   0   9 1524.06   48.18
   3   0  -8  772.59   40.88
  -3   0   8  726.55   40.53
   3   0  -8  743.41   26.55
  -3   0   8  674.79   24.98
  -3   0   8  767.44   31.58
   3   0  -7 1683.56   61.58
  -3   0   7 1716.51   62.48
   3   0  -7 1806.23   44.11
  -3   0   7 1621.79   43.96
  -3   0   7 1762.69   52.08
  -3   0   6  207.15   14.26
   3   0  -6  237.07   19.73
  -3   0   6  229.48   19.40
   3   0  -6  249.14   12.53
  -3   0   6  242.96   13.32
  -3   0   6  240.84   16.46
   3   0  -5  809.36   36.57
  -3   0   5  858.62   28.41
  -3   0   5  855.03   36.65
  -3   0   5  805.52   26.98
   3   0  -5  842.27   22.26
  -3   0   5  869.87   32.64
  -3   0   4 2460.57   64.23
  -3   0   4 2296.40   53.96
   3   0  -4 2288.62   50.12
  -3   0   4 2303.65   60.29
   3   0  -4 2236.65   64.40
  -3   0   3   94.79    7.24
   3   0  -3  109.18   10.97
  -3   0   3  110.82   10.74
   3   0  -3  115.97   10.71
  -3   0   3  105.00    8.92
   3   0  -3   99.31    8.85
  -3   0   3   99.98   10.15
   3   0  -3  112.45    8.64
   3   0  -2  444.09   16.26
  -3   0   2  450.23   22.26
  -3   0   2  464.28   16.89
   3   0  -2  460.19   22.24
   3   0  -2  503.53   21.63
  -3   0   2  508.01   20.98
   3   0  -2  471.95   20.80
  -3   0   2  483.79   22.24
   3   0  -2  504.91   20.68
  -3   0   1   95.11    8.55
   3   0  -1   77.05    6.73
   3   0  -1   66.94    7.53
  -3   0   1   71.51    8.61
  -3   0   1   84.09    6.97
   3   0  -1   95.21    9.14
   3   0  -1   93.31    8.92
   3   0   0 1500.79   41.08
  -3   0   0 1590.52   40.67
  -3   0   0 1492.73   46.83
   3   0   0 1570.75   41.69
   3   0   0 1699.54   45.25
   3   0   1  508.77   18.99
  -3   0  -1  527.64   18.63
  -3   0  -1  565.36   26.34
   3   0   1  552.54   23.37
   3   0   2  739.58   21.39
   3   0   2  743.56   30.58
  -3   0  -2  736.00   31.71
  -3   0  -3   66.02    9.67
   3   0   3   68.43    9.77
   3   0   3   57.11    4.28
  -3   0  -3   68.18   10.02
  -3   0  -3   72.77   10.61
   3   0   3   62.34    7.57
   3   0   4  142.22   11.22
  -3   0  -4  142.21   15.66
   3   0   4  134.99   14.79
   3   0   4  170.94   13.35
  -3   0  -4  148.18   14.56
   3   0   5  187.76   12.32
  -3   0  -5  207.89   20.00
   3   0   5  179.31   18.23
   3   0   5  201.02   16.03
  -3   0  -5  189.94   17.32
  -3   0  -6  335.43   27.09
   3   0   6  290.34   24.94
   3   0   6  254.98   19.67
  -3   0  -6  291.12   22.35
  -3   0  -7   22.97    7.17
   3   0   7   13.82    5.98
  -3   0  -7   20.92    8.03
   3   0   7   23.40    6.71
  -3   0  -8  287.30   28.38
   3   0   8  276.16   27.84
   3   0   8  266.23   23.22
  -3   0  -8  279.90   23.96
  -3   0  -9  342.98   33.00
   3   0   9  384.39   34.83
   3   0   9  389.46   30.46
  -3   0  -9  406.44   29.95
   3   1 -12   68.47   14.35
   3   1 -11   78.78   15.26
  -3   1  11   57.88   13.99
   3   1 -10   49.42   11.59
  -3   1  10   52.68   12.72
   3   1  -9    5.22    4.46
  -3   1   9   13.62    4.95
  -3   1   9   14.72    6.96
  -3   1   9    8.82    3.37
  -3   1   8  524.25   27.51
   3   1  -8  497.18   32.81
   3   1  -8  615.95   20.06
  -3   1   8  514.38   34.59
  -3   1   8  581.39   25.18
   3   1  -7  599.92   17.67
  -3   1   7  571.91   34.30
  -3   1   7  547.51   24.06
  -3   1   7  563.68   27.88
   3   1  -7  587.66   33.85
  -3   1   6   38.79    6.91
   3   1  -6   40.52    8.41
   3   1  -6   42.88    3.35
  -3   1   6   47.14    9.22
  -3   1   6   40.06    6.04
   3   1  -6   42.70    2.94
  -3   1   5   60.08    6.02
   3   1  -5   64.02    9.81
   3   1  -5   54.46    3.28
  -3   1   5   53.50    6.77
   3   1  -5   58.75    5.05
  -3   1   5   62.17    8.83
   3   1  -4 1051.40   40.28
  -3   1   4 1080.79   27.10
  -3   1   4 1040.65   36.28
   3   1  -4 1005.07   36.31
   3   1  -4 1154.70   34.57
  -3   1   4  998.04   33.21
   3   1  -4 1005.30   30.07
  -3   1   4 1033.35   37.58
   3   1  -3 4665.43   95.97
   3   1  -3 4546.77  105.72
   3   1  -3 4740.79   99.85
  -3   1   3 4806.88   86.14
  -3   1   3 4621.89  101.33
  -3   1   3 4749.52  105.17
   3   1  -3 4734.58   87.46
   3   1  -3 4657.00  100.21
  -3   1   3 4731.13   99.62
   3   1  -3 4802.20   96.36
   3   1  -2  625.79   27.17
  -3   1   2  699.82   27.48
   3   1  -2  691.57   24.02
  -3   1   2  680.76   26.82
   3   1  -2  710.27   21.49
   3   1  -2  680.05   24.11
  -3   1   2  649.75   25.95
   3   1  -2  704.37   25.31
   3   1  -2  712.09   27.15
   3   1  -1   75.69    7.54
   3   1  -1   49.60    6.89
  -3   1   1   50.96    6.30
  -3   1   1   51.63    7.12
   3   1  -1   66.25    6.61
   3   1  -1   56.92    5.71
  -3   1   1   64.55    7.84
   3   1  -1   58.01    7.08
   3   1   0  727.69   26.21
  -3   1   0  733.19   23.93
   3   1   0  715.48   27.04
  -3   1   0  712.49   28.75
   3   1   0  727.22   26.78
  -3   1   0  754.84   29.16
   3   1   1    9.80    3.06
   3   1   1    4.61    2.21
  -3   1  -1   12.98    2.56
   3   1   2  553.17   19.95
   3   1   2  518.93   26.25
   3   1   2  579.39   19.45
   3   1   3   55.36    9.05
  -3   1  -3   73.40   10.19
  -3   1  -3   79.32   10.93
   3   1   3   64.20    6.69
   3   1   3   66.20    6.07
   3   1   4  603.51   20.04
  -3   1  -4  636.66   33.68
   3   1   4  578.99   31.71
   3   1   4  605.93   25.03
  -3   1  -4  667.15   31.62
   3   1   5  845.17   24.05
   3   1   5  824.73   27.75
  -3   1  -5  888.77   43.10
   3   1   5  811.22   40.81
   3   1   5  819.89   32.80
  -3   1  -5  863.94   38.04
  -3   1  -6   57.66    9.68
   3   1   6   54.43   11.15
  -3   1  -6   54.91   10.86
   3   1   6   64.02    9.49
  -3   1  -7   91.40   12.95
   3   1   7   90.98   15.01
  -3   1  -7  110.98   16.63
   3   1   7   93.79   12.38
   3   1   8   48.89   11.79
  -3   1  -8   59.10   13.17
   3   1   8   52.64    9.99
  -3   1  -8   55.34   10.36
  -3   1  -9    9.76    5.77
   3   1   9   42.52   11.54
   3   2 -12   44.01   11.46
   3   2 -11   17.76    8.60
  -3   2  11   10.89    7.03
   3   2 -10   11.13    6.19
  -3   2  10    4.39    4.66
   3   2  -9  639.23   39.21
  -3   2   9  596.38   39.84
  -3   2   9  638.17   29.97
   3   2  -8  294.73   24.88
  -3   2   8  284.06   25.70
  -3   2   8  303.25   19.42
   3   2  -7  972.45   28.59
   3   2  -7  947.59   44.29
  -3   2   7  955.00   35.87
   3   2  -6   23.65    4.00
   3   2  -6   35.20    7.85
  -3   2   6   42.48    6.82
  -3   2   5  457.38   16.22
   3   2  -5  457.07   26.97
  -3   2   5  421.06   21.70
   3   2  -5  448.52   18.85
  -3   2   4   64.45    3.84
   3   2  -4   46.00    6.80
  -3   2   4   60.12    8.51
   3   2  -4   65.53    9.47
  -3   2   4   67.26    7.81
   3   2  -4   60.15    5.74
  -3   2   4   57.50    7.64
  -3   2   4   60.05    6.27
   3   2  -4   62.73    7.96
   3   2  -4   60.36    6.82
   3   2  -3  474.26   21.74
   3   2  -3  474.96   25.04
  -3   2   3  471.24   21.10
   3   2  -3  472.93   13.10
   3   2  -3  474.97   20.47
   3   2  -3  478.42   18.90
  -3   2   3  533.48   23.68
  -3   2   3  510.82   20.83
   3   2  -3  491.59   21.29
   3   2  -2  714.56   27.05
   3   2  -2  745.30   30.13
  -3   2   2  713.93   26.43
   3   2  -2  688.14   21.14
   3   2  -2  732.18   23.44
   3   2  -2  730.56   25.52
  -3   2   2  672.48   28.19
  -3   2   2  695.42   26.62
   3   2  -2  691.78   27.30
  -3   2   1  585.68   23.48
   3   2  -1  559.10   24.79
   3   2  -1  585.46   24.79
  -3   2   1  591.48   24.22
   3   2  -1  590.65   21.66
   3   2  -1  581.39   17.49
   3   2  -1  603.92   24.12
  -3   2   1  594.30   25.64
  -3   2   1  542.57   24.32
  -3   2   0   46.62    5.53
   3   2   0   55.57    6.98
   3   2   0   54.45    3.52
   3   2   0   46.79    6.40
  -3   2   0   42.21    6.79
   3   2   0   37.23    6.35
  -3   2   0   48.25    7.10
  -3   2  -1  374.91   14.09
   3   2   1  371.14   18.23
   3   2   1  363.30   20.98
  -3   2  -1  373.02   20.95
   3   2   1  371.69   10.01
  -3   2  -2  229.25   17.22
   3   2   2  212.40   13.12
  -3   2  -2  217.06    7.02
   3   2   2  203.48   16.51
   3   2   2  217.07    8.98
  -3   2  -3  461.91   26.06
   3   2   3  440.93   19.44
  -3   2  -3  457.39   26.76
   3   2   3  392.35   24.95
   3   2   3  444.98   16.73
   3   2   4  105.94   13.82
   3   2   4  122.16    9.76
  -3   2  -4  132.97   14.96
   3   2   4  118.45    9.63
   3   2   5 1251.73   37.27
  -3   2  -5 1349.16   54.40
   3   2   5 1253.77   53.29
   3   2   5 1317.41   41.32
  -3   2  -6  866.29   44.99
   3   2   6  802.82   44.21
   3   2   6  877.11   35.31
   3   2   7  100.17   16.24
  -3   2  -7  127.83   17.83
   3   2   7  103.55   12.74
  -3   2  -8  361.53   32.00
   3   2   8  373.22   33.13
  -3   2  -9  387.17   34.94
   3   2   9  326.96   32.61
   3   3 -12   51.32   13.31
   3   3 -11   27.99    9.44
   3   3 -10  103.73   16.66
   3   3  -9  296.15   26.41
   3   3  -8  205.04   21.15
  -3   3   7   32.91    5.59
   3   3  -7   42.91    9.29
  -3   3   7   32.62    6.98
  -3   3   7   23.84    3.29
   3   3  -6  824.11   24.47
   3   3  -6  742.67   37.68
  -3   3   6  793.52   26.12
  -3   3   6  759.03   33.24
  -3   3   6  828.41   25.13
   3   3  -5  126.31    9.17
   3   3  -5  107.05   13.00
  -3   3   5  107.70    9.84
  -3   3   5  128.83    7.34
  -3   3   5  102.64   11.18
  -3   3   5  128.67    9.47
   3   3  -5  132.89   11.34
   3   3  -4   57.38    6.65
   3   3  -4   62.96    9.65
  -3   3   4   49.13    6.25
  -3   3   4   52.59    6.37
   3   3  -4   66.94    5.75
  -3   3   4   61.52    8.55
   3   3  -4   59.53    7.62
   3   3  -3  752.79   28.00
   3   3  -3  764.75   31.00
   3   3  -3  775.32   33.69
  -3   3   3  757.86   26.32
   3   3  -3  810.29   25.34
   3   3  -3  791.70   27.28
  -3   3   3  751.49   31.38
  -3   3   3  791.67   28.69
  -3   3   2  571.77   22.38
   3   3  -2  585.78   26.50
   3   3  -2  613.53   23.58
  -3   3   2  591.41   27.17
   3   3  -2  627.22   20.22
  -3   3   2  599.87   25.44
   3   3  -2  611.89   28.16
  -3   3   1 1096.62   35.72
   3   3  -1 1001.30   37.20
   3   3  -1 1013.71   32.18
  -3   3   1 1080.17   38.36
   3   3  -1 1080.56   23.98
  -3   3   1 1071.18   37.30
   3   3  -1 1064.89   37.93
  -3   3   0  660.77   24.25
   3   3   0  660.86   27.94
   3   3   0  660.45   29.87
   3   3   0  666.96   26.83
  -3   3   0  642.38   28.68
  -3   3   0  624.03   28.31
  -3   3   0  692.35   29.91
  -3   3  -1 1773.73   42.01
  -3   3  -1 1863.47   54.46
   3   3   1 1700.96   49.82
   3   3   1 1780.59   55.60
  -3   3  -1 1728.29   52.99
  -3   3  -1 1752.57   54.04
  -3   3  -2  721.68   18.09
  -3   3  -2  716.59   32.00
   3   3   2  741.08   28.98
   3   3   2  667.07   32.59
  -3   3  -2  676.05   30.94
  -3   3  -2  706.30   32.26
   3   3   3  331.83   18.82
   3   3   3  335.54   23.88
   3   3   3  369.72   12.68
  -3   3  -4  650.82   34.39
   3   3   4  610.88   34.81
   3   3   4  659.42   22.52
  -3   3  -4  657.04   28.79
  -3   3  -5   97.44   13.73
   3   3   5   85.76   13.41
   3   3   5   88.17    8.93
  -3   3  -6  283.88   25.07
   3   3   6  275.01   25.99
   3   3   6  295.20   18.71
   3   3   7   55.68   12.71
  -3   3  -7   39.35   10.14
   3   3   8   78.79   15.68
  -3   3  -8   96.55   16.39
  -3   3  -9  208.29   25.75
   3   4 -11   32.58   10.76
   3   4 -10  112.75   17.54
   3   4  -9   78.86   14.15
   3   4  -8  176.16   19.86
  -3   4   8  187.08   14.88
   3   4  -7  204.28   20.21
  -3   4   7  219.94   14.26
  -3   4   7  196.01   11.77
   3   4  -6    6.82    2.02
   3   4  -6   -1.06    1.89
   3   4  -6   -2.82    4.27
  -3   4   6   -1.85    2.91
  -3   4   6    0.84    1.19
  -3   4   6    0.69    1.50
   3   4  -5  372.91   16.43
   3   4  -5  389.65   26.01
  -3   4   5  414.47   13.84
  -3   4   5  396.57   17.62
   3   4  -5  380.45   11.42
  -3   4   5  407.66   24.43
  -3   4   5  409.34   19.58
   3   4  -4   18.54    4.16
   3   4  -4   23.77    6.13
  -3   4   4   22.92    3.83
   3   4  -4   31.98    6.73
   3   4  -4   28.73    3.78
  -3   4   4   28.56    6.24
  -3   4   4   28.44    5.25
   3   4  -4   27.69    5.47
   3   4  -3  305.77   17.29
   3   4  -3  331.08   21.01
   3   4  -3  304.11   21.09
  -3   4   3  324.26   14.50
   3   4  -3  328.74   15.43
  -3   4   3  348.44   21.52
   3   4  -3  318.38   16.22
  -3   4   3  350.81   19.28
   3   4  -2  217.16   16.80
   3   4  -2  246.67   18.16
  -3   4   2  236.41   17.36
  -3   4   2  225.27   15.97
   3   4  -1  952.31   38.02
   3   4  -1  917.55   37.05
  -3   4   1 1028.79   38.74
  -3   4   1  910.81   35.86
  -3   4   1 1009.30   38.93
  -3   4   0  140.24   11.17
   3   4   0  148.45   13.56
   3   4   0  126.80   13.35
  -3   4   0  132.66   12.93
  -3   4   0  158.81   14.08
  -3   4   0  157.57   13.93
  -3   4  -1   42.93    7.45
  -3   4  -1   29.23    6.11
  -3   4  -1   41.97    5.58
  -3   4  -1   34.67    6.87
   3   4   1   23.85    5.23
  -3   4  -1   43.97    7.60
   3   4   1   38.23    7.93
  -3   4  -2  217.03   10.65
  -3   4  -2  247.20   17.84
   3   4   2  211.65   16.12
   3   4   2  202.74   18.30
  -3   4  -2  228.24   17.59
  -3   4  -2  206.90   17.52
  -3   4  -2  247.29   17.27
   3   4   3  214.28   19.78
  -3   4  -3  225.58   17.97
  -3   4  -3  201.26   17.83
  -3   4  -3  237.63   16.70
  -3   4  -4  215.49   19.15
   3   4   4  195.80   20.16
  -3   4  -4  232.78   16.52
  -3   4  -4  227.35   19.56
  -3   4  -5 1500.68   47.33
  -3   4  -5 1565.34   59.41
   3   4   5 1362.74   59.49
  -3   4  -6    5.45    4.82
   3   4   6    9.43    5.23
  -3   4  -7  136.91   18.51
   3   4   7  156.79   20.99
  -3   4  -8  285.38   28.40
   3   4   8  257.34   28.57
   3   5 -11   65.23   14.06
   3   5 -10   68.26   13.90
   3   5  -9  337.07   29.29
   3   5  -8  202.69   21.79
  -3   5   7  175.08   12.67
   3   5  -7  144.07   17.66
  -3   5   7  144.06   11.54
   3   5  -6  438.14   29.56
  -3   5   6  434.30   17.96
  -3   5   6  405.64   17.37
  -3   5   6  411.68   21.08
   3   5  -5  217.50   12.28
  -3   5   5  211.68    9.97
  -3   5   5  229.25   10.97
   3   5  -5  229.14   20.48
   3   5  -5  216.68    8.05
  -3   5   5  199.98   18.15
  -3   5   5  222.24   15.55
  -3   5   4   51.22    7.73
   3   5  -4   51.56    6.67
  -3   5   4   51.66    4.53
   3   5  -4   57.47    9.92
   3   5  -4   45.50    8.57
   3   5  -4   48.92    5.32
  -3   5   4   61.93   10.00
   3   5  -3  218.71   18.65
  -3   5   3  204.07   17.69
  -3   5   3  250.03   17.42
   3   5  -3  201.80   17.61
   3   5  -2   77.55   10.73
   3   5  -2   50.24    8.83
  -3   5   2   66.28    9.92
  -3   5   2   55.90    8.47
   3   5  -1 1447.32   51.63
   3   5  -1 1387.03   49.80
  -3   5   1 1481.23   50.81
  -3   5   1 1464.70   49.46
   3   5   0   42.55    7.96
   3   5   0   51.32    8.94
  -3   5   0   49.58    8.65
  -3   5   0   45.26    8.04
  -3   5   0   42.78    8.25
  -3   5  -1  662.56   26.30
  -3   5  -1  677.54   30.05
   3   5   1  690.69   32.57
   3   5   1  684.50   35.39
  -3   5  -1  715.21   33.10
  -3   5  -1  586.94   31.34
  -3   5  -1  714.15   32.29
  -3   5  -2  510.74   20.04
  -3   5  -2  489.66   25.87
   3   5   2  462.35   26.42
   3   5   2  462.76   29.44
  -3   5  -2  470.50   26.90
  -3   5  -2  463.21   27.90
  -3   5  -2  521.12   26.66
  -3   5  -3  214.65    9.60
   3   5   3  177.58   18.77
  -3   5  -3  196.68   17.24
  -3   5  -3  195.49   18.24
  -3   5  -3  221.61   16.73
   3   5   4  234.88   22.68
  -3   5  -4  244.32   21.14
  -3   5  -4  263.37   17.96
  -3   5  -5    1.45    2.17
  -3   5  -5    7.64    4.19
  -3   5  -5    3.40    4.24
   3   5   5    1.25    4.99
  -3   5  -6   66.30   12.09
   3   5   6   77.12   14.37
  -3   5  -7    4.95    5.66
   3   5   7    7.35    5.01
  -3   5  -8   95.95   16.49
   3   5   8   95.49   18.15
   3   6 -11   35.53   11.66
   3   6 -10  100.30   16.99
   3   6  -9   13.72    7.30
   3   6  -8   71.50   13.58
   3   6  -7  373.65   29.28
  -3   6   7  355.07   20.69
   3   6  -6   19.68    7.78
  -3   6   6   10.55    4.09
  -3   6   5  352.00   14.49
   3   6  -5  337.61   25.92
  -3   6   5  319.57   24.46
  -3   6   5  359.66   21.88
  -3   6   4  133.04    7.33
   3   6  -4  123.90   14.94
   3   6  -4  143.31   16.21
  -3   6   4  107.68   13.97
  -3   6   4  121.65   12.71
   3   6  -3  630.49   33.74
   3   6  -3  632.22   34.23
  -3   6   3  556.59   31.70
  -3   6   3  589.65   29.80
   3   6  -2   71.18   10.95
   3   6  -2   62.07   10.45
  -3   6   2   64.83   10.17
  -3   6   2   71.14   10.17
   3   6  -1  476.97   29.28
   3   6  -1  483.42   29.04
  -3   6   1  490.21   28.54
  -3   6   1  507.52   28.28
   3   6   0  475.33   29.93
   3   6   0  481.77   28.78
  -3   6   0  470.28   28.03
  -3   6   0  499.21   28.69
  -3   6  -1   71.69    9.13
  -3   6  -1   66.11    9.73
   3   6   1   79.23   11.56
   3   6   1   92.72   13.40
  -3   6  -1   78.40   11.32
  -3   6  -1   78.60   11.69
   3   6   2  296.74   22.42
   3   6   2  276.24   23.99
  -3   6  -2  348.47   23.63
  -3   6  -2  341.67   24.57
  -3   6  -2  323.91   21.76
   3   6   3 1209.93   53.99
  -3   6  -3 1173.74   47.20
  -3   6  -3 1176.01   50.05
  -3   6  -3 1244.59   45.01
   3   6   4  230.21   23.49
  -3   6  -4  250.81   18.08
  -3   6  -4  247.76   20.39
  -3   6  -4  233.48   21.57
  -3   6  -5  155.64   17.95
   3   6   5  167.09   20.83
  -3   6  -6   79.75   13.48
   3   6   6   87.73   16.00
  -3   6  -6   60.94   11.64
  -3   6  -7   29.59    9.15
   3   6   7   31.35   10.08
  -3   6  -8   59.64   13.12
   3   7 -10   34.32   10.50
   3   7  -9   47.02   11.72
   3   7  -8   12.51    6.92
   3   7  -7   26.98    8.34
  -3   7   7   23.77    5.93
   3   7  -6  327.72   27.62
  -3   7   6  308.47   21.53
   3   7  -5  214.19   21.42
  -3   7   5  224.42   21.53
  -3   7   5  206.70   17.66
   3   7  -4   45.24   10.16
   3   7  -4   61.10   11.48
  -3   7   4   44.05    9.54
  -3   7   4   56.24    9.57
   3   7  -3  311.00   24.85
   3   7  -3  288.11   23.86
  -3   7   3  292.63   23.57
  -3   7   3  307.09   22.46
   3   7  -2   45.12    9.64
   3   7  -2   39.86    8.83
  -3   7   2   56.94   11.01
  -3   7   2   42.89    8.54
   3   7  -1  529.01   32.73
   3   7  -1  530.34   32.12
  -3   7   1  524.41   31.13
  -3   7   1  500.07   30.10
   3   7   0 1276.97   54.78
   3   7   0 1362.90   53.98
  -3   7   0 1310.14   51.76
  -3   7   0 1297.92   51.78
  -3   7  -1  533.47   25.46
   3   7   1  466.21   32.08
   3   7   1  493.87   31.12
  -3   7  -1  504.52   30.22
  -3   7  -1  508.29   31.24
   3   7   2   80.80   12.54
  -3   7  -2   78.04   11.65
   3   7   2   89.23   14.28
  -3   7  -2   99.50   12.46
  -3   7  -2   84.06   12.78
  -3   7  -3   19.44    7.23
  -3   7  -3   23.03    6.15
  -3   7  -3   20.83    6.25
   3   7   3   16.42    6.81
  -3   7  -4   40.50    7.64
  -3   7  -4   14.01    5.59
   3   7   4   26.41    8.87
  -3   7  -4   22.77    7.41
   3   7   5   73.93   14.56
  -3   7  -5   83.16   13.76
  -3   7  -6   21.22    7.57
   3   7   6   24.59    8.74
  -3   7  -7   30.76    9.40
  -3   7  -7   13.47    6.88
  -3   7  -8    1.42    6.90
   3   8  -9  506.79   39.40
   3   8  -8   22.18    7.98
   3   8  -7   -0.46    3.84
  -3   8   6   11.50    5.11
   3   8  -6   13.89    6.48
   3   8  -5  225.93   23.17
  -3   8   5  230.69   23.12
  -3   8   5  231.55   20.36
   3   8  -4  388.05   30.32
   3   8  -4  396.52   30.34
  -3   8   4  407.07   30.04
  -3   8   4  406.85   27.40
   3   8  -3  428.04   31.23
   3   8  -3  466.78   32.32
  -3   8   3  444.16   31.09
  -3   8   3  418.25   28.26
   3   8  -2   50.22   10.54
   3   8  -2   29.17    8.21
  -3   8   2   48.71   10.25
  -3   8   2   46.38    9.51
   3   8  -1  324.27   27.11
   3   8  -1  367.43   28.05
  -3   8   1  351.50   26.74
  -3   8   1  372.35   27.20
   3   8   0  457.27   32.90
   3   8   0  499.07   33.13
  -3   8   0  495.61   31.66
  -3   8   0  525.59   33.03
   3   8   1  700.84   41.70
   3   8   1  686.70   39.29
  -3   8  -1  644.21   36.46
  -3   8  -1  718.66   39.86
   3   8   2  134.70   17.21
   3   8   2  159.20   19.91
  -3   8  -2  141.37   16.47
  -3   8  -2  151.75   16.31
  -3   8  -2  128.84   16.99
  -3   8  -3   60.57    9.99
  -3   8  -3   48.24   11.00
  -3   8  -3   36.48    8.50
   3   8   3   38.48   10.50
  -3   8  -4   27.55    7.42
   3   8   4   38.78   10.99
  -3   8  -4   10.51    5.64
  -3   8  -5   65.63   11.77
  -3   8  -5   74.50   13.49
   3   8   5   70.26   14.96
  -3   8  -6   80.90   14.52
   3   9  -8   89.97   16.76
   3   9  -7   54.97   12.46
   3   9  -6   25.61    8.80
  -3   9   6   34.13    8.52
   3   9  -5  108.70   16.87
  -3   9   5  126.88   17.83
  -3   9   5   92.86   13.98
   3   9  -4  319.11   28.76
   3   9  -4  293.29   27.35
  -3   9   4  256.99   25.65
  -3   9   4  362.36   27.30
   3   9  -3   68.46   13.21
   3   9  -3   61.46   12.77
  -3   9   3   60.01   12.32
  -3   9   3   75.19   12.81
   3   9  -2  266.69   25.82
   3   9  -2  210.11   22.58
  -3   9   2  236.20   23.23
  -3   9   2  282.99   24.66
   3   9  -1  202.08   22.07
   3   9  -1  181.17   21.46
  -3   9   1  191.74   20.60
  -3   9   1  182.70   20.12
   3   9   0  324.56   28.81
   3   9   0  238.35   24.23
  -3   9   0  256.68   23.75
  -3   9   0  276.90   25.11
  -3   9  -1   66.46   12.57
   3   9   1   99.01   15.33
   3   9   1  103.49   16.37
  -3   9  -1   88.60   13.57
  -3   9  -2   56.33   10.27
   3   9   2   59.07   12.51
   3   9   2   61.04   13.30
  -3   9  -2   66.83   11.77
  -3   9  -2   51.14   11.11
  -3   9  -3   19.18    5.77
   3   9   3   41.87   11.55
  -3   9  -3   39.75    9.59
  -3   9  -3   40.40   10.28
  -3   9  -4   -1.07    3.49
  -3   9  -4    5.90    4.55
   3   9   4    5.36    5.65
  -3   9  -5  122.72   16.24
  -3   9  -5  128.49   18.83
   3  10  -6   77.60   15.56
  -3  10   6   91.88   14.26
   3  10  -5  198.52   23.88
  -3  10   5  205.97   24.04
  -3  10   5  188.80   21.05
   3  10  -4  100.43   16.83
  -3  10   4   56.49   12.60
  -3  10   4   70.05   13.11
   3  10  -3    1.15    5.37
   3  10  -3    4.10    4.70
  -3  10   3    1.56    2.80
  -3  10   3    3.46    4.57
   3  10  -2  118.13   17.77
   3  10  -2   93.65   16.32
  -3  10   2  127.11   18.08
  -3  10   2  109.03   16.27
   3  10  -1   36.93   10.41
   3  10  -1   61.00   13.63
  -3  10   1   30.06    8.85
  -3  10   1   27.21    8.37
   3  10   0  114.47   17.29
   3  10   0  103.69   17.26
  -3  10   0  114.04   16.60
  -3  10   0   94.43   15.71
   3  10   1   67.88   13.61
   3  10   1   76.67   15.18
  -3  10  -1   86.32   14.44
  -3  10  -1   89.76   15.17
   3  10   2   88.08   15.57
   3  10   2   59.17   14.27
  -3  10  -2   85.82   14.11
  -3  10  -2  101.43   14.73
  -3  10  -2   97.58   16.27
  -3  10  -3   67.43   13.70
   3  10   3   59.08   14.20
  -3  10  -3   64.75   12.28
  -3  10  -4   99.37   14.91
  -3  11   6   35.71   10.40
  -3  11   5    1.09    4.39
  -3  11   4   85.34   15.00
  -3  11   3   76.42   14.24
  -3  11   2    0.46    4.64
  -3  11   2    1.92    3.83
  -3  11   1    5.94    5.23
  -3  11   1    9.39    5.71
  -3  11   0  153.45   20.28
  -3  11  -1   86.55   15.08
  -3  11  -2   42.05   10.67
  -3  11  -3  117.03   17.15
  -4 -11   3   22.46    9.42
  -4 -11   2  104.17   17.31
  -4 -11   0    8.08    6.72
  -4 -10   5   98.06   17.53
  -4 -10   4    9.28    5.83
  -4 -10   3  129.94   19.07
  -4 -10   2    4.23    4.48
  -4 -10   1  151.19   18.46
  -4 -10   1  172.79   21.08
  -4 -10   0  135.78   18.34
  -4 -10   0  122.47   17.73
  -4 -10  -1   46.28   11.47
  -4 -10  -1   35.92    9.86
  -4 -10  -2  189.95   21.97
  -4 -10  -3   30.51    9.91
   4  -9  -7   58.01   12.81
   4  -9  -6  119.52   18.16
  -4  -9   6  130.21   20.13
  -4  -9   5  286.50   28.55
   4  -9  -5  256.60   26.81
  -4  -9   4    5.48    4.85
   4  -9  -4    3.60    4.72
  -4  -9   3    4.31    4.22
   4  -9  -3   11.42    7.64
  -4  -9   2   11.12    5.33
   4  -9  -2   25.85    9.36
  -4  -9   2    9.07    5.35
  -4  -9   1    5.84    4.32
   4  -9  -1    0.84    6.06
  -4  -9   1   -0.18    3.58
  -4  -9   0   40.69    9.86
   4  -9   0   49.76   11.66
  -4  -9   0   53.33   11.52
  -4  -9  -1   33.67    9.74
   4  -9   1   64.16   13.89
  -4  -9  -1   31.86    9.10
  -4  -9  -1   49.29   10.17
  -4  -9  -2   20.15    8.37
   4  -9   2   21.25    8.93
  -4  -9  -2   17.08    7.12
  -4  -9  -2   20.36    7.56
  -4  -9  -3  166.04   22.03
   4  -9   3  185.07   23.29
  -4  -9  -3  162.65   20.37
   4  -9   4   17.87    8.08
  -4  -9  -4    2.82    3.82
   4  -8  -8   35.52    9.48
   4  -8  -7    3.98    4.97
  -4  -8   6   47.82   12.10
   4  -8  -6   66.82   13.24
  -4  -8   5  130.91   18.60
   4  -8  -5  171.87   20.78
  -4  -8   4  220.36   23.87
   4  -8  -4  221.21   23.81
  -4  -8   3  122.05   17.05
   4  -8  -3  145.02   19.16
  -4  -8   3  127.73   14.15
  -4  -8   2  148.55   18.50
   4  -8  -2  146.89   19.19
  -4  -8   2  127.11   14.91
  -4  -8   1   60.82   10.70
  -4  -8   1   40.75    9.81
   4  -8  -1   45.91   11.27
  -4  -8   1   57.85    9.27
  -4  -8   0   48.62   11.02
   4  -8   0   53.67   11.91
  -4  -8   0   43.74    8.71
  -4  -8   0   27.13    7.81
  -4  -8  -1   15.50    6.93
   4  -8   1   19.14    8.08
  -4  -8  -1   15.64    6.28
  -4  -8  -1   21.76    6.85
  -4  -8  -2   36.71   10.24
   4  -8   2   37.88   10.00
  -4  -8  -2   49.07   11.23
  -4  -8  -2   30.50    9.07
  -4  -8  -3   40.10   11.03
   4  -8   3   28.12    9.62
  -4  -8  -3   28.81    8.66
  -4  -8  -4   25.14    9.25
   4  -8   4   12.16    6.32
  -4  -8  -4   18.15    7.70
   4  -8   5    7.04    5.48
   4  -7 -10   79.89   15.97
  -4  -7   9   57.15   12.72
  -4  -7   8  257.31   24.84
   4  -7  -8  254.23   24.56
   4  -7  -7   46.85   11.04
  -4  -7   7   60.68   11.59
  -4  -7   6  120.69   17.62
  -4  -7   6  126.08   15.04
   4  -7  -6  137.54   17.80
   4  -7  -5   44.40   10.35
  -4  -7   5   83.34   14.34
  -4  -7   4   50.04    8.00
  -4  -7   4   52.01   11.25
   4  -7  -4   56.42   11.56
  -4  -7   3   24.42    6.41
  -4  -7   3   10.31    4.31
  -4  -7   3   25.57    8.30
   4  -7  -3   18.21    7.02
  -4  -7   2  127.16   13.51
  -4  -7   2   94.21   14.71
   4  -7  -2   93.98   14.86
  -4  -7   2  111.42   13.43
  -4  -7   1  526.73   28.45
  -4  -7   1  530.90   34.06
  -4  -7   1  509.85   26.46
   4  -7  -1  530.67   35.62
  -4  -7   1  507.58   30.76
  -4  -7   0   78.14   12.38
  -4  -7   0   66.15    9.99
  -4  -7   0   56.75   10.69
  -4  -7   0   57.43    9.34
   4  -7   0   83.44   13.94
  -4  -7  -1   43.09    8.47
  -4  -7  -1   24.86    7.95
  -4  -7  -1   17.97    6.49
   4  -7   1   28.84    9.29
  -4  -7  -1   37.42    8.40
  -4  -7  -2  457.91   32.85
  -4  -7  -2  422.42   30.85
  -4  -7  -2  400.42   28.49
   4  -7   2  435.28   32.35
  -4  -7  -3   44.48   11.26
   4  -7   3   34.08    9.28
  -4  -7  -3   35.23    9.29
  -4  -7  -4  243.16   25.49
  -4  -7  -4  247.25   24.53
   4  -7   4  236.09   23.92
   4  -7   5   27.56    9.65
  -4  -7  -5   29.38   10.00
   4  -7   5   24.90    8.77
  -4  -7  -5   17.77    6.85
  -4  -6  10  115.87   19.03
  -4  -6   9  174.96   22.10
   4  -6  -9  204.13   21.03
   4  -6  -8   30.45    8.64
  -4  -6   8   40.01    9.69
   4  -6  -7   98.41   14.58
  -4  -6   7   77.60   12.67
   4  -6  -6   68.64   12.06
  -4  -6   6   69.03   10.92
   4  -6  -5  142.80   17.32
  -4  -6   5  128.93   17.51
  -4  -6   5  146.31   14.43
   4  -6  -4   26.13    7.85
  -4  -6   4   30.30    8.66
  -4  -6   4   31.43    5.86
  -4  -6   3  102.46   12.45
   4  -6  -3   86.08   13.57
  -4  -6   3   92.86   14.09
  -4  -6   3   96.84    8.85
  -4  -6   3   83.13   10.62
  -4  -6   2   50.91    9.10
   4  -6  -2   59.74   11.13
  -4  -6   2   46.45    8.46
  -4  -6   2   39.59    9.27
  -4  -6   2   57.57    7.23
  -4  -6   1  313.68   21.92
  -4  -6   1  324.13   25.68
  -4  -6   1  310.31   19.15
   4  -6  -1  304.14   25.28
  -4  -6   1  321.22   23.11
  -4  -6   0   22.73    6.86
   4  -6   0   13.31    5.63
  -4  -6   0   24.00    6.29
  -4  -6   0   17.25    6.29
  -4  -6   0   24.02    5.89
  -4  -6  -1  366.47   24.48
  -4  -6  -1  345.14   26.71
  -4  -6  -1  358.17   24.24
   4  -6   1  328.65   26.70
  -4  -6  -1  385.34   27.70
  -4  -6  -2  135.01   16.97
  -4  -6  -2  149.94   15.93
  -4  -6  -2  122.41   16.07
  -4  -6  -2  152.65   16.71
   4  -6   2  158.43   18.29
  -4  -6  -3  169.66   19.92
  -4  -6  -3  193.81   20.08
   4  -6   3  158.17   18.68
  -4  -6  -4   81.89   14.86
   4  -6   4   86.67   13.78
  -4  -6  -4  111.89   16.09
   4  -6   5  105.55   16.67
  -4  -6  -5   88.75   15.39
   4  -6   5  106.51   15.36
  -4  -6  -5  104.07   16.42
  -4  -6  -6   94.71   16.32
   4  -6   6   71.79   14.48
  -4  -5  10  161.37   21.87
   4  -5  -9  274.69   23.81
  -4  -5   9  276.87   27.03
   4  -5  -8  209.40   20.51
  -4  -5   8  225.90   22.71
   4  -5  -7  197.19   20.08
  -4  -5   7  213.93   20.76
   4  -5  -6   48.88    9.96
  -4  -5   6   59.04   10.21
   4  -5  -5  591.83   34.93
  -4  -5   5  621.73   37.21
  -4  -5   5  571.34   29.39
  -4  -5   4   81.59   13.15
  -4  -5   4   75.95    9.24
   4  -5  -4   84.25   13.15
   4  -5  -3  334.22   25.59
  -4  -5   3  357.48   26.61
  -4  -5   3  342.10   17.02
  -4  -5   3  289.10   19.52
  -4  -5   2   63.24    9.27
  -4  -5   2   89.86   11.62
  -4  -5   2   74.76   11.96
  -4  -5   2   72.02    7.65
   4  -5  -2   77.02   12.11
   4  -5  -1  937.65   44.47
  -4  -5   1  974.83   40.45
  -4  -5   1 1011.49   45.51
   4  -5  -1  934.56   21.27
  -4  -5   1  967.33   34.37
  -4  -5   1  879.16   39.32
  -4  -5   0  569.41   30.20
  -4  -5   0  517.31   31.94
  -4  -5   0  519.86   26.53
   4  -5   0  508.81   31.66
  -4  -5   0  540.65   30.79
  -4  -5  -1  191.16   17.50
  -4  -5  -1  178.62   18.47
   4  -5   1  159.19   17.28
  -4  -5  -1  194.85   16.94
  -4  -5  -1  186.92   18.48
  -4  -5  -2  342.16   24.37
  -4  -5  -2  335.16   26.18
  -4  -5  -2  314.55   23.46
   4  -5   2  344.09   25.95
  -4  -5  -2  320.07   25.35
  -4  -5  -3  531.77   32.65
   4  -5   3  570.42   34.20
  -4  -5  -3  532.13   34.81
  -4  -5  -4  164.50   18.92
   4  -5   4  198.22   19.63
  -4  -5  -4  214.13   22.65
   4  -5   5   26.96    8.23
  -4  -5  -5   66.58   13.59
   4  -5   5   42.20    9.56
  -4  -5  -5   64.73   12.65
  -4  -5  -6   57.13   12.63
  -4  -5  -6   74.83   14.49
   4  -5   6   49.51   11.40
  -4  -5  -7   40.58   11.00
   4  -5   7   55.30   12.90
  -4  -4  10  203.62   24.46
   4  -4  -9   83.91   12.89
   4  -4  -9   70.60   11.70
  -4  -4   9   84.52   14.89
   4  -4  -8  324.40   25.33
  -4  -4   8  279.28   25.18
   4  -4  -7  274.41   23.07
  -4  -4   7  240.70   21.73
   4  -4  -6  248.69   21.74
  -4  -4   6  242.26   20.32
  -4  -4   5   64.20   11.39
  -4  -4   5   74.47   10.24
   4  -4  -5   72.95   11.82
   4  -4  -4  968.27   44.48
  -4  -4   4  948.63   45.09
  -4  -4   4 1041.89   37.13
   4  -4  -3  350.08   25.31
  -4  -4   3  324.52   24.61
  -4  -4   3  317.31   16.60
  -4  -4   2   69.16    9.53
  -4  -4   2   64.29    9.76
  -4  -4   2   63.87   10.87
   4  -4  -2   69.54   11.28
   4  -4  -1 1066.13   22.78
  -4  -4   1 1066.46   43.27
   4  -4  -1 1109.71   46.68
   4  -4  -1 1072.72   22.86
  -4  -4   1 1080.97   46.66
  -4  -4   1 1048.10   41.79
   4  -4   0  412.93   27.35
  -4  -4   0  450.48   26.69
  -4  -4   0  404.33   27.30
  -4  -4   0  392.19   22.13
   4  -4   0  421.91   17.23
  -4  -4   0  446.40   27.00
   4  -4   1  149.22   16.03
  -4  -4  -1  180.83   16.96
  -4  -4  -1  161.36   17.24
  -4  -4  -1  168.77   15.21
  -4  -4  -1  159.74   16.52
  -4  -4  -2   65.28   10.59
   4  -4   2   60.97   10.53
  -4  -4  -2   45.36    9.48
  -4  -4  -2   49.63    8.79
  -4  -4  -2   60.12   10.52
  -4  -4  -3  178.77   18.01
   4  -4   3  153.66   16.40
  -4  -4  -3  171.35   18.75
  -4  -4  -4   58.67   11.69
  -4  -4  -4   39.45    9.71
   4  -4   4   44.00    8.98
   4  -4   5  148.98   18.21
  -4  -4  -5  136.61   18.06
  -4  -4  -5  170.74   19.88
   4  -4   5  160.74   16.91
  -4  -4  -6  294.72   27.86
  -4  -4  -6  298.48   27.99
   4  -4   6  322.10   27.85
  -4  -4  -6  368.37   30.95
  -4  -4  -7    0.77    4.18
  -4  -4  -7   17.69    8.30
  -4  -4  -7    8.90    6.79
   4  -4   7    0.21    4.06
   4  -4   8  278.70   28.43
  -4  -3  11   69.19   14.92
  -4  -3  10  331.46   31.06
   4  -3  -9   37.99   10.28
   4  -3  -9   43.85    9.46
  -4  -3   9   24.30    8.29
   4  -3  -8  488.60   35.55
   4  -3  -8  424.45   28.83
  -4  -3   8  442.02   31.96
   4  -3  -7  264.05   24.90
   4  -3  -7  273.23   22.46
  -4  -3   7  295.91   24.07
   4  -3  -6  310.33   25.57
  -4  -3   6  304.58   22.83
   4  -3  -5   87.18   13.01
  -4  -3   5   74.74   11.83
  -4  -3   5   84.33   10.97
   4  -3  -4  327.09   23.79
  -4  -3   4  324.56   24.29
  -4  -3   4  310.78   19.05
   4  -3  -3  272.31   20.37
  -4  -3   3  295.87   22.56
   4  -3  -3  243.23   20.75
   4  -3  -2  340.96   21.57
  -4  -3   2  369.71   23.92
   4  -3  -2  357.92   24.70
  -4  -3   2  326.62   23.48
  -4  -3   1 1305.08   48.03
   4  -3  -1 1271.44   28.25
   4  -3  -1 1214.45   48.48
  -4  -3   1 1232.65   49.09
  -4  -3   1 1289.32   46.01
   4  -3  -1 1229.36   42.17
  -4  -3   0  122.32   13.74
  -4  -3   0  106.13   13.61
   4  -3   0  115.08    8.69
   4  -3   0  101.51   12.93
  -4  -3   0  122.33   13.60
  -4  -3  -1  277.92   21.23
   4  -3   1  251.56   20.20
  -4  -3  -1  268.68   21.70
   4  -3   1  257.69   15.67
  -4  -3  -1  223.55   19.24
  -4  -3  -2   27.60    7.12
  -4  -3  -2   36.40    7.92
   4  -3   2   17.66    5.54
  -4  -3  -3  332.19   24.93
  -4  -3  -3  320.30   23.92
  -4  -3  -3  336.05   25.50
   4  -3   3  329.33   23.21
  -4  -3  -4 1248.53   52.88
   4  -3   4 1159.97   49.07
   4  -3   4 1296.61   48.63
  -4  -3  -4 1182.65   52.88
  -4  -3  -5  109.28   15.62
   4  -3   5  109.42   13.20
   4  -3   5  115.57   15.10
  -4  -3  -6   55.32   12.03
  -4  -3  -6   64.62   13.33
   4  -3   6   44.99   10.06
  -4  -3  -7  142.59   19.59
  -4  -3  -7  133.24   19.64
   4  -3   7  120.16   17.05
   4  -3   8   66.59   13.64
   4  -2 -11    5.07    6.37
  -4  -2  11   10.49    6.79
   4  -2 -10  502.46   39.09
  -4  -2  10  565.84   40.92
   4  -2  -9  185.75   22.59
  -4  -2   9  205.73   23.20
   4  -2  -8  333.74   28.82
  -4  -2   8  340.79   28.04
   4  -2  -8  332.12   20.98
  -4  -2   8  349.99   21.53
   4  -2  -7   23.74    7.63
  -4  -2   7   34.36    8.71
  -4  -2   7   39.52    7.31
   4  -2  -6  223.07   21.41
  -4  -2   6  210.46   19.11
  -4  -2   6  268.94   19.04
   4  -2  -5  231.10   20.49
  -4  -2   5  199.19   18.72
  -4  -2   5  232.77   18.24
   4  -2  -5  226.14   14.20
  -4  -2   5  226.24   17.54
   4  -2  -4  574.72   31.46
  -4  -2   4  531.24   30.47
  -4  -2   4  622.66   30.27
   4  -2  -3  228.20   18.27
  -4  -2   3  199.97   17.93
  -4  -2   3  263.24   19.13
   4  -2  -2 1000.33   38.59
  -4  -2   2 1030.74   42.29
  -4  -2   2  979.53   42.01
  -4  -2   2  973.89   40.05
   4  -2  -1  472.43   23.45
  -4  -2   1  496.66   27.98
   4  -2  -1  477.48   16.37
  -4  -2   1  454.67   27.41
   4  -2   0  250.20   15.32
  -4  -2   0  254.59   19.85
  -4  -2   0  248.10   20.17
   4  -2   0  264.46   14.08
  -4  -2   0  276.30   20.18
  -4  -2  -1   91.84   11.86
  -4  -2  -1  122.48   14.00
   4  -2   1   94.98   11.96
  -4  -2  -1  110.50   13.67
   4  -2   1  104.79   10.14
   4  -2   1  100.88    8.20
  -4  -2  -2  402.77   26.67
   4  -2   2  398.67   25.16
   4  -2   2  446.39   23.83
  -4  -2  -2  406.96   26.52
   4  -2   3  288.47   20.76
  -4  -2  -3  248.61   21.68
   4  -2   3  305.93   21.36
  -4  -2  -3  262.43   22.03
   4  -2   4  235.93   19.43
  -4  -2  -4  247.81   22.15
   4  -2   4  214.65   17.71
  -4  -2  -5   31.17    8.57
  -4  -2  -5   37.89    9.41
   4  -2   5   40.18    7.71
   4  -2   5   30.10    7.40
  -4  -2  -6  267.81   26.66
   4  -2   6  275.84   23.26
  -4  -2  -6  256.58   24.36
  -4  -2  -7  178.19   22.91
   4  -2   7  213.91   21.81
  -4  -2  -7  194.28   22.29
  -4  -2  -8   96.40   16.33
   4  -2   8   93.12   17.28
   4  -2   8   74.30   13.74
   4  -1 -11  118.61   19.59
  -4  -1  11  122.09   20.17
   4  -1 -10   23.76    8.37
  -4  -1  10   31.24    9.93
   4  -1  -9   44.70   11.28
  -4  -1   9   31.96    9.47
  -4  -1   9   54.54    9.01
   4  -1  -8  167.72   20.08
  -4  -1   8  117.68   16.56
  -4  -1   8  115.68   12.83
   4  -1  -7    0.96    4.32
  -4  -1   7    0.70    1.20
  -4  -1   7   -2.56    3.14
  -4  -1   7    3.34    3.00
   4  -1  -6  499.42   31.90
  -4  -1   6  494.69   29.95
  -4  -1   6  493.75   20.97
   4  -1  -6  493.73   18.81
  -4  -1   6  556.20   28.53
   4  -1  -5   63.66   10.62
  -4  -1   5   78.28   11.09
   4  -1  -5   81.43    8.01
  -4  -1   5   83.62   10.73
   4  -1  -4  407.19   25.84
  -4  -1   4  406.60   24.11
  -4  -1   4  348.43   18.58
  -4  -1   4  413.19   25.76
   4  -1  -4  432.63   20.52
   4  -1  -3  581.13   29.49
  -4  -1   3  562.57   23.60
  -4  -1   3  523.92   28.89
  -4  -1   3  553.61   28.52
   4  -1  -2   72.78    5.70
   4  -1  -2   80.29    9.92
  -4  -1   2   67.79   10.09
  -4  -1   2   68.03   10.00
  -4  -1   2   64.80    7.66
   4  -1  -1  660.16   28.03
  -4  -1   1  689.89   33.33
  -4  -1   1  690.66   32.72
   4  -1  -1  627.52   22.14
  -4  -1   1  617.20   31.57
  -4  -1   1  668.41   27.27
   4  -1   0  134.80   10.99
  -4  -1   0  147.78   14.90
  -4  -1   0  135.27   14.36
   4  -1   0  126.60   10.27
  -4  -1   0  145.03   14.62
   4  -1   1  175.46   11.40
  -4  -1  -1  180.83   16.97
  -4  -1  -1  179.14   17.02
   4  -1   1  174.99   13.68
  -4  -1  -1  173.27   16.34
   4  -1   2   44.67    4.66
   4  -1   2   53.03    8.26
  -4  -1  -2   54.13    9.43
  -4  -1  -2   26.78    7.26
   4  -1   3   11.58    3.92
  -4  -1  -3   16.94    5.77
   4  -1   3    3.64    3.29
  -4  -1  -3   16.85    6.06
   4  -1   3   14.69    4.85
   4  -1   4  145.45   13.96
   4  -1   4  153.07   16.81
   4  -1   4  147.41   14.27
  -4  -1  -4  135.09   16.14
  -4  -1  -5  220.97   22.81
   4  -1   5  230.74   22.14
   4  -1   5  215.79   18.43
   4  -1   5  243.91   17.58
  -4  -1  -5  230.95   21.88
   4  -1   6  164.37   19.69
  -4  -1  -6  189.86   22.31
   4  -1   6  165.85   17.22
  -4  -1  -6  162.37   19.03
  -4  -1  -7   15.58    6.52
   4  -1   7    8.17    7.25
  -4  -1  -7   20.48    8.64
   4  -1   7   11.56    4.87
  -4  -1  -8   32.33    9.27
   4  -1   8   20.56    8.67
   4   0 -11   92.39   17.03
  -4   0  11   46.01   13.06
   4   0 -10   22.45    7.90
  -4   0  10   26.26    9.04
   4   0  -9  366.33   31.30
  -4   0   9  378.07   31.51
  -4   0   9  352.04   23.70
   4   0  -8  932.97   48.45
  -4   0   8  890.94   47.42
  -4   0   8  926.01   31.71
  -4   0   8  965.26   40.33
   4   0  -7   33.43    8.83
   4   0  -7   37.85    4.80
  -4   0   7   28.47    5.13
  -4   0   7   26.05    7.37
  -4   0   7   49.02    8.50
  -4   0   6   94.20    9.29
   4   0  -6   92.32   13.52
  -4   0   6  101.61    9.67
   4   0  -6   97.50    7.48
  -4   0   6   81.33   10.86
   4   0  -5   -2.31    3.25
  -4   0   5    2.97    3.31
  -4   0   5    0.47    1.90
  -4   0   5    4.01    2.04
   4   0  -5    0.91    1.80
  -4   0   5    2.85    3.46
  -4   0   4  964.81   29.56
  -4   0   4 1007.69   40.67
   4   0  -4  983.28   41.81
  -4   0   4  925.27   33.97
   4   0  -4 1009.34   33.52
  -4   0   4 1006.29   40.10
   4   0  -3  830.04   25.82
   4   0  -3  803.11   35.78
  -4   0   3  858.78   36.45
  -4   0   3  815.36   26.21
  -4   0   3  843.92   32.50
  -4   0   3  855.77   36.48
   4   0  -2 1200.26   42.99
   4   0  -2 1247.68   34.66
  -4   0   2 1243.57   45.17
  -4   0   2 1228.11   34.95
   4   0  -2 1309.58   41.94
  -4   0   2 1213.79   45.38
   4   0  -1  226.08   15.84
  -4   0   1  185.86   16.69
   4   0  -1  184.64   12.43
  -4   0   1  174.65   15.90
   4   0  -1  218.74   14.60
  -4   0   1  216.48   17.49
   4   0   0  241.16   15.34
  -4   0   0  216.99   18.44
  -4   0   0  216.75   13.89
   4   0   0  211.40   14.41
  -4   0   0  191.86   16.92
  -4   0   0  222.34   18.05
   4   0   1   77.65    7.95
  -4   0  -1  113.56   13.32
   4   0   1   82.77    9.71
  -4   0  -1   92.76   11.61
   4   0   2  900.53   27.82
  -4   0  -2  989.86   42.98
   4   0   2  890.91   37.37
   4   0   3   58.89    9.66
   4   0   3   85.91    6.04
  -4   0  -3   92.26   13.08
   4   0   3   95.95    9.87
   4   0   4   30.12    7.97
  -4   0  -4   15.12    5.93
   4   0   4   17.47    4.95
   4   0   4   28.55    6.29
   4   0   5   23.59    7.33
  -4   0  -5   25.07    7.27
  -4   0  -5   49.75   11.00
   4   0   5   35.30    6.72
   4   0   5   19.44    5.23
  -4   0  -6  123.45   16.45
   4   0   6  122.20   17.40
  -4   0  -6  142.93   19.46
   4   0   6  136.74   14.94
  -4   0  -7  308.32   26.82
  -4   0  -7  307.75   29.93
   4   0   7  298.29   28.82
   4   0   8  322.33   32.00
  -4   0  -8  271.20   26.16
   4   1 -11  119.16   19.52
  -4   1  11  131.30   21.12
   4   1 -10   11.29    6.98
  -4   1  10   30.61   10.91
   4   1  -9   49.31   11.59
  -4   1   9   35.95    7.78
   4   1  -8   97.37   15.55
  -4   1   8  139.78   12.46
  -4   1   8  134.24   14.85
  -4   1   7    3.33    3.28
   4   1  -7    4.60    5.08
  -4   1   7    5.34    3.10
   4   1  -6  532.24   32.77
  -4   1   6  506.28   20.11
  -4   1   6  443.74   26.93
  -4   1   6  526.41   24.90
   4   1  -6  524.06   19.40
  -4   1   6  542.32   29.52
  -4   1   5   82.27    6.64
   4   1  -5   71.14   11.50
  -4   1   5   83.20   10.87
   4   1  -5   87.31    5.07
  -4   1   5   77.09    9.42
   4   1  -5  101.39    8.89
  -4   1   5   78.93   10.80
   4   1  -4  397.52   25.56
  -4   1   4  397.21   13.68
  -4   1   4  372.27   22.75
   4   1  -4  386.82   14.57
  -4   1   4  399.01   21.68
   4   1  -4  384.83   19.61
  -4   1   4  384.14   24.20
   4   1  -3  526.94   22.34
   4   1  -3  517.16   28.30
  -4   1   3  550.52   27.67
   4   1  -3  544.15   20.25
   4   1  -3  548.53   24.92
  -4   1   3  542.02   26.04
  -4   1   3  579.66   29.71
   4   1  -2   67.50    7.75
  -4   1   2   90.70   11.43
   4   1  -2   68.59    9.50
  -4   1   2   60.13    8.70
   4   1  -2   94.08    8.65
   4   1  -2   70.40    7.85
  -4   1   2   68.89    9.12
   4   1  -1  642.17   29.04
  -4   1   1  687.45   33.53
   4   1  -1  624.88   26.64
  -4   1   1  607.12   29.94
   4   1  -1  699.50   25.16
  -4   1   1  691.03   30.80
  -4   1   1  698.25   32.99
   4   1   0  141.34   12.04
  -4   1   0  150.19   15.24
  -4   1   0  126.29   10.19
   4   1   0  128.23   11.86
  -4   1   0  143.57   14.31
   4   1   0  139.46    9.84
  -4   1   0  131.62   13.90
   4   1   1  191.92   13.31
  -4   1  -1  183.48   17.27
  -4   1  -1  177.03   10.93
   4   1   1  162.80   14.54
  -4   1  -1  207.44   17.55
  -4   1  -2   56.32    9.87
   4   1   2   38.87    5.57
   4   1   2   65.47   10.17
  -4   1  -2   37.83    8.08
   4   1   2   44.70    5.47
  -4   1  -3   20.67    6.21
   4   1   3   15.22    3.55
   4   1   3   13.10    3.45
   4   1   3   11.25    4.59
   4   1   4  158.33   17.36
   4   1   4  144.07   11.87
   4   1   5  241.89   16.57
  -4   1  -5  194.52   21.44
   4   1   5  216.21   21.98
   4   1   5  258.62   17.51
   4   1   6  180.71   21.34
  -4   1  -6  204.64   23.07
   4   1   7   15.37    8.00
  -4   1  -7   12.91    7.19
   4   1   8   28.97   10.10
   4   2 -11    1.43    4.75
   4   2 -10  569.17   40.98
  -4   2  10  582.39   34.27
   4   2  -9  165.91   20.98
  -4   2   9  185.13   16.00
  -4   2   9  218.86   20.20
   4   2  -8  388.05   30.62
  -4   2   8  296.34   20.38
  -4   2   8  356.15   25.44
  -4   2   7   42.83    8.87
   4   2  -7   41.56   10.19
  -4   2   7   48.73    7.91
   4   2  -6  237.16   21.94
  -4   2   6  249.12   18.78
  -4   2   6  227.07   17.27
  -4   2   6  288.12   21.83
   4   2  -5  211.31   19.68
  -4   2   5  208.03   16.55
  -4   2   5  222.27   16.80
   4   2  -5  202.92   12.98
  -4   2   5  199.56   18.04
   4   2  -4  561.97   25.89
   4   2  -4  580.43   31.80
  -4   2   4  552.38   26.70
   4   2  -4  537.81   15.06
  -4   2   4  581.06   28.03
   4   2  -4  564.26   23.89
  -4   2   4  645.91   32.57
   4   2  -3  212.58   15.03
   4   2  -3  218.55   18.35
  -4   2   3  250.07   17.26
   4   2  -3  216.85   11.30
   4   2  -3  221.26   14.51
  -4   2   3  243.76   17.59
  -4   2   3  262.80   20.07
  -4   2   2 1022.08   41.76
   4   2  -2  992.81   39.68
   4   2  -2  973.90   35.71
  -4   2   2  998.07   37.54
   4   2  -2  998.23   31.79
   4   2  -2 1046.78   31.25
  -4   2   2  954.19   38.03
  -4   2   2 1063.54   42.36
   4   2  -1  463.97   24.73
  -4   2   1  506.29   28.25
   4   2  -1  478.73   24.51
  -4   2   1  440.92   24.21
   4   2  -1  456.62   17.18
  -4   2   1  437.92   24.95
  -4   2   1  507.93   28.06
   4   2   0  257.30   17.41
  -4   2   0  264.37   20.35
  -4   2   0  235.59   14.18
   4   2   0  268.54   18.76
   4   2   0  261.97   10.77
  -4   2   0  249.64   18.97
  -4   2   0  304.66   21.29
   4   2   1  103.67   10.56
  -4   2  -1  130.19   14.34
  -4   2  -1  101.14    7.83
   4   2   1  106.45   12.34
   4   2   1  110.72    6.53
   4   2   1  111.21    5.99
  -4   2  -1  101.76   12.37
   4   2   2  413.18   20.85
  -4   2  -2  463.57   28.43
   4   2   2  412.82   26.16
   4   2   2  418.70   14.26
  -4   2  -2  419.46   25.67
   4   2   3  263.29   15.92
  -4   2  -3  237.56   21.01
   4   2   3  300.95   23.41
   4   2   3  288.85   13.14
  -4   2  -3  275.61   20.66
   4   2   4  232.89   14.22
   4   2   4  198.96   20.37
  -4   2  -5   52.26   11.82
   4   2   5   30.11    8.55
  -4   2  -6  250.07   25.82
   4   2   6  263.44   26.33
  -4   2  -7  198.48   24.51
   4   2   7  152.67   21.18
   4   3 -11   69.91   15.40
   4   3 -10  297.36   29.67
  -4   3  10  311.68   25.82
   4   3  -9   16.85    7.10
  -4   3   9   48.46   10.12
  -4   3   9   42.00    8.51
   4   3  -8  436.58   33.24
  -4   3   8  479.03   28.13
  -4   3   8  515.81   32.09
   4   3  -7  293.94   25.72
  -4   3   7  297.94   20.38
  -4   3   7  289.97   21.24
  -4   3   7  300.26   23.92
   4   3  -6  282.88   24.24
  -4   3   6  280.49   19.04
  -4   3   6  285.54   20.68
  -4   3   6  292.54   23.10
   4   3  -5   83.96   12.70
  -4   3   5   71.86    8.99
   4   3  -5   83.88    7.73
  -4   3   5   66.66    9.72
  -4   3   5   67.40   10.89
   4   3  -4  294.02   19.80
   4   3  -4  278.55   22.34
  -4   3   4  288.39   18.22
  -4   3   4  343.48   22.17
   4   3  -4  339.41   17.47
  -4   3   4  341.52   24.04
   4   3  -3  269.92   18.55
   4   3  -3  287.23   21.64
  -4   3   3  258.09   16.89
   4   3  -3  269.38   15.12
  -4   3   3  261.70   19.34
  -4   3   3  271.30   17.96
  -4   3   3  241.78   19.91
  -4   3   2  320.63   22.44
   4   3  -2  348.80   22.99
   4   3  -2  301.51   20.11
  -4   3   2  332.07   19.57
   4   3  -2  327.35   16.46
  -4   3   2  349.97   22.39
   4   3  -2  310.94   14.04
  -4   3   2  329.40   20.74
  -4   3   2  313.55   22.46
  -4   3   1 1400.73   49.76
   4   3  -1 1222.52   45.47
   4   3  -1 1289.22   46.24
  -4   3   1 1274.53   46.74
   4   3  -1 1292.50   27.85
  -4   3   1 1279.39   48.61
  -4   3   0  131.75   10.62
   4   3   0  117.54   12.40
  -4   3   0  113.53   13.21
  -4   3   0   98.67   12.38
  -4   3   0   99.68   12.20
   4   3   0  105.60   12.52
  -4   3  -1  269.67   13.43
  -4   3  -1  285.64   21.52
   4   3   1  249.56   17.67
   4   3   1  227.58   19.22
  -4   3  -1  244.57   19.59
  -4   3  -1  273.08   20.60
  -4   3  -2   31.58    7.35
   4   3   2   24.99    5.71
   4   3   2   32.03    7.91
  -4   3  -2   32.87    7.25
  -4   3  -3  347.02   25.44
   4   3   3  383.03   21.19
   4   3   3  329.91   25.62
  -4   3  -3  357.02   23.79
   4   3   4 1345.90   43.69
   4   3   4 1330.82   57.70
  -4   3  -4 1396.45   50.86
   4   3   5  124.37   17.53
  -4   3  -6   57.28   12.64
   4   3   6   51.71   11.94
  -4   3  -7  129.90   19.56
   4   3   7  114.44   18.86
   4   4 -10  184.75   23.64
   4   4  -9   90.75   16.38
  -4   4   9   75.11   12.19
   4   4  -8  279.73   26.93
  -4   4   8  294.37   23.11
   4   4  -7  246.11   24.33
  -4   4   7  267.46   18.12
  -4   4   7  228.19   19.93
   4   4  -6  200.81   21.01
  -4   4   6  211.27   15.34
  -4   4   6  237.67   19.94
  -4   4   6  228.53   15.10
  -4   4   5   88.10   13.04
  -4   4   5   66.38    8.57
   4   4  -5   86.10   13.25
  -4   4   5   60.11    7.91
  -4   4   5   73.48   11.07
   4   4  -4  927.93   40.00
   4   4  -4  901.01   42.92
  -4   4   4  910.08   32.76
   4   4  -4  970.84   31.96
  -4   4   4  957.08   41.20
   4   4  -4  932.39   34.16
  -4   4   4  994.87   37.28
  -4   4   4 1043.27   45.67
   4   4  -3  318.25   21.89
   4   4  -3  299.24   22.88
  -4   4   3  329.64   18.15
  -4   4   3  291.46   21.55
   4   4  -3  315.95   15.85
  -4   4   3  316.67   20.50
  -4   4   3  314.11   23.45
  -4   4   2   71.35   10.33
   4   4  -2   64.84   10.37
   4   4  -2   80.55   10.91
  -4   4   2   72.60   10.69
  -4   4   2   57.03    8.96
  -4   4   2   58.43    9.92
  -4   4   1 1188.79   45.49
   4   4  -1 1087.59   43.74
   4   4  -1 1038.42   43.46
  -4   4   1 1066.17   44.09
  -4   4   1 1076.03   43.03
  -4   4   1 1096.18   45.60
  -4   4   0  401.51   20.61
  -4   4   0  438.86   26.58
   4   4   0  417.04   25.20
   4   4   0  421.08   27.06
  -4   4   0  401.33   25.68
  -4   4   0  415.73   26.36
  -4   4   0  419.55   26.52
  -4   4  -1  157.77   10.89
  -4   4  -1  175.01   16.86
   4   4   1  177.82   15.90
   4   4   1  180.26   18.03
  -4   4  -1  161.50   16.33
  -4   4  -1  185.97   17.78
  -4   4  -1  185.33   17.23
  -4   4  -2   62.93   10.28
   4   4   2   60.01    9.23
  -4   4  -2   60.60   10.50
   4   4   2   71.14   11.89
  -4   4  -2   52.90    9.19
  -4   4  -3  152.53   16.65
   4   4   3  164.97   15.00
   4   4   3  119.84   16.21
  -4   4  -3  181.76   16.76
   4   4   4   46.79    8.30
   4   4   4   50.71   10.99
  -4   4  -4   52.32    9.20
   4   4   5  108.66   16.97
   4   4   6  286.11   28.94
  -4   4  -7   -0.76    3.44
   4   4   7   -1.58    4.34
   4   5 -10  140.36   20.79
  -4   5  10  141.05   17.60
   4   5  -9  287.64   28.85
  -4   5   9  236.25   22.61
   4   5  -8  245.52   25.73
  -4   5   8  212.79   20.86
   4   5  -7  197.83   22.19
  -4   5   7  176.02   18.59
   4   5  -6   58.01   11.64
  -4   5   6   41.20    9.35
  -4   5   6   47.75    7.48
   4   5  -5  618.76   36.95
  -4   5   5  598.23   23.34
  -4   5   5  589.69   33.78
  -4   5   5  607.12   28.95
  -4   5   4   75.88    7.58
   4   5  -4   84.38   13.03
  -4   5   4   92.11   11.23
   4   5  -4   81.27   11.83
  -4   5   4   78.43   11.85
   4   5  -3  293.39   22.44
   4   5  -3  341.12   25.41
  -4   5   3  331.67   24.33
  -4   5   3  335.06   22.26
  -4   5   3  316.85   24.84
  -4   5   2   70.62   10.45
  -4   5   2   69.56   10.38
   4   5  -2   79.09   12.01
   4   5  -2   75.12   11.38
  -4   5   2   67.13   10.63
  -4   5   2   92.96   13.26
  -4   5   1  979.90   41.24
   4   5  -1  911.93   42.47
   4   5  -1  947.13   42.36
  -4   5   1  869.67   40.98
  -4   5   1  918.79   40.93
  -4   5   1 1055.40   45.07
  -4   5   0  583.05   30.72
   4   5   0  546.46   30.88
   4   5   0  474.04   30.59
  -4   5   0  485.02   29.63
  -4   5   0  548.05   31.45
  -4   5   0  575.51   32.30
  -4   5  -1  214.89   18.56
   4   5   1  173.15   16.83
   4   5   1  177.29   18.86
  -4   5  -1  182.49   17.97
  -4   5  -1  211.19   19.72
  -4   5  -1  185.70   17.95
  -4   5  -2  327.29   24.01
   4   5   2  335.72   23.44
   4   5   2  316.41   26.12
  -4   5  -2  368.45   25.99
  -4   5  -2  332.99   25.76
  -4   5  -2  323.53   23.56
   4   5   3  539.61   30.39
   4   5   3  617.00   38.27
  -4   5  -3  542.85   34.31
  -4   5  -3  585.05   31.79
   4   5   4  191.04   17.66
   4   5   4  167.39   20.65
  -4   5  -4  214.49   18.61
   4   5   5   45.26   11.84
  -4   5  -5   53.09    9.00
   4   5   6   35.31   10.81
  -4   6  10  126.82   17.81
   4   6  -9  150.07   21.04
  -4   6   9  173.97   20.23
   4   6  -8   64.76   13.82
  -4   6   8   43.73   10.18
   4   6  -7   53.67   11.83
  -4   6   7   66.96   12.40
  -4   6   6   60.46    9.04
   4   6  -6   51.59   11.64
  -4   6   6   50.83   10.69
   4   6  -5  127.74   17.38
  -4   6   5  153.80   17.61
  -4   6   5  132.21   14.16
   4   6  -4   48.01   10.45
   4   6  -4   44.09    9.47
  -4   6   4   38.82    9.08
  -4   6   4   27.77    6.77
  -4   6   3  116.94   13.68
   4   6  -3  107.73   15.08
   4   6  -3   81.59   12.71
  -4   6   3  106.66   14.45
  -4   6   3  125.23   14.14
  -4   6   2   41.22    7.98
   4   6  -2   53.93   10.97
   4   6  -2   54.52   10.52
  -4   6   2   54.80   10.16
  -4   6   2   47.20    9.76
  -4   6   2   45.86    9.04
  -4   6   1  316.69   22.29
   4   6  -1  280.84   23.84
   4   6  -1  315.34   24.69
  -4   6   1  265.96   22.71
  -4   6   1  317.02   24.11
  -4   6   1  371.51   26.98
  -4   6   0   28.12    6.47
  -4   6   0    7.45    4.27
   4   6   0   13.58    5.45
   4   6   0   22.45    7.54
  -4   6   0   24.80    7.26
  -4   6   0   27.54    7.46
  -4   6  -1  358.83   24.38
   4   6   1  345.86   25.45
   4   6   1  340.24   27.81
  -4   6  -1  328.54   25.22
  -4   6  -1  317.19   25.52
  -4   6  -1  319.45   24.27
  -4   6  -2  168.98   16.95
   4   6   2  157.93   17.18
  -4   6  -2  143.48   16.73
   4   6   2  131.35   17.65
  -4   6  -2  156.74   16.73
  -4   6  -2  150.10   17.98
   4   6   3  152.68   16.98
   4   6   3  198.09   22.58
  -4   6  -3  168.05   18.45
  -4   6  -3  162.47   16.70
  -4   6  -3  160.55   18.88
   4   6   4   92.74   13.27
   4   6   4   73.61   14.52
  -4   6  -4   78.83   13.72
  -4   6  -4   77.91   11.31
   4   6   5   90.40   13.03
   4   6   5   81.83   15.61
  -4   7   9   61.59   13.03
   4   7  -8  267.29   28.20
  -4   7   8  240.67   24.98
   4   7  -7   39.70   10.79
  -4   7   7   42.85   10.48
   4   7  -6  122.66   18.28
  -4   7   6  142.72   18.24
  -4   7   6  149.87   15.61
   4   7  -5   40.56   10.53
  -4   7   5   51.05   10.91
  -4   7   5   45.87    8.95
   4   7  -4   58.02   11.86
   4   7  -4   52.95   10.86
  -4   7   4   47.82   10.46
  -4   7   4   49.73    9.25
  -4   7   3   17.54    5.88
  -4   7   3    9.32    4.77
   4   7  -3   15.18    6.28
   4   7  -3    8.81    4.86
  -4   7   3   32.19    8.85
  -4   7   2  130.95   14.11
   4   7  -2  106.15   15.22
   4   7  -2   94.68   14.66
  -4   7   2  110.70   15.06
  -4   7   2   81.90   12.52
   4   7  -1  536.62   35.18
  -4   7   1  483.60   28.00
   4   7  -1  582.04   35.62
  -4   7   1  509.72   33.24
  -4   7   1  558.48   34.09
  -4   7   1  528.09   33.98
  -4   7   0   71.36   10.47
   4   7   0   62.88   11.46
   4   7   0   72.09   13.11
  -4   7   0   67.88   11.62
  -4   7   0   81.02   12.82
  -4   7   0   70.94   12.24
  -4   7  -1   43.09    8.42
  -4   7  -1   47.65   10.46
   4   7   1   45.17    9.98
   4   7   1   27.94    8.60
  -4   7  -1   30.40    7.99
  -4   7  -1   15.76    6.03
   4   7   2  447.35   31.15
   4   7   2  463.34   35.15
  -4   7  -2  475.27   31.92
  -4   7  -2  477.65   33.39
  -4   7  -2  464.05   30.35
  -4   7  -3   40.80    8.92
   4   7   3   35.76    9.14
  -4   7  -3   44.04   10.09
   4   7   3   43.82   11.16
  -4   7  -3   23.18    7.77
   4   7   4  194.01   20.67
   4   7   4  254.57   27.52
  -4   7  -4  211.85   23.31
   4   7   5   16.96    6.56
   4   7   5   28.19    9.96
  -4   8   8   34.13   10.53
   4   8  -7    3.50    5.06
  -4   8   7    9.84    6.29
   4   8  -6   65.44   14.45
  -4   8   6   68.23   13.30
  -4   8   6   82.25   12.39
   4   8  -5  142.77   19.90
  -4   8   5  153.21   19.63
  -4   8   5  176.83   18.38
   4   8  -4  226.32   24.08
  -4   8   4  245.58   20.18
   4   8  -4  286.68   27.24
  -4   8   4  211.13   22.83
  -4   8   4  261.50   22.84
  -4   8   3  129.11   14.17
   4   8  -3  109.52   16.76
   4   8  -3  109.15   16.51
  -4   8   3  105.49   16.11
  -4   8   3  134.49   16.70
  -4   8   2  146.82   14.79
   4   8  -2  156.12   19.36
   4   8  -2  124.52   17.49
  -4   8   2  146.88   18.55
  -4   8   2  172.99   19.06
  -4   8   1   52.31    8.85
   4   8  -1   58.50   11.88
   4   8  -1   58.26   12.34
  -4   8   1   42.00   10.30
  -4   8   1   44.93   10.12
  -4   8   1   42.55   10.01
  -4   8   0   38.72    8.12
  -4   8   0   51.58   11.49
  -4   8   0   34.31    9.06
   4   8   0   32.05    8.83
   4   8   0   42.04   10.72
  -4   8   0   37.98    9.65
  -4   8  -1   16.25    6.00
   4   8   1   25.72    8.18
   4   8   1   11.91    6.57
  -4   8  -1   15.00    7.08
  -4   8  -1   29.18    8.64
   4   8   2   36.02    9.76
   4   8   2   58.79   13.26
  -4   8  -2   37.01    9.20
  -4   8  -2   52.26   11.83
  -4   8  -2   48.82   10.30
   4   8   3   22.56    7.55
  -4   8  -3   21.32    7.86
   4   8   3   46.87   12.04
  -4   8  -3   32.22    9.62
  -4   8  -3   31.12    8.11
   4   8   4   16.95    7.19
  -4   8  -4   17.13    6.71
   4   8   4   28.15   10.45
  -4   8  -4   21.96    8.18
   4   8   5    7.10    5.51
  -4   9   6  115.57   15.80
   4   9  -5  330.13   31.30
  -4   9   5  264.56   27.51
  -4   9   5  277.07   24.56
   4   9  -4   10.65    7.29
   4   9  -4    6.95    5.05
  -4   9   4    8.27    6.07
  -4   9   4    9.32    5.76
   4   9  -3   22.00    7.99
   4   9  -3    6.43    4.60
  -4   9   3   12.22    6.28
  -4   9   3   10.57    6.26
   4   9  -2   16.46    7.55
   4   9  -2   20.95    7.94
  -4   9   2   15.61    6.73
  -4   9   2   13.75    6.27
   4   9  -1   -3.48    5.99
   4   9  -1    4.18    5.24
  -4   9   1    0.74    3.25
  -4   9   1    2.54    4.50
   4   9   0   35.28    9.64
   4   9   0   48.48   11.34
  -4   9   0   55.42   11.72
  -4   9   0   54.83   12.00
   4   9   1   64.83   13.37
   4   9   1   43.50   11.59
  -4   9  -1   52.54   11.49
  -4   9  -1   62.40   12.14
  -4   9  -1   25.85    8.71
   4   9   2   34.18   10.04
   4   9   2   14.46    7.68
  -4   9  -2    8.14    4.87
  -4   9  -2   20.33    7.60
  -4   9  -2   26.68    8.66
   4   9   3  143.79   19.90
  -4   9  -3  175.80   20.97
   4   9   4   15.03    7.15
  -4   9  -4   25.32    7.98
  -4  10   5  121.80   17.38
  -4  10   4   14.24    7.29
  -4  10   3  147.14   19.51
   4  10  -2   17.15    8.58
  -4  10   2    6.14    4.66
  -4  10   2   12.49    6.61
   4  10  -1  165.88   22.12
  -4  10   1  172.66   21.74
  -4  10   1  146.73   20.14
   4  10   0  159.05   21.80
  -4  10   0  142.55   19.59
  -4  10   0  169.71   20.93
  -4  10  -1   55.48   12.16
  -4  10  -1   52.60   11.97
  -4  11   0   23.92    8.93
  -4  11  -1   32.99   10.04
  -5  -9   3  157.13   22.10
  -5  -9   2   85.57   15.95
  -5  -9   1   18.63    7.29
  -5  -9   1   12.74    7.33
  -5  -9   0   31.12    9.35
  -5  -9   0   48.40   12.63
  -5  -9  -1   69.68   14.65
   5  -8  -6   82.78   15.84
  -5  -8   5  130.50   20.02
   5  -8  -5  137.22   20.02
  -5  -8   4   22.21    8.77
   5  -8  -4   36.11   10.76
  -5  -8   3   21.74    8.61
   5  -8  -3   21.28    9.27
  -5  -8   2  155.85   20.67
   5  -8  -2  202.60   24.60
  -5  -8   2  225.36   21.53
  -5  -8   1   27.48    8.54
  -5  -8   1   38.98   10.82
   5  -8  -1   39.08   10.96
  -5  -8   0   77.28   13.66
  -5  -8   0   79.26   14.83
   5  -8   0   92.69   16.86
  -5  -8  -1  155.40   20.19
  -5  -8  -1  174.15   22.15
   5  -8   1  154.23   21.68
   5  -8   2  168.04   22.51
  -5  -8  -2  183.60   20.65
  -5  -8  -3   54.23   12.45
   5  -7  -8    5.14    5.52
   5  -7  -7   -7.10    6.61
   5  -7  -6    8.56    5.11
  -5  -7   6   18.52    7.81
   5  -7  -5    7.85    5.63
  -5  -7   5   16.15    6.56
  -5  -7   5   27.40    9.08
   5  -7  -4   22.12    8.37
  -5  -7   4   15.98    6.55
  -5  -7   4   18.19    8.05
   5  -7  -3   55.10   12.61
  -5  -7   3   65.15   11.00
  -5  -7   3   76.06   12.35
  -5  -7   3   76.92   14.34
  -5  -7   2   64.78   11.35
  -5  -7   2   89.37   13.14
  -5  -7   2   50.30   12.10
   5  -7  -2   79.58   14.77
  -5  -7   1  391.51   27.73
  -5  -7   1  441.89   33.82
   5  -7  -1  386.15   32.73
  -5  -7   1  363.97   28.15
  -5  -7   0    8.04    5.95
  -5  -7   0   13.67    6.09
  -5  -7   0   11.40    6.27
   5  -7   0   15.02    7.11
  -5  -7  -1   62.10   12.82
  -5  -7  -1   80.79   12.99
  -5  -7  -1   77.90   14.93
  -5  -7  -1   66.18   11.56
   5  -7   1  102.53   16.93
  -5  -7  -2  225.65   22.30
   5  -7   2  202.36   23.76
   5  -7   3   21.43    8.50
  -5  -7  -3   18.23    7.76
   5  -7   4   46.45   11.62
  -5  -7  -4   35.81   10.58
   5  -6  -9   27.69    9.71
   5  -6  -8   15.86    6.83
  -5  -6   7  166.60   22.21
   5  -6  -7  122.07   17.74
  -5  -6   6    9.36    6.47
   5  -6  -6    5.55    5.11
  -5  -6   5   27.11    8.94
   5  -6  -5   35.24    9.73
  -5  -6   4   14.28    5.72
  -5  -6   4   17.95    6.66
   5  -6  -4   28.57    9.27
  -5  -6   3  106.30   14.43
  -5  -6   3   92.84   15.40
   5  -6  -3   80.59   14.27
  -5  -6   2    7.36    3.80
  -5  -6   2    3.75    3.45
   5  -6  -2   13.08    6.79
  -5  -6   2   12.65    6.24
  -5  -6   1  435.40   29.57
  -5  -6   1  396.88   31.44
   5  -6  -1  413.17   32.38
  -5  -6   1  375.99   27.99
  -5  -6   0  478.71   31.13
  -5  -6   0  411.97   32.35
  -5  -6   0  421.73   26.15
   5  -6   0  417.14   32.54
  -5  -6   0  348.98   28.18
  -5  -6  -1   24.30    8.00
  -5  -6  -1   28.29    8.40
  -5  -6  -1   20.63    7.72
  -5  -6  -1   41.37    8.93
   5  -6   1   32.72   10.14
  -5  -6  -2  392.91   29.34
  -5  -6  -2  332.10   26.50
   5  -6   2  343.78   29.74
  -5  -6  -2  337.22   29.47
  -5  -6  -3   37.75   11.10
  -5  -6  -3   25.71    8.48
   5  -6   3   13.38    6.63
   5  -6   4  120.74   17.60
  -5  -6  -4  110.19   17.08
   5  -6   5   25.48    9.49
  -5  -5  10  141.80   21.77
   5  -5  -9   71.64   13.76
  -5  -5   9   66.10   13.60
   5  -5  -8   49.58   11.55
  -5  -5   8   42.17   11.99
  -5  -5   8   54.70   11.91
   5  -5  -7  320.84   28.20
  -5  -5   7  363.42   32.06
  -5  -5   7  386.87   28.11
   5  -5  -6  145.29   19.00
  -5  -5   6  147.79   20.02
   5  -5  -5   85.94   14.39
  -5  -5   5   89.21   15.35
   5  -5  -4  127.17   17.50
  -5  -5   4  115.54   15.53
  -5  -5   4  117.21   16.91
  -5  -5   3   27.75    7.96
  -5  -5   3   28.78    8.72
   5  -5  -3   20.24    7.14
  -5  -5   2  114.83   14.49
  -5  -5   2   96.79   13.91
  -5  -5   2  108.83   16.13
   5  -5  -2  105.77   15.91
  -5  -5   1   42.71    9.28
  -5  -5   1   59.36   10.87
  -5  -5   1   47.20   10.34
   5  -5  -1   34.86    9.69
  -5  -5   0  174.69   18.71
  -5  -5   0  139.02   17.93
   5  -5   0  155.19   18.85
  -5  -5   0  167.55   18.62
  -5  -5  -1   50.46   10.84
   5  -5   1   70.48   12.78
  -5  -5  -1   66.86   12.23
  -5  -5  -1   65.53   12.77
   5  -5   2  106.66   15.99
  -5  -5  -2  118.78   17.09
  -5  -5  -2  112.21   15.62
   5  -5   3  577.36   37.28
  -5  -5  -3  530.44   37.57
  -5  -5  -4   51.79   11.99
   5  -5   4   50.69   10.81
   5  -5   5   -0.50    3.52
   5  -5   6  118.02   18.71
  -5  -4  10  206.65   25.16
   5  -4  -9   56.15   11.99
  -5  -4   9   52.38   12.42
  -5  -4   8   37.27   10.57
   5  -4  -8   63.45   12.60
  -5  -4   8   76.68   13.79
  -5  -4   7   79.39   14.76
  -5  -4   7  125.20   15.86
   5  -4  -7   91.66   14.80
   5  -4  -6  174.83   20.98
   5  -4  -6  197.93   21.66
  -5  -4   6  207.00   23.06
  -5  -4   6  192.23   18.20
   5  -4  -5  133.36   17.22
   5  -4  -5  169.53   19.65
  -5  -4   5  126.58   17.67
   5  -4  -4  110.56   16.05
  -5  -4   4   95.97   15.07
  -5  -4   3  326.41   25.90
   5  -4  -3  378.08   29.19
  -5  -4   3  397.30   29.88
  -5  -4   2  453.72   30.24
   5  -4  -2  438.70   31.51
  -5  -4   2  461.31   32.12
  -5  -4   1  412.36   28.74
   5  -4  -1  414.80   30.32
  -5  -4   1  386.92   29.52
  -5  -4   1  372.22   26.66
   5  -4   0  129.43   16.65
  -5  -4   0  125.66   15.74
  -5  -4   0   97.00   13.97
  -5  -4   0   92.25   14.44
  -5  -4  -1  143.13   17.22
  -5  -4  -1  151.73   17.61
  -5  -4  -1  164.68   19.44
   5  -4   1  143.78   17.65
  -5  -4  -2  132.61   17.48
  -5  -4  -2   91.50   14.17
   5  -4   2  100.98   14.93
  -5  -4  -3   10.54    5.56
   5  -4   3    2.03    3.35
  -5  -4  -3   -0.01    2.92
   5  -4   4    4.48    3.84
  -5  -4  -4    4.14    5.28
   5  -4   4    3.05    4.09
  -5  -4  -5   67.93   13.84
   5  -4   5   63.22   12.45
   5  -4   5   58.80   12.08
   5  -4   6   68.61   14.08
   5  -4   6   63.50   13.00
   5  -3 -10  470.01   34.22
  -5  -3  10  449.40   37.36
   5  -3  -9    9.40    5.13
   5  -3  -9   18.49    8.91
  -5  -3   9   20.98    8.29
   5  -3  -8   53.33   12.77
  -5  -3   8   34.63    9.72
  -5  -3   8   37.25   10.17
   5  -3  -8   59.47   12.17
   5  -3  -7   30.82    9.01
  -5  -3   7   28.23    9.48
  -5  -3   7   39.53    9.05
   5  -3  -6    8.95    4.80
  -5  -3   6    7.58    4.54
   5  -3  -5  207.94   21.17
  -5  -3   5  227.05   22.40
   5  -3  -4   46.41    9.70
  -5  -3   4   58.35   11.35
  -5  -3   3   -4.09    3.73
   5  -3  -3    4.11    3.91
  -5  -3   3    6.55    4.26
   5  -3  -3    4.06    4.52
   5  -3  -2  593.43   31.41
  -5  -3   2  639.06   36.21
   5  -3  -2  643.11   37.47
  -5  -3   2  644.05   37.38
  -5  -3   1  390.87   27.78
   5  -3  -1  329.33   26.35
  -5  -3   1  384.23   28.55
   5  -3  -1  351.47   22.25
  -5  -3   0  645.95   36.53
   5  -3   0  580.97   35.18
  -5  -3   0  538.52   34.78
  -5  -3   0  563.54   33.79
  -5  -3  -1   -7.22    4.48
  -5  -3  -1    0.99    3.12
  -5  -3  -1   -3.83    4.13
   5  -3   1   -1.24    2.88
   5  -3   1    3.92    3.11
  -5  -3  -2   91.24   14.30
   5  -3   2  152.02   17.40
  -5  -3  -2  136.54   17.23
   5  -3   2  140.65   13.92
   5  -3   3   14.41    5.54
  -5  -3  -3    6.01    4.10
  -5  -3  -3   14.42    6.77
   5  -3   3    5.24    4.29
   5  -3   4   18.22    6.31
  -5  -3  -4   27.39    8.18
   5  -3   4   13.98    5.86
   5  -3   4   12.76    6.60
  -5  -3  -5    8.72    5.12
   5  -3   5    2.53    3.92
   5  -3   5   -0.57    3.31
   5  -3   6  102.89   16.66
   5  -3   7    3.59    5.64
  -5  -2  10    1.01    3.77
   5  -2  -9    5.92    4.29
  -5  -2   9   25.07    8.73
   5  -2  -8   82.25   15.06
  -5  -2   8   92.75   15.29
  -5  -2   8   86.86   14.44
  -5  -2   8   74.64   11.61
   5  -2  -7  199.71   22.75
  -5  -2   7  209.43   22.34
  -5  -2   7  240.10   20.67
   5  -2  -6   27.79    8.61
  -5  -2   6   23.31    7.95
  -5  -2   6   38.29    8.33
   5  -2  -5   82.55   13.41
  -5  -2   5   55.41   10.92
  -5  -2   5   76.84   12.22
   5  -2  -4  988.10   45.80
  -5  -2   4  956.72   46.51
  -5  -2   4 1043.19   45.52
   5  -2  -3  530.87   30.90
  -5  -2   3  477.60   31.61
  -5  -2   3  561.06   34.01
  -5  -2   3  536.39   31.91
   5  -2  -2  254.59   19.81
  -5  -2   2  261.52   22.60
  -5  -2   2  239.27   21.94
  -5  -2   1   25.56    7.71
   5  -2  -1   32.22    6.84
  -5  -2   1   20.51    6.83
   5  -2  -1   18.19    3.53
   5  -2   0  111.84   11.19
  -5  -2   0  115.77   15.12
   5  -2   0  111.29   14.71
   5  -2   0  114.12   10.20
  -5  -2   0  105.35   15.10
  -5  -2  -1  120.97   15.93
   5  -2   1  118.07   11.70
  -5  -2  -1  103.15   15.03
   5  -2   1  126.14   15.60
  -5  -2  -2  774.79   41.79
   5  -2   2  684.76   37.40
   5  -2   2  745.52   34.34
  -5  -2  -2  628.63   37.82
   5  -2   3  223.77   20.71
  -5  -2  -3  228.33   23.05
   5  -2   3  232.59   20.17
  -5  -2  -3  230.05   23.20
   5  -2   4   25.67    7.76
   5  -2   4   37.88    9.18
  -5  -2  -4   25.77    8.84
   5  -2   4   27.15    7.32
   5  -2   5  386.92   30.33
   5  -2   5  310.89   24.91
  -5  -2  -5  321.78   29.32
   5  -2   6   11.65    7.50
  -5  -2  -6   19.74    8.08
   5  -2   7  122.44   19.45
   5  -1 -10   34.73   11.98
  -5  -1  10   22.75    8.86
   5  -1  -9  125.54   19.28
  -5  -1   9  146.79   16.34
   5  -1  -8   43.83   10.99
  -5  -1   8   40.48   10.53
  -5  -1   8   50.46    9.63
   5  -1  -7  290.29   27.14
  -5  -1   7  315.81   26.81
  -5  -1   7  299.71   23.42
   5  -1  -6    6.80    5.28
  -5  -1   6   -3.99    5.04
  -5  -1   6    0.18    2.58
   5  -1  -5   22.11    7.30
  -5  -1   5   38.36    9.08
  -5  -1   5   38.36    8.66
   5  -1  -4  505.55   31.42
  -5  -1   4  466.69   30.71
  -5  -1   4  518.03   31.04
   5  -1  -3 1409.30   52.65
  -5  -1   3 1355.04   55.51
  -5  -1   3 1251.46   52.46
  -5  -1   3 1396.83   54.17
   5  -1  -2  517.82   28.95
   5  -1  -2  566.22   20.19
  -5  -1   2  568.29   34.21
  -5  -1   2  595.86   34.31
  -5  -1   2  556.14   32.65
   5  -1  -1  269.75   19.12
  -5  -1   1  274.25   23.37
   5  -1  -1  267.96   15.25
  -5  -1   1  303.97   24.21
  -5  -1   1  260.64   22.50
   5  -1   0  315.25   19.47
  -5  -1   0  362.17   27.13
   5  -1   0  357.50   19.80
  -5  -1   0  323.91   25.72
   5  -1   1  147.50   11.72
  -5  -1  -1  155.33   17.79
   5  -1   1  135.64   13.37
  -5  -1  -2  193.59   20.57
   5  -1   2  181.21   18.40
   5  -1   2  208.02   17.89
   5  -1   3   11.58    4.41
  -5  -1  -3    4.95    4.78
   5  -1   3   11.68    5.29
   5  -1   3   12.15    4.80
   5  -1   4   82.37   13.09
   5  -1   4   93.82   12.84
   5  -1   4   87.70   11.57
   5  -1   5  153.36   19.14
  -5  -1  -5  154.38   19.93
   5  -1   6  127.21   18.67
  -5  -1  -6   92.51   16.23
   5  -1   7   27.20    9.53
   5   0 -10   19.01    8.67
   5   0  -9    3.32    5.57
  -5   0   9    1.43    3.41
   5   0  -8  632.54   41.91
  -5   0   8  544.58   35.81
  -5   0   8  608.35   34.84
   5   0  -7  808.81   45.69
  -5   0   7  658.89   38.70
  -5   0   7  716.14   31.12
  -5   0   7  804.88   40.37
   5   0  -6    3.89    3.68
  -5   0   6   15.07    6.25
  -5   0   6   11.41    3.99
  -5   0   6    0.39    2.41
   5   0  -5   -1.63    3.24
  -5   0   5    4.04    3.49
  -5   0   5    0.04    2.31
  -5   0   5    2.24    2.79
   5   0  -4    0.65    2.75
  -5   0   4    9.47    5.61
  -5   0   4    9.99    5.33
   5   0  -3  135.10   10.01
   5   0  -3  129.20   15.11
  -5   0   3  109.48   14.17
  -5   0   3  159.57   17.06
   5   0  -2  261.67   20.41
  -5   0   2  282.50   23.57
   5   0  -2  278.62   15.72
  -5   0   2  239.06   21.04
  -5   0   2  270.90   22.52
   5   0  -1  169.04   15.32
  -5   0   1  172.60   18.46
   5   0  -1  187.94   13.98
  -5   0   1  188.46   18.53
  -5   0   1  202.43   19.21
   5   0   0  167.82   14.47
  -5   0   0  171.64   18.41
   5   0   0  160.53   13.98
  -5   0   0  186.27   18.95
  -5   0   0  175.92   18.23
  -5   0  -1   30.55    8.44
   5   0   1   23.75    4.97
   5   0   1   21.11    5.65
  -5   0  -1   40.84    9.18
  -5   0  -2  370.90   28.51
   5   0   2  340.08   24.03
  -5   0  -3   45.61   10.60
   5   0   3   56.16   10.37
   5   0   4    5.27    4.28
   5   0   4   11.68    6.14
   5   0   5    3.25    4.10
   5   0   6   21.57    8.31
   5   1 -10   38.48   10.76
   5   1  -9  113.30   18.37
  -5   1   9  110.42   15.91
  -5   1   9  122.19   15.81
   5   1  -8   38.65   10.59
  -5   1   8   35.75    9.04
  -5   1   8   38.74    9.27
   5   1  -7  304.92   27.66
  -5   1   7  300.15   24.38
  -5   1   7  292.33   20.13
  -5   1   7  331.61   25.70
   5   1  -6   16.24    6.30
  -5   1   6    4.38    3.59
  -5   1   6    3.31    2.82
  -5   1   6   10.04    5.28
   5   1  -5   17.63    6.02
  -5   1   5   26.29    7.22
  -5   1   5   20.21    5.58
  -5   1   5   23.26    7.34
   5   1  -4  460.86   30.38
  -5   1   4  443.44   28.15
  -5   1   4  492.32   27.40
  -5   1   4  537.91   32.30
   5   1  -3 1390.12   42.94
   5   1  -3 1348.52   53.10
  -5   1   3 1269.51   50.73
  -5   1   3 1386.14   49.91
  -5   1   3 1446.40   55.58
   5   1  -2  523.99   30.09
  -5   1   2  568.59   34.18
   5   1  -2  555.19   25.67
  -5   1   2  530.91   30.90
   5   1  -2  607.09   26.69
  -5   1   2  557.66   32.93
   5   1  -1  267.81   19.89
  -5   1   1  315.83   25.13
   5   1  -1  256.28   18.00
  -5   1   1  276.27   22.10
  -5   1   1  271.37   22.62
   5   1   0  320.91   21.02
  -5   1   0  378.02   27.65
   5   1   0  351.03   22.40
  -5   1   0  382.40   27.04
   5   1   1  153.36   13.44
  -5   1  -1  136.53   16.70
   5   1   1  139.83   14.69
  -5   1  -1  172.16   18.06
   5   1   2  192.99   13.99
  -5   1  -2  211.90   21.45
   5   1   2  222.67   19.87
  -5   1  -2  205.89   20.12
  -5   1  -3    9.25    4.99
   5   1   3    5.90    4.28
   5   1   4   82.00   13.93
   5   1   5  159.88   20.45
   5   1   6  101.93   17.24
  -5   2  10   13.52    5.75
   5   2  -9   24.77    8.78
  -5   2   9   20.78    7.62
  -5   2   9   20.73    7.24
   5   2  -8   80.92   15.83
  -5   2   8   83.05   12.78
  -5   2   8   97.04   12.12
  -5   2   8  104.76   15.08
   5   2  -7  203.44   23.09
  -5   2   7  244.49   20.95
  -5   2   7  197.84   17.82
  -5   2   7  232.69   22.10
   5   2  -6   26.82    8.32
  -5   2   6   25.60    7.04
  -5   2   6   33.60    7.17
  -5   2   6   24.33    7.88
   5   2  -5   57.50   11.49
  -5   2   5   60.98   10.27
  -5   2   5   68.93   10.09
  -5   2   5   72.28   12.00
   5   2  -4 1040.44   38.96
   5   2  -4 1043.01   48.06
  -5   2   4 1003.97   42.42
  -5   2   4 1065.43   43.48
  -5   2   4 1089.85   48.44
   5   2  -3  489.46   25.42
   5   2  -3  540.58   32.08
  -5   2   3  538.65   33.54
  -5   2   3  480.89   28.27
  -5   2   3  529.49   29.74
  -5   2   3  497.72   31.63
   5   2  -2  259.90   21.13
  -5   2   2  273.30   23.33
   5   2  -2  246.03   18.19
  -5   2   2  239.17   19.71
  -5   2   2  261.83   21.05
  -5   2   2  334.14   25.10
  -5   2   1   35.76    8.63
   5   2  -1   27.92    6.75
  -5   2   1   20.55    6.11
  -5   2   1   26.31    7.02
   5   2  -1   12.63    4.41
  -5   2   1   38.16    8.74
  -5   2   0  132.74   16.13
   5   2   0  101.02   12.23
   5   2   0  101.99   12.87
  -5   2   0  138.70   16.39
   5   2   1  111.94   12.13
  -5   2  -1  118.17   15.43
   5   2   1  103.49   13.45
  -5   2  -1  114.42   14.94
   5   2   2  676.58   30.12
  -5   2  -2  708.95   40.01
   5   2   2  639.22   36.26
  -5   2  -2  671.04   37.43
  -5   2  -3  289.34   25.77
   5   2   3  240.76   22.93
  -5   2  -3  265.31   22.99
   5   2   4   18.65    6.39
   5   2   5  291.29   27.88
   5   2   6   21.11    9.07
  -5   3  10  515.60   36.00
   5   3  -9   21.52    8.38
  -5   3   9   26.17    8.36
   5   3  -8   50.05   12.16
  -5   3   8   48.88    9.71
  -5   3   8   53.30   11.26
   5   3  -7   26.20    9.06
  -5   3   7   34.45    7.75
  -5   3   7   28.75    7.31
  -5   3   7   36.45    9.61
   5   3  -6    7.43    5.64
  -5   3   6   20.88    6.05
  -5   3   6   23.12    6.50
  -5   3   6   14.93    6.67
   5   3  -5  237.03   22.97
  -5   3   5  214.35   17.93
  -5   3   5  228.87   19.85
  -5   3   5  226.63   22.09
   5   3  -4   39.67    9.66
  -5   3   4   48.10    8.52
   5   3  -4   63.48    9.66
  -5   3   4   47.33    9.28
  -5   3   4   68.36   11.91
  -5   3   3   11.03    5.66
   5   3  -3   17.83    6.27
  -5   3   3   10.25    4.89
   5   3  -3    2.25    2.50
  -5   3   3    0.82    3.44
  -5   3   3   -1.43    3.51
   5   3  -2  573.97   33.10
  -5   3   2  657.22   36.90
   5   3  -2  683.45   33.01
  -5   3   2  609.65   31.59
  -5   3   2  621.66   33.93
  -5   3   2  577.03   34.72
   5   3  -1  362.12   25.00
  -5   3   1  368.97   27.34
   5   3  -1  371.35   24.85
  -5   3   1  385.42   26.69
  -5   3   1  380.36   27.71
   5   3   0  546.30   30.33
  -5   3   0  655.61   37.11
   5   3   0  575.74   32.76
  -5   3   0  577.04   33.61
  -5   3   0  560.81   34.00
  -5   3  -1    6.80    5.46
   5   3   1    4.46    3.17
   5   3   1    4.30    4.50
  -5   3  -1    3.84    4.12
   5   3   2  122.00   13.10
  -5   3  -2  116.74   15.95
   5   3   2   93.90   14.09
  -5   3  -2  157.21   17.60
  -5   3  -3   14.87    6.87
   5   3   3   10.90    6.81
  -5   3  -3   21.21    7.12
   5   3   4   15.42    6.57
   5   3   5    7.86    5.93
   5   3   6  159.34   22.77
  -5   4  10  166.73   21.09
   5   4  -9   41.07   12.40
  -5   4   9   61.70   11.18
  -5   4   9   56.84   12.45
   5   4  -8   52.89   12.84
  -5   4   8   57.79   10.87
  -5   4   8   76.54   13.99
   5   4  -7  108.87   17.14
  -5   4   7   81.75   12.64
  -5   4   7   93.86   15.13
   5   4  -6  178.30   21.14
  -5   4   6  220.55   20.65
  -5   4   6  166.42   19.69
   5   4  -5  141.25   18.25
  -5   4   5  141.97   13.61
  -5   4   5  150.29   17.06
  -5   4   5  143.39   18.05
  -5   4   4  122.05   12.73
   5   4  -4  104.49   15.17
   5   4  -4  120.53   14.36
  -5   4   4  122.29   15.39
  -5   4   4   93.77   14.72
   5   4  -3  333.76   23.93
  -5   4   3  354.42   26.91
   5   4  -3  343.86   26.72
  -5   4   3  352.12   22.03
  -5   4   3  324.53   25.02
  -5   4   3  318.82   26.29
  -5   4   2  422.50   29.42
   5   4  -2  460.68   30.23
   5   4  -2  403.36   27.04
  -5   4   2  441.33   29.29
  -5   4   2  489.02   32.31
  -5   4   1  459.85   30.47
   5   4  -1  382.18   26.92
   5   4  -1  416.84   28.22
  -5   4   1  423.43   28.86
  -5   4   1  437.82   30.37
  -5   4   0  107.99   14.73
   5   4   0  114.96   14.23
  -5   4   0  110.78   14.83
   5   4   0  117.50   15.12
  -5   4   0  135.66   16.80
   5   4   1  146.55   15.65
  -5   4  -1  157.01   18.01
  -5   4  -1  153.92   17.72
   5   4   1  140.83   17.72
  -5   4  -1  157.18   17.83
  -5   4  -2  134.50   17.18
   5   4   2   94.18   12.32
   5   4   2   93.65   14.88
  -5   4  -2  108.89   15.01
  -5   4  -3    4.08    4.55
   5   4   3    6.72    4.73
  -5   4  -3    4.80    4.21
   5   4   4    1.61    4.66
  -5   4  -4   16.80    6.94
   5   4   5   55.34   13.03
  -5   5   9   64.81   12.17
  -5   5   9   51.88   11.74
   5   5  -8   43.31   12.00
  -5   5   8   43.86   10.16
  -5   5   8   44.61   11.42
   5   5  -7  315.80   30.25
  -5   5   7  340.99   27.47
  -5   5   7  390.53   32.09
   5   5  -6  137.45   19.32
  -5   5   6  128.42   16.63
  -5   5   6  168.10   20.60
   5   5  -5   90.58   15.13
  -5   5   5   86.09   13.65
  -5   5   5   76.48   10.73
  -5   5   5  104.28   16.27
   5   5  -4  142.26   18.18
   5   5  -4  120.21   15.32
  -5   5   4  108.54   15.22
  -5   5   4  131.30   14.67
  -5   5   4  157.33   19.00
  -5   5   3   29.24    7.47
   5   5  -3   14.49    6.23
   5   5  -3   27.16    7.69
  -5   5   3   24.21    7.49
  -5   5   3   33.17    7.92
  -5   5   3   28.17    8.08
  -5   5   2  124.25   15.89
   5   5  -2  106.10   15.14
   5   5  -2   78.66   12.53
  -5   5   2   76.42   12.87
  -5   5   2  104.26   14.07
  -5   5   2  126.17   16.85
  -5   5   1   51.01   10.47
   5   5  -1   47.05   10.07
   5   5  -1   37.64    8.99
  -5   5   1   41.74    9.83
  -5   5   1   44.55    9.30
  -5   5   1   72.88   12.74
  -5   5   0  201.44   20.14
   5   5   0  159.86   17.46
   5   5   0  137.22   17.63
  -5   5   0  145.48   17.52
  -5   5   0  182.26   19.62
  -5   5  -1   80.16   12.93
   5   5   1   73.14   11.93
  -5   5  -1   56.46   11.27
   5   5   1   80.95   13.90
  -5   5  -1   74.76   12.85
  -5   5  -2  107.79   15.55
   5   5   2  121.09   14.98
   5   5   2  111.44   16.90
  -5   5  -2  131.32   16.59
   5   5   3  549.67   32.15
   5   5   3  574.39   39.89
  -5   5  -3  585.78   35.71
   5   5   4   27.89    9.79
  -5   5  -4   38.25    9.16
   5   5   5   15.79    7.35
  -5   6   9   12.16    6.48
  -5   6   8   12.26    6.99
  -5   6   8   21.69    7.84
   5   6  -7  106.97   17.98
  -5   6   7   85.26   14.63
   5   6  -6    4.18    5.69
  -5   6   6   -2.17    3.58
  -5   6   6   -0.54    4.67
   5   6  -5   44.59   11.15
   5   6  -5   35.13    9.23
  -5   6   5   43.04   10.44
  -5   6   5   31.20    7.32
  -5   6   5   28.59    9.05
  -5   6   4   18.91    6.65
   5   6  -4   10.49    6.17
   5   6  -4   34.09    9.36
  -5   6   4   32.65    8.90
  -5   6   4   11.57    5.32
  -5   6   4   39.62   10.80
  -5   6   3   92.36   13.80
   5   6  -3   98.87   15.06
   5   6  -3   99.88   14.83
  -5   6   3  101.91   15.20
  -5   6   3  103.67   14.27
  -5   6   3  119.85   16.99
  -5   6   2    1.07    3.69
   5   6  -2    2.81    4.29
   5   6  -2   10.18    5.25
  -5   6   2   -0.84    3.05
  -5   6   2   12.83    5.50
  -5   6   2    6.26    4.80
  -5   6   1  396.15   28.56
   5   6  -1  415.50   30.98
   5   6  -1  384.06   29.69
  -5   6   1  384.36   29.51
  -5   6   1  395.63   29.47
  -5   6   1  416.05   31.31
  -5   6   0  419.89   29.46
   5   6   0  406.66   29.88
   5   6   0  351.49   29.59
  -5   6   0  393.96   30.04
  -5   6   0  462.36   32.56
  -5   6   0  443.12   32.02
  -5   6  -1   41.34    9.64
   5   6   1   36.34    9.46
  -5   6  -1   23.82    7.90
   5   6   1   23.22    8.29
  -5   6  -1   31.31    9.22
  -5   6  -1   36.69    8.93
  -5   6  -2  344.36   27.61
   5   6   2  315.25   25.84
   5   6   2  352.79   31.09
  -5   6  -2  336.45   28.52
  -5   6  -2  332.28   27.20
   5   6   3   16.10    6.22
   5   6   3   22.32    9.26
  -5   6  -3   26.43    7.55
   5   6   4   81.26   16.00
  -5   7   8   15.67    7.25
  -5   7   7   -3.18    3.54
   5   7  -6   23.82    9.28
  -5   7   6   16.00    7.03
  -5   7   6   11.01    5.98
   5   7  -5   26.77    8.85
   5   7  -5   16.94    6.89
  -5   7   5   30.36    8.95
  -5   7   5   19.00    6.79
  -5   7   5   18.76    7.97
  -5   7   4   10.54    5.24
   5   7  -4   18.75    8.33
   5   7  -4   20.59    7.70
  -5   7   4   24.25    8.79
  -5   7   4   19.88    6.89
  -5   7   4   19.29    7.58
  -5   7   3   78.27   12.65
   5   7  -3   92.31   15.76
   5   7  -3   57.04   12.06
  -5   7   3   81.55   14.75
  -5   7   3   73.28   12.44
  -5   7   3   67.06   13.52
  -5   7   2   77.90   12.87
   5   7  -2   76.75   14.15
   5   7  -2   73.47   13.57
  -5   7   2   68.33   12.89
  -5   7   2   77.44   13.45
  -5   7   2   66.46   13.10
   5   7  -1  411.17   32.67
  -5   7   1  379.14   27.89
   5   7  -1  398.25   31.59
  -5   7   1  372.53   30.19
  -5   7   1  405.92   30.88
  -5   7   1  386.64   31.45
  -5   7   0   10.28    4.78
   5   7   0   18.95    7.33
   5   7   0   -1.94    5.14
  -5   7   0   14.33    7.20
  -5   7   0    5.04    4.67
  -5   7   0   10.44    5.95
  -5   7  -1   86.76   13.54
   5   7   1   80.07   13.62
   5   7   1   80.48   15.23
  -5   7  -1   77.43   13.97
  -5   7  -1   90.77   15.56
  -5   7  -1   99.58   15.42
   5   7   2  247.95   24.21
   5   7   2  248.61   27.30
  -5   7  -2  297.02   27.37
  -5   7  -2  288.95   27.83
  -5   7  -2  289.48   26.03
   5   7   3   20.92    7.59
   5   7   3    6.04    6.52
  -5   7  -3    8.79    5.06
  -5   8   5  149.88   20.43
  -5   8   5  133.08   20.13
  -5   8   5  140.56   17.48
   5   8  -4   21.12    8.18
   5   8  -4   23.57    8.75
  -5   8   4   16.09    7.00
  -5   8   4   11.77    5.15
  -5   8   4   12.80    7.01
   5   8  -3   19.33    8.18
   5   8  -3   15.02    7.60
  -5   8   3   21.34    8.88
  -5   8   3    8.84    4.86
  -5   8   3   12.84    8.04
   5   8  -2  204.30   23.95
   5   8  -2  179.67   22.34
  -5   8   2  187.43   22.16
  -5   8   2  193.21   21.81
  -5   8   2  205.92   23.92
   5   8  -1   32.35    9.17
   5   8  -1   43.94   11.74
  -5   8   1   43.66   10.91
  -5   8   1   47.23   11.18
  -5   8   1   39.28   10.56
   5   8   0   88.15   15.27
   5   8   0   62.53   13.74
  -5   8   0   91.86   15.76
  -5   8   0   76.05   14.20
  -5   8   0   95.06   15.48
   5   8   1  169.58   20.94
   5   8   1  185.43   23.69
  -5   8  -1  170.69   21.32
  -5   8  -1  143.72   20.05
  -5   8  -1  159.63   20.25
   5   8   2  157.49   20.42
  -5   8  -2  172.68   20.53
   5   8   3   41.17   10.96
  -5   9   5  121.64   17.34
  -5   9   4   29.36    8.59
  -5   9   3  146.14   19.48
  -5   9   2  142.11   19.70
  -5   9   2  136.92   20.12
  -5   9   1   31.29    9.98
  -5   9   0   36.30   10.38
  -5   9  -1   58.01   12.73
  -6  -8   1    4.23    5.79
  -6  -7   6   69.58   14.13
  -6  -7   5    7.17    5.26
  -6  -7   4   39.77   10.08
  -6  -7   3  420.24   32.33
  -6  -7   2   33.90    9.65
  -6  -7   1   74.94   14.07
  -6  -7   1   75.84   13.84
  -6  -7   0   22.02    7.74
  -6  -7   0   53.40   12.29
  -6  -7  -1   14.22    7.59
  -6  -6   6   19.68    7.43
  -6  -6   5   37.83   10.61
   6  -6  -5   33.52   10.21
  -6  -6   4  147.32   19.28
  -6  -6   4  175.68   23.17
   6  -6  -4  191.37   23.79
  -6  -6   3  124.34   17.69
  -6  -6   3  136.05   20.63
   6  -6  -3  132.45   19.86
  -6  -6   2   18.00    8.01
   6  -6  -2   19.04    9.36
  -6  -6   2   23.31    9.36
  -6  -6   1   68.41   12.93
  -6  -6   1   72.20   13.57
   6  -6  -1  115.65   18.40
  -6  -6   1  121.56   19.38
  -6  -6   0   26.24    8.71
   6  -6   0   17.10    7.74
  -6  -6   0   14.37    6.80
  -6  -6   0   14.82    6.55
  -6  -6  -1   60.78   13.57
  -6  -6  -1   47.55   11.51
   6  -6   1   47.01   11.77
  -6  -6  -2   98.95   16.45
   6  -5  -7   42.38   11.18
   6  -5  -6   17.99    8.05
  -6  -5   6   27.79   10.11
  -6  -5   5   16.30    7.34
   6  -5  -5   18.00    8.31
  -6  -5   5   21.60    8.84
   6  -5  -4   31.48   10.32
  -6  -5   4   34.23    9.91
  -6  -5   4   25.20    8.77
   6  -5  -3   93.24   16.31
  -6  -5   3   91.39   15.38
  -6  -5   3   80.83   15.88
  -6  -5   2  130.57   18.08
  -6  -5   2  113.80   18.11
   6  -5  -2  117.44   18.32
  -6  -5   1   39.61   10.15
  -6  -5   1   60.49   13.47
   6  -5  -1   24.27    8.19
  -6  -5   0   15.80    7.05
  -6  -5   0   21.38    7.96
  -6  -5   0   13.70    6.92
   6  -5   0   10.66    6.83
  -6  -5  -1   99.33   16.34
  -6  -5  -1   90.42   15.78
   6  -5   1   51.07   11.88
  -6  -5  -1   85.77   16.19
   6  -5   2   97.52   16.40
  -6  -5  -2  104.19   16.90
   6  -5   3  294.82   28.91
   6  -4  -8   25.09    8.62
   6  -4  -7  156.24   21.12
  -6  -4   7  124.11   19.73
   6  -4  -6   78.88   15.12
  -6  -4   6   58.80   13.81
  -6  -4   5   18.10    6.99
   6  -4  -5    9.68    6.53
  -6  -4   5    9.60    5.96
   6  -4  -4  201.82   23.48
  -6  -4   4  163.32   20.44
  -6  -4   4  177.93   22.23
  -6  -4   3  144.55   19.05
  -6  -4   3   97.12   16.52
   6  -4  -3  136.68   19.43
  -6  -4   2  108.04   16.77
  -6  -4   2  121.04   18.97
   6  -4  -2  153.98   20.42
  -6  -4   1   37.04   10.36
   6  -4  -1   49.79   12.35
  -6  -4   1   26.41    8.92
  -6  -4   0  209.46   23.24
  -6  -4   0  184.84   22.63
   6  -4   0  177.30   21.51
  -6  -4  -1   18.23    7.97
  -6  -4  -1   28.84    9.27
  -6  -4  -1   39.06   11.07
   6  -4   1   36.67   10.32
  -6  -4  -2  140.24   19.84
  -6  -4  -2  116.94   17.74
   6  -4   2  130.55   18.36
   6  -4   3   49.96   11.41
   6  -3  -9   18.84    8.35
   6  -3  -8  180.00   24.21
   6  -3  -8  212.47   24.86
  -6  -3   8  205.74   24.95
   6  -3  -7   67.39   14.63
   6  -3  -7   45.09   11.53
  -6  -3   7   62.02   13.64
   6  -3  -6   36.86   10.62
  -6  -3   6   59.73   12.97
   6  -3  -6   36.17   10.53
   6  -3  -5  161.42   20.09
   6  -3  -5  173.17   21.90
  -6  -3   5  167.61   21.03
   6  -3  -4   67.20   13.57
  -6  -3   4   99.63   16.01
   6  -3  -4   80.61   13.65
  -6  -3   4   85.79   15.05
   6  -3  -3  225.87   21.46
  -6  -3   3  274.41   25.93
   6  -3  -3  265.67   26.33
  -6  -3   3  200.56   23.04
  -6  -3   2   41.61   10.92
   6  -3  -2   50.50    9.69
  -6  -3   2   60.06   12.58
   6  -3  -2   63.89   13.52
  -6  -3   1  274.30   26.01
   6  -3  -1  246.83   25.36
  -6  -3   1  232.39   24.77
  -6  -3   0  741.56   44.03
   6  -3   0  681.31   42.63
  -6  -3   0  716.67   44.64
  -6  -3  -1  110.33   17.20
   6  -3   1  108.76   16.77
  -6  -3  -2  123.89   18.38
   6  -3   2  106.16   16.37
  -6  -3  -3   25.19    9.12
   6  -3   3    5.86    4.36
  -6  -2   9   66.19   14.17
   6  -2  -8   90.92   17.23
  -6  -2   8  113.58   18.55
  -6  -2   8  127.51   17.16
   6  -2  -7   49.37   12.39
  -6  -2   7   54.34   12.58
  -6  -2   7   70.98   12.77
   6  -2  -6  154.54   20.10
  -6  -2   6  126.83   18.42
  -6  -2   6  168.46   19.47
   6  -2  -5   30.12    9.61
  -6  -2   5   41.02   11.07
  -6  -2   5   63.57   12.33
   6  -2  -4  162.86   19.09
  -6  -2   4  176.47   21.28
  -6  -2   4  152.28   19.39
  -6  -2   4  171.53   19.82
  -6  -2   3   56.56   11.94
   6  -2  -3   51.33   10.21
  -6  -2   3   44.70   10.57
   6  -2  -2  192.29   18.53
  -6  -2   2  187.88   21.55
  -6  -2   2  239.46   24.26
  -6  -2   1  100.55   16.02
  -6  -2   1   70.14   13.56
  -6  -2   0  344.14   30.30
  -6  -2   0  332.06   29.25
   6  -2   0  278.06   26.39
  -6  -2  -1  184.59   21.81
   6  -2   1  190.58   21.73
  -6  -2  -2  298.44   28.42
   6  -2   2  285.51   26.07
  -6  -2  -3   61.94   13.59
   6  -2   3  120.64   16.54
  -6  -1   9   38.88   10.67
  -6  -1   9   26.14    8.10
   6  -1  -8   16.98    7.63
  -6  -1   8   28.48    9.60
  -6  -1   8   14.31    6.23
   6  -1  -7   19.51    8.59
  -6  -1   7   15.71    6.08
  -6  -1   7   26.96    8.68
   6  -1  -6   56.22   12.40
  -6  -1   6   74.78   13.86
  -6  -1   6   83.13   13.80
   6  -1  -5   72.12   13.69
  -6  -1   5   33.49    9.63
  -6  -1   5   58.16   11.90
   6  -1  -4  465.46   32.65
  -6  -1   4  553.85   37.84
  -6  -1   4  482.02   34.34
  -6  -1   4  568.04   36.46
  -6  -1   3  148.26   19.13
   6  -1  -3   88.28   13.54
  -6  -1   3   98.35   15.14
  -6  -1   3  114.82   16.43
   6  -1  -2  214.02   19.51
  -6  -1   2  180.69   21.13
  -6  -1   2  147.38   18.87
  -6  -1   2  213.90   22.47
  -6  -1   1  102.02   15.77
   6  -1  -1   90.52   12.01
  -6  -1   1   74.04   14.05
  -6  -1   0  323.23   28.55
  -6  -1   0  263.36   25.87
  -6  -1  -1   61.02   12.78
  -6  -1  -2  123.03   18.30
   6  -1   2  117.25   16.47
  -6  -1  -3   80.69   15.60
   6  -1   3   89.24   14.36
  -6   0  10   -3.47    5.24
  -6   0   9   61.72   13.59
  -6   0   9   33.37    9.43
   6   0  -8    4.89    4.21
  -6   0   8    5.61    5.50
  -6   0   8   12.71    7.17
   6   0  -7   12.00    6.20
  -6   0   7   12.90    6.11
  -6   0   7   10.94    6.11
   6   0  -6   37.84   10.56
  -6   0   6   31.96    9.33
  -6   0   6   40.55    9.93
   6   0  -5    8.68    5.63
  -6   0   5    7.98    4.14
  -6   0   5   13.43    6.33
   6   0  -4  991.04   49.16
  -6   0   4 1023.25   52.75
  -6   0   4  957.33   48.21
  -6   0   4 1042.10   50.83
  -6   0   3  142.07   18.86
   6   0  -3  105.09   14.82
  -6   0   3  151.03   18.46
  -6   0   3  118.05   16.68
   6   0  -2  188.42   18.77
  -6   0   2  193.62   22.11
  -6   0   2  172.39   19.80
  -6   0   2  154.47   19.01
  -6   0   1   89.42   14.93
   6   0  -1   86.45   11.93
  -6   0   1   82.57   14.18
  -6   0   1   86.01   13.99
  -6   0   0   30.03    9.16
  -6   0   0   22.60    7.89
  -6   0  -1  339.65   29.90
  -6   0  -2   19.97    7.45
   6   0   2   18.26    6.42
   6   0   3    7.05    4.88
  -6   0  -3   10.15    7.01
   6   0   3   -1.91    3.01
   6   0   4   43.54   10.67
   6   0   5   27.66    9.30
  -6   1   9   26.99    8.87
  -6   1   9   57.04   12.14
   6   1  -8   18.14    9.73
  -6   1   8   18.60    7.10
  -6   1   8   33.61    9.64
   6   1  -7   44.54   11.86
  -6   1   7   16.16    6.19
  -6   1   7   21.95    6.61
  -6   1   7   25.50    8.17
   6   1  -6   62.04   13.27
  -6   1   6   45.77   10.12
  -6   1   6   45.95    8.72
  -6   1   6   91.15   15.03
   6   1  -5   52.13   12.00
  -6   1   5   47.72   10.39
  -6   1   5   51.42   12.06
   6   1  -4  503.60   34.45
  -6   1   4  507.43   36.39
  -6   1   4  449.99   31.37
  -6   1   4  499.62   34.70
  -6   1   3  119.49   17.12
   6   1  -3  114.88   15.69
  -6   1   3  110.47   15.31
  -6   1   3  123.66   16.96
   6   1  -2  187.98   19.18
  -6   1   2  187.07   21.54
  -6   1   2  205.27   21.07
  -6   1   2  184.15   20.81
  -6   1   1   98.91   16.16
   6   1  -1  101.47   13.61
  -6   1   1  104.66   15.26
   6   1  -1   79.58   10.92
  -6   1   1  102.70   15.61
   6   1   0  329.49   23.11
  -6   1   0  319.36   28.45
   6   1   0  285.72   21.91
  -6   1   0  341.03   28.67
  -6   1  -1   69.37   13.36
   6   1   1   57.88   10.49
  -6   1  -1   70.70   13.47
  -6   1  -2  116.46   17.68
   6   1   2  119.90   15.82
  -6   1  -3   98.30   16.75
   6   1   3   76.72   13.28
   6   1   4  128.07   18.40
   6   1   5   45.02   11.95
  -6   2  10   30.58   10.94
  -6   2   9   81.05   14.94
   6   2  -8  134.63   20.74
  -6   2   8  140.53   18.09
  -6   2   8  133.00   18.90
   6   2  -7   61.43   13.73
  -6   2   7   59.32   11.51
  -6   2   7   79.86   12.06
  -6   2   7   60.84   12.87
   6   2  -6  137.76   19.72
  -6   2   6  128.62   16.73
  -6   2   6  164.57   17.41
  -6   2   6  157.66   19.77
   6   2  -5   35.36    9.94
  -6   2   5   29.73    7.99
  -6   2   5   38.70    8.93
  -6   2   5   44.16   10.91
   6   2  -4  184.51   20.88
  -6   2   4  185.13   21.93
  -6   2   4  168.02   18.29
  -6   2   4  150.64   17.39
  -6   2   4  201.06   22.16
  -6   2   3   82.02   14.44
   6   2  -3   70.25   12.74
  -6   2   3   60.45   11.16
   6   2  -3   57.61    9.14
  -6   2   3   56.41   10.68
  -6   2   3   47.38   11.38
   6   2  -2  209.31   20.73
   6   2  -2  168.87   16.08
  -6   2   2  202.27   22.66
  -6   2   2  162.34   18.43
  -6   2   2  205.02   22.23
  -6   2   1   83.25   14.40
   6   2  -1   64.75   11.30
   6   2  -1   82.81   11.78
  -6   2   1   98.04   15.08
   6   2   0  347.86   24.89
  -6   2   0  344.07   29.48
   6   2   0  291.45   23.41
  -6   2   0  329.86   28.25
  -6   2  -1  178.52   21.65
   6   2   1  196.04   20.09
  -6   2  -1  187.59   21.37
  -6   2  -2  275.76   27.52
   6   2   2  258.85   24.45
  -6   2  -2  319.77   28.08
  -6   2  -3   90.70   16.21
   6   2   3  126.55   17.79
   6   2   4  105.74   17.14
  -6   3   9   25.39    8.92
  -6   3   8  187.15   22.64
   6   3  -7   58.44   13.92
  -6   3   7   71.92   12.07
  -6   3   7   39.15   10.52
   6   3  -6   48.76   11.75
  -6   3   6   54.39   10.32
  -6   3   6   57.07   10.92
  -6   3   6   59.20   12.99
   6   3  -5  194.31   22.77
  -6   3   5  183.23   18.65
  -6   3   5  187.41   19.79
  -6   3   5  198.60   22.74
  -6   3   4   91.44   15.63
   6   3  -4   89.97   15.18
  -6   3   4   80.25   12.63
   6   3  -4  104.48   13.10
  -6   3   4   80.38   13.13
  -6   3   4   93.45   15.57
   6   3  -3  218.65   19.24
   6   3  -3  243.74   23.87
  -6   3   3  286.94   26.91
  -6   3   3  224.65   20.77
  -6   3   3  208.08   21.06
  -6   3   3  248.85   24.87
  -6   3   2   43.94   10.67
   6   3  -2   42.96   10.15
   6   3  -2   43.82    8.85
  -6   3   2   50.60   10.71
  -6   3   2   58.93   11.85
   6   3  -1  265.21   23.52
  -6   3   1  247.38   24.97
   6   3  -1  256.13   22.07
  -6   3   1  285.62   26.38
   6   3   0  776.77   39.71
  -6   3   0  745.43   44.53
   6   3   0  731.65   40.36
  -6   3   0  750.96   43.95
  -6   3  -1  135.96   18.93
   6   3   1  146.57   18.39
  -6   3  -1  121.77   17.58
  -6   3  -2  132.13   18.77
   6   3   2  135.51   18.22
  -6   3  -2  125.22   17.83
  -6   3  -3   19.97    8.34
   6   3   3   40.81   11.02
  -6   3  -3   28.45    9.16
   6   3   4  193.94   23.82
  -6   4   8   25.34    8.33
  -6   4   8   37.54   11.05
   6   4  -7  145.11   21.27
  -6   4   7  117.40   16.25
  -6   4   7  133.93   19.32
   6   4  -6   80.06   15.86
  -6   4   6   75.47   12.78
  -6   4   6   69.47   14.16
   6   4  -5   14.49    6.53
  -6   4   5   16.01    6.84
  -6   4   5    9.77    6.10
   6   4  -4  168.79   17.92
  -6   4   4  154.80   20.02
   6   4  -4  164.93   20.45
  -6   4   4  205.71   21.38
  -6   4   4  157.06   20.53
  -6   4   3  140.64   18.80
   6   4  -3  151.51   19.25
   6   4  -3  133.80   16.03
  -6   4   3  125.23   16.83
  -6   4   3  137.67   18.96
  -6   4   2  125.05   17.45
   6   4  -2   99.47   15.31
   6   4  -2   91.66   13.54
  -6   4   2  107.42   15.82
  -6   4   2  124.38   18.02
  -6   4   1   39.03   10.49
   6   4  -1   45.55   10.59
   6   4  -1   35.40    8.61
  -6   4   1   41.68   10.47
  -6   4   1   46.86   11.22
   6   4   0  191.56   20.14
  -6   4   0  259.89   25.68
   6   4   0  177.69   20.35
  -6   4   0  229.29   24.12
  -6   4  -1   52.90   12.35
   6   4   1   41.97   10.46
  -6   4  -1   57.58   12.03
  -6   4  -2  135.54   19.12
   6   4   2  130.15   18.50
  -6   4  -2  140.85   19.04
  -6   4  -3   61.43   13.43
   6   4   3   54.35   12.80
  -6   4  -3   58.87   12.17
  -6   5   8   48.22   11.32
  -6   5   7   64.46   12.55
   6   5  -6   22.96    9.03
  -6   5   6   26.00    7.78
  -6   5   6   35.53   11.11
  -6   5   5   21.81    8.02
   6   5  -5   28.33    9.35
  -6   5   5   35.04    9.31
  -6   5   5   38.23   11.06
  -6   5   4   20.12    8.12
   6   5  -4   24.79    8.92
   6   5  -4   32.56    8.59
  -6   5   4   53.43   11.71
  -6   5   4   40.44   10.70
  -6   5   3  107.47   16.50
   6   5  -3   79.92   14.94
   6   5  -3   82.08   13.62
  -6   5   3   69.13   12.84
  -6   5   3   44.87   11.09
  -6   5   2  113.53   17.01
   6   5  -2  144.77   19.21
   6   5  -2  111.49   15.83
  -6   5   2  120.25   17.24
  -6   5   2  155.23   20.14
  -6   5   1   34.97    9.65
   6   5  -1   27.20    8.47
   6   5  -1   20.27    8.38
  -6   5   1   54.80   12.00
  -6   5   1   32.14   10.12
  -6   5   0   19.42    8.01
   6   5   0    1.40    3.75
   6   5   0    7.81    5.31
  -6   5   0   21.64    7.47
  -6   5   0    8.26    5.56
  -6   5  -1   51.75   11.69
   6   5   1   60.92   12.81
  -6   5  -1   86.87   15.43
  -6   5  -2  125.16   19.04
   6   5   2   85.86   15.92
  -6   5  -2   91.00   15.29
   6   5   3  322.41   31.70
  -6   5  -3  348.60   30.21
  -6   6   6   21.04    8.04
  -6   6   5   46.86   11.48
   6   6  -5   49.67   12.15
   6   6  -5   28.85    8.66
  -6   6   5   43.64   10.62
   6   6  -4  201.19   22.31
  -6   6   4  179.00   21.61
   6   6  -4  161.87   21.74
  -6   6   4  163.47   20.68
  -6   6   4  198.89   24.33
  -6   6   3  133.23   18.53
   6   6  -3   81.99   15.51
   6   6  -3  153.71   19.26
  -6   6   3  141.46   19.00
  -6   6   3  130.59   19.68
  -6   6   2   10.84    5.90
   6   6  -2   28.46    9.27
   6   6  -2    8.60    5.94
  -6   6   2   28.17    8.77
  -6   6   2   26.29    9.40
  -6   6   1   74.28   13.91
   6   6  -1   74.42   14.36
   6   6  -1   92.42   15.57
  -6   6   1   72.62   13.89
  -6   6   1   75.80   14.54
  -6   6   0   22.61    8.34
   6   6   0    8.13    6.11
   6   6   0   34.37   10.36
  -6   6   0   12.73    6.37
  -6   6  -1   65.88   13.09
   6   6   1   35.84    9.08
   6   6   1   44.47   11.44
  -6   6  -1   50.18   11.99
  -6   6  -2  120.35   18.36
  -6   6  -2   74.22   14.26
  -6   6  -3   69.02   13.83
  -6   7   6   59.46   12.74
  -6   7   5   12.19    7.17
   6   7  -5    1.70    3.44
  -6   7   4   48.91   11.63
   6   7  -4   45.11   10.91
   6   7  -3  435.01   34.72
   6   7  -3  400.62   35.07
  -6   7   3  412.35   32.69
  -6   7   2   44.84   11.05
   6   7  -2   13.27    5.98
   6   7  -2   31.15    9.95
  -6   7   1   78.01   14.24
   6   7  -1   84.60   16.26
   6   7  -1   54.57   12.86
  -6   7   1   77.81   15.04
  -6   7   0   23.86    8.85
   6   7   0   27.52   10.07
   6   7   0   28.85    9.34
  -6   7   0   21.41    8.36
  -6   7  -1   18.17    7.27
   6   7   1   24.65    9.94
  -6   7  -1   10.20    6.51
  -6   7  -2  103.52   17.29
  -6   8   4   38.57   10.48
   7  -3  -6  202.95   24.96
   7  -3  -5   39.34   10.52
   7  -3  -4   46.61   11.35
  -7  -3   3   16.44    8.49
  -7  -3   2   12.79    7.94
  -7  -2   7  130.90   19.29
   7  -2  -6  125.27   19.37
   7  -2  -5   96.08   16.91
  -7  -2   5  112.09   18.19
  -7  -2   4   13.43    7.58
   7  -2  -4   32.54   10.21
  -7  -2   4   26.59    9.56
  -7  -2   3    7.78    6.25
  -7  -2   3   14.13    7.53
  -7  -2   2  238.60   26.93
  -7  -2   2  273.91   28.56
   7  -2  -2  254.17   27.86
   7  -2  -1   36.05   10.90
   7  -2   0   33.20   10.14
   7  -2   1  182.26   23.18
   7  -2   2   32.86   10.25
  -7  -1   7  135.96   19.67
   7  -1  -6  181.89   23.61
  -7  -1   6  217.15   24.83
   7  -1  -5  217.10   24.48
  -7  -1   5  194.89   23.98
  -7  -1   5  270.15   27.52
  -7  -1   4   61.25   13.92
   7  -1  -4   67.04   13.36
  -7  -1   4   51.34   11.96
  -7  -1   4   66.80   14.44
  -7  -1   3   23.26    9.12
  -7  -1   3   14.07    6.64
  -7  -1   3   30.38   10.17
  -7  -1   2   52.41   13.19
  -7  -1   2   56.07   12.98
  -7  -1   1   71.38   14.78
  -7  -1   1   94.22   16.87
   7  -1   0  111.74   18.62
   7  -1   1   20.05    8.17
   7  -1   2  347.85   31.66
  -7   0   7   26.27    9.62
   7   0  -6   46.10   12.30
  -7   0   6   34.28    9.98
  -7   0   6   33.82   10.40
   7   0  -5   -1.27    3.71
  -7   0   5   -0.24    3.86
  -7   0   4   10.96    7.49
   7   0  -4   10.08    5.92
  -7   0   4   10.23    6.60
  -7   0   4    6.08    4.80
  -7   0   3   50.89   12.57
   7   0  -3   51.62   11.42
  -7   0   3   55.25   12.35
  -7   0   3   32.55    9.70
  -7   0   2  160.52   22.29
  -7   0   2  201.73   23.60
  -7   0   2  220.84   25.18
  -7   0   1   69.94   14.44
  -7   0   1   91.10   16.41
   7   0   2   53.81   12.98
  -7   1   7   99.39   17.34
   7   1  -6  239.61   27.21
  -7   1   6  211.66   24.04
   7   1  -5  217.95   25.05
  -7   1   5  206.84   23.23
  -7   1   5  243.20   26.44
  -7   1   4   73.34   15.45
   7   1  -4   74.27   13.99
  -7   1   4   56.12   12.54
  -7   1   4   54.54   12.88
  -7   1   3   17.12    7.98
   7   1  -3    7.49    4.14
  -7   1   3   24.41    8.71
  -7   1   3    8.34    5.71
  -7   1   2   44.27   11.96
  -7   1   2   31.16    9.82
  -7   1   2   66.26   13.91
  -7   1   1   87.18   16.34
  -7   1   1   98.44   17.03
   7   2  -6  102.02   18.33
   7   2  -5  124.82   19.12
  -7   2   5  133.85   18.38
  -7   2   4   15.82    7.60
   7   2  -4   17.86    7.59
  -7   2   4   28.60    9.56
  -7   2   4   34.53   10.74
  -7   2   3   13.69    7.18
   7   2  -3    7.65    6.32
  -7   2   3    9.19    6.82
  -7   2   3    0.87    3.88
  -7   2   2  224.27   26.26
  -7   2   2  272.19   28.12
  -7   3   6  185.86   21.28
   7   3  -5   70.68   14.86
  -7   3   5   61.45   12.60
  -7   3   4   47.39   12.32
   7   3  -4   43.89   11.14
  -7   3   3   27.97    9.93
   7   3  -3   42.72   11.13
  -7   3   2   -3.73    3.41
   7   3  -2    8.60    6.58
   7   4  -4  341.88   32.23
   7   4  -3  139.45   20.09
   7   4  -2    9.41    6.81
   7   5  -3   91.04   16.76
   7   5  -2   93.73   16.87
   0   0   0    0.00    0.00


TITL XL-2-27scaled in P2(1)
REM P2(1) (#4 in standard setting)
CELL 0.71073   5.672408   9.655618   9.459084  90.0000 103.9103  90.0000
ZERR    2.00   0.000195   0.000326   0.000358   0.0000   0.0037   0.0000
LATT -1
SYMM -x, y+1/2,-z
SFAC C H N O
UNIT 22.00 16.00 4.00 10.00
TREF
HKLF 4
END
_computing_structure_solution     'SHELXT 2014/5 (Sheldrick, 2014)'
;
_shelx_hkl_checksum              62307
_ins_header
;
TITL XL-2-27scaled in P2(1) 
REM P2(1) (#4 in standard setting)
CELL 0.71073   5.672408   9.655618   9.459084  90.0000 103.9103  90.0000
ZERR    2.00   0.000195   0.000326   0.000358   0.0000   0.0037   0.0000
LATT -1
SYMM -x, y+1/2,-z 
SFAC C H N O
UNIT 22.00 16.00 4.00 10.00
TREF
HKLF 4
END
;
_olex2_date_sample_completion    2019-02-22
_olex2_date_sample_data_collection 2019-02-18
_olex2_date_sample_submission    2019-02-20
_olex2_exptl_crystal_mounting_method
'The crystal was mounted on a MITIGEN holder with oil'
_olex2_submission_special_instructions 'No special instructions were received'
_oxdiff_exptl_absorpt_empirical_details
;
Empirical correction (ABSPACK) includes:
- Absorption correction using spherical harmonics
- Frame scaling
;
_oxdiff_exptl_absorpt_empirical_full_max 1.120
_oxdiff_exptl_absorpt_empirical_full_min 0.882
loop_
_space_group_symop_operation_xyz
'x, y, z'
'-x, y+1/2, -z'
loop_
_atom_site_label
_atom_site_type_symbol
_atom_site_fract_x
_atom_site_fract_y
_atom_site_fract_z
_atom_site_U_iso_or_equiv
_atom_site_adp_type
_atom_site_occupancy
_atom_site_site_symmetry_order
_atom_site_calc_flag
_atom_site_refinement_flags_posn
_atom_site_refinement_flags_adp
_atom_site_refinement_flags_occupancy
_atom_site_disorder_assembly
_atom_site_disorder_group
O1 O 0.3636(3) 0.70087(17) 0.62307(18) 0.0216(4) Uani 1 1 d . . . . .
O2 O -0.0330(3) 0.54073(18) 0.33687(17) 0.0207(4) Uani 1 1 d . . . . .
O3 O 0.2477(3) 0.43274(18) 0.24554(17) 0.0223(4) Uani 1 1 d . . . . .
O4 O 0.7937(3) 0.52868(19) 0.63307(17) 0.0230(4) Uani 1 1 d . . . . .
O5 O 0.9525(3) 0.61141(19) 0.84749(19) 0.0262(4) Uani 1 1 d . . . . .
N1 N 0.2582(3) 0.3394(2) 0.7964(2) 0.0180(4) Uani 1 1 d . . . . .
N2 N 0.8041(3) 0.5390(2) 0.7634(2) 0.0178(4) Uani 1 1 d . . . . .
C1 C 0.2904(4) 0.6059(2) 0.5399(2) 0.0152(4) Uani 1 1 d . . . . .
C2 C 0.3053(4) 0.4578(2) 0.5841(2) 0.0146(4) Uani 1 1 d . . . . .
C3 C 0.2053(4) 0.3639(2) 0.4838(2) 0.0173(4) Uani 1 1 d . . . . .
H3 H 0.214010 0.270217 0.507329 0.021 Uiso 1 1 calc R . . . .
C4 C 0.0774(4) 0.4104(3) 0.3315(2) 0.0198(5) Uani 1 1 d . . . . .
H4 H -0.044053 0.341794 0.285259 0.024 Uiso 1 1 calc R . . . .
C5 C 0.3433(4) 0.5692(3) 0.2845(3) 0.0225(5) Uani 1 1 d . . . . .
H5A H 0.333905 0.625657 0.198439 0.027 Uiso 1 1 calc R . . . .
H5B H 0.511037 0.564859 0.339703 0.027 Uiso 1 1 calc R . . . .
C6 C 0.1782(4) 0.6278(2) 0.3783(3) 0.0182(5) Uani 1 1 d . . . . .
H6 H 0.138289 0.725327 0.356011 0.022 Uiso 1 1 calc R . . . .
C7 C 0.4070(4) 0.4179(2) 0.7391(2) 0.0144(4) Uani 1 1 d . . . . .
C8 C 0.6344(4) 0.4577(2) 0.8247(2) 0.0159(4) Uani 1 1 d . . . . .
C9 C 0.7085(4) 0.4185(3) 0.9698(2) 0.0208(5) Uani 1 1 d . . . . .
H9 H 0.858207 0.445877 1.027285 0.025 Uiso 1 1 calc R . . . .
C10 C 0.5522(4) 0.3375(3) 1.0258(2) 0.0234(5) Uani 1 1 d . . . . .
H10 H 0.594143 0.308486 1.122411 0.028 Uiso 1 1 calc R . . . .
C11 C 0.3321(4) 0.3006(2) 0.9353(3) 0.0210(5) Uani 1 1 d . . . . .
H11 H 0.228793 0.245027 0.973642 0.025 Uiso 1 1 calc R . . . .
loop_
_atom_site_aniso_label
_atom_site_aniso_U_11
_atom_site_aniso_U_22
_atom_site_aniso_U_33
_atom_site_aniso_U_23
_atom_site_aniso_U_13
_atom_site_aniso_U_12
O1 0.0239(8) 0.0181(8) 0.0222(8) -0.0022(7) 0.0044(7) -0.0003(6)
O2 0.0146(7) 0.0265(9) 0.0196(8) 0.0025(7) 0.0016(6) 0.0002(7)
O3 0.0269(9) 0.0262(9) 0.0151(8) -0.0013(7) 0.0077(7) -0.0001(7)
O4 0.0204(8) 0.0318(9) 0.0182(8) 0.0041(7) 0.0074(6) 0.0026(8)
O5 0.0215(8) 0.0272(9) 0.0296(10) -0.0059(8) 0.0058(7) -0.0077(7)
N1 0.0191(9) 0.0184(9) 0.0162(9) 0.0016(8) 0.0038(7) -0.0005(8)
N2 0.0143(8) 0.0198(9) 0.0190(10) 0.0013(8) 0.0036(7) 0.0026(8)
C1 0.0109(9) 0.0187(11) 0.0164(10) 0.0003(9) 0.0038(8) 0.0016(8)
C2 0.0119(10) 0.0191(11) 0.0131(10) 0.0018(9) 0.0036(8) 0.0017(8)
C3 0.0176(10) 0.0190(11) 0.0156(10) 0.0022(9) 0.0047(8) -0.0010(8)
C4 0.0210(11) 0.0227(11) 0.0131(10) -0.0006(9) -0.0010(9) -0.0028(9)
C5 0.0210(11) 0.0296(14) 0.0175(11) 0.0015(10) 0.0056(9) -0.0014(9)
C6 0.0167(11) 0.0198(11) 0.0166(11) 0.0038(9) 0.0014(8) 0.0017(8)
C7 0.0161(10) 0.0141(10) 0.0131(10) -0.0009(8) 0.0039(8) 0.0013(8)
C8 0.0153(10) 0.0177(11) 0.0153(10) -0.0005(8) 0.0049(9) 0.0022(8)
C9 0.0195(11) 0.0268(13) 0.0148(10) -0.0014(9) 0.0015(8) 0.0014(10)
C10 0.0249(12) 0.0335(14) 0.0120(10) 0.0046(10) 0.0046(9) 0.0023(10)
C11 0.0225(11) 0.0230(13) 0.0190(11) 0.0059(9) 0.0082(9) 0.0006(9)
loop_
_atom_type_symbol
_atom_type_description
_atom_type_scat_dispersion_real
_atom_type_scat_dispersion_imag
_atom_type_scat_source
C C 0.0033 0.0016 'International Tables Vol C Tables 4.2.6.8 and 6.1.1.4'
H H 0.0000 0.0000 'International Tables Vol C Tables 4.2.6.8 and 6.1.1.4'
N N 0.0061 0.0033 'International Tables Vol C Tables 4.2.6.8 and 6.1.1.4'
O O 0.0106 0.0060 'International Tables Vol C Tables 4.2.6.8 and 6.1.1.4'
loop_
_exptl_crystal_face_index_h
_exptl_crystal_face_index_k
_exptl_crystal_face_index_l
_exptl_crystal_face_perp_dist
3 -9 -10 0.0372
-3 9 10 0.0372
3 13 -3 0.0705
5 -7 7 0.0831
-6 -7 -2 0.0394
5 4 -11 0.0645
-8 -2 5 0.0443
7 -5 0 0.0922
loop_
_geom_angle_atom_site_label_1
_geom_angle_atom_site_label_2
_geom_angle_atom_site_label_3
_geom_angle
_geom_angle_site_symmetry_1
_geom_angle_site_symmetry_3
_geom_angle_publ_flag
C4 O2 C6 100.53(16) . . ?
C4 O3 C5 104.99(17) . . ?
C11 N1 C7 118.51(19) . . ?
O4 N2 O5 124.0(2) . . ?
O4 N2 C8 118.51(18) . . ?
O5 N2 C8 117.49(18) . . ?
O1 C1 C2 123.8(2) . . ?
O1 C1 C6 122.7(2) . . ?
C2 C1 C6 113.44(18) . . ?
C1 C2 C7 120.50(19) . . ?
C3 C2 C1 117.83(19) . . ?
C3 C2 C7 121.4(2) . . ?
C2 C3 H3 120.1 . . ?
C2 C3 C4 119.9(2) . . ?
C4 C3 H3 120.1 . . ?
O2 C4 O3 104.70(18) . . ?
O2 C4 C3 110.19(18) . . ?
O2 C4 H4 110.4 . . ?
O3 C4 C3 110.66(18) . . ?
O3 C4 H4 110.4 . . ?
C3 C4 H4 110.4 . . ?
O3 C5 H5A 111.0 . . ?
O3 C5 H5B 111.0 . . ?
O3 C5 C6 103.82(18) . . ?
H5A C5 H5B 109.0 . . ?
C6 C5 H5A 111.0 . . ?
C6 C5 H5B 111.0 . . ?
O2 C6 C1 108.20(18) . . ?
O2 C6 C5 102.13(18) . . ?
O2 C6 H6 111.6 . . ?
C1 C6 C5 111.20(18) . . ?
C1 C6 H6 111.6 . . ?
C5 C6 H6 111.6 . . ?
N1 C7 C2 114.27(18) . . ?
N1 C7 C8 120.18(19) . . ?
C8 C7 C2 125.54(19) . . ?
C7 C8 N2 121.29(19) . . ?
C9 C8 N2 117.77(19) . . ?
C9 C8 C7 120.9(2) . . ?
C8 C9 H9 121.2 . . ?
C10 C9 C8 117.7(2) . . ?
C10 C9 H9 121.2 . . ?
C9 C10 H10 120.8 . . ?
C9 C10 C11 118.5(2) . . ?
C11 C10 H10 120.8 . . ?
N1 C11 C10 124.2(2) . . ?
N1 C11 H11 117.9 . . ?
C10 C11 H11 117.9 . . ?
loop_
_geom_bond_atom_site_label_1
_geom_bond_atom_site_label_2
_geom_bond_distance
_geom_bond_site_symmetry_2
_geom_bond_publ_flag
O1 C1 1.215(3) . ?
O2 C4 1.412(3) . ?
O2 C6 1.439(3) . ?
O3 C4 1.421(3) . ?
O3 C5 1.439(3) . ?
O4 N2 1.224(2) . ?
O5 N2 1.228(3) . ?
N1 C7 1.342(3) . ?
N1 C11 1.333(3) . ?
N2 C8 1.466(3) . ?
C1 C2 1.487(3) . ?
C1 C6 1.522(3) . ?
C2 C3 1.336(3) . ?
C2 C7 1.491(3) . ?
C3 H3 0.9300 . ?
C3 C4 1.517(3) . ?
C4 H4 0.9800 . ?
C5 H5A 0.9700 . ?
C5 H5B 0.9700 . ?
C5 C6 1.544(3) . ?
C6 H6 0.9800 . ?
C7 C8 1.402(3) . ?
C8 C9 1.388(3) . ?
C9 H9 0.9300 . ?
C9 C10 1.380(3) . ?
C10 H10 0.9300 . ?
C10 C11 1.380(3) . ?
C11 H11 0.9300 . ?
loop_
_exptl_oxdiff_crystal_face_indexfrac_h
_exptl_oxdiff_crystal_face_indexfrac_k
_exptl_oxdiff_crystal_face_indexfrac_l
_exptl_oxdiff_crystal_face_x
_exptl_oxdiff_crystal_face_y
_exptl_oxdiff_crystal_face_z
2.5025 -8.6659 -9.9914 -0.1575 0.9686 0.1512
-2.5025 8.6659 9.9914 0.1575 -0.9686 -0.1512
2.9966 12.9417 -2.7307 0.9923 -0.2385 -0.1279
4.5206 -6.9110 6.7329 -0.4402 0.1117 -0.8983
-6.3284 -6.8201 -2.3580 -0.6009 0.1224 0.8027
4.7797 4.0080 -11.4078 0.7535 0.6414 0.0395
-7.9825 -2.1129 4.7890 -0.5751 -0.5061 0.6694
7.2701 -4.7731 0.3719 -0.0227 0.4768 -0.8866
loop_
_hkl_oxdiff_h
_hkl_oxdiff_k
_hkl_oxdiff_l
_hkl_oxdiff_f2
_hkl_oxdiff_sig
_hkl_oxdiff_ba
0 -13 -1 5158.95 951.280 11
0 -12 0 18351.7 1642.86 11
0 -12 0 20592.0 1881.92 1
0 -12 -1 9601.77 1276.18 1
0 -12 -1 9862.31 1247.72 11
0 -12 1 13649.2 1547.81 1
0 -12 -2 1530.66 515.274 1
0 -12 -2 677.524 409.259 11
0 -12 -3 4170.81 827.074 1
0 -12 -3 3413.55 795.368 11
0 -12 3 4772.09 884.914 3
0 -12 4 12994.3 1495.05 3
0 -12 -4 16879.4 1639.48 1
0 -11 0 296.412 247.753 11
0 -11 0 206.323 295.150 1
0 -11 1 8576.31 1017.07 11
0 -11 -1 6714.70 1018.62 1
0 -11 -1 5051.34 874.348 11
0 -11 1 7461.16 1072.53 1
0 -11 -2 1813.82 541.059 1
0 -11 2 1125.94 450.405 1
0 -11 -2 1004.59 436.718 11
0 -11 -3 861.964 479.842 11
0 -11 -3 681.265 369.952 1
0 -11 3 1217.68 496.951 1
0 -11 -4 7608.83 1036.19 1
0 -11 4 4998.88 925.162 1
0 -11 -4 4896.21 924.862 11
0 -11 4 5744.20 955.519 3
0 -11 -5 1854.48 509.290 1
0 -11 5 2120.88 613.641 3
0 -10 0 47213.9 2609.39 1
0 -10 1 718.807 349.249 1
0 -10 -1 572.560 324.129 11
0 -10 -1 372.814 269.892 1
0 -10 -2 13565.1 1329.65 1
0 -10 2 12381.8 1330.68 1
0 -10 -2 12739.1 1325.37 11
0 -10 3 7771.12 1058.46 1
0 -10 -3 8218.03 1094.23 11
0 -10 -3 10248.6 1141.81 1
0 -10 4 3386.91 711.314 3
0 -10 4 3543.82 751.617 1
0 -10 -4 4889.28 796.857 1
0 -10 -5 10852.5 1152.04 1
0 -10 -5 7622.16 1187.05 7
0 -10 5 10085.5 1250.27 1
0 -10 5 12335.6 1379.81 3
0 -10 -5 10435.6 1348.73 11
0 -10 6 -196.457 240.087 3
0 -10 -6 90.3191 262.065 7
0 -10 -6 158.844 301.819 11
0 -9 0 399.894 266.654 1
0 -9 0 594.904 198.434 8
0 -9 1 2025.87 518.651 1
0 -9 1 1657.01 335.511 8
0 -9 -1 2493.69 541.314 1
0 -9 2 9513.59 1102.25 1
0 -9 -2 10987.3 1112.62 1
0 -9 3 3213.84 674.222 1
0 -9 -3 4182.93 687.720 1
0 -9 -3 2451.89 588.220 11
0 -9 4 12720.6 1271.99 3
0 -9 4 9174.67 1095.44 1
0 -9 -4 10415.5 1064.55 1
0 -9 -4 11481.6 1263.86 11
0 -9 -5 29699.5 2151.35 11
0 -9 -5 24888.8 1998.97 7
0 -9 5 27752.9 1969.30 1
0 -9 -5 28719.4 1760.96 1
0 -9 5 24538.1 1882.63 3
0 -9 -6 6265.95 1039.66 7
0 -9 -6 6612.48 812.675 1
0 -9 -6 6959.85 1072.49 11
0 -9 6 8243.59 1132.57 3
0 -9 -7 675.790 363.853 7
0 -9 7 1244.45 535.063 3
0 -9 -7 978.224 493.141 11
0 -8 0 33900.9 1924.32 1
0 -8 0 37614.6 1401.41 8
0 -8 1 3427.98 627.168 1
0 -8 -1 4696.24 697.362 1
0 -8 -1 4219.52 381.068 8
0 -8 -2 28673.2 1700.90 1
0 -8 2 26912.3 1737.08 1
0 -8 -3 67397.8 2727.04 1
0 -8 -3 67873.5 1757.03 9
0 -8 3 71344.2 2970.68 1
0 -8 -4 7142.75 817.445 1
0 -8 4 5695.67 819.394 3
0 -8 4 8236.36 967.501 1
0 -8 -4 6847.22 582.804 9
0 -8 -4 8093.53 1018.26 11
0 -8 -5 10229.9 967.142 1
0 -8 5 11214.2 1188.18 3
0 -8 5 8517.23 1018.42 1
0 -8 -5 9456.88 1185.40 7
0 -8 -5 9459.45 1158.33 11
0 -8 -6 10138.4 929.293 1
0 -8 -6 11596.4 1318.72 11
0 -8 6 10782.3 1238.12 3
0 -8 6 10548.9 1151.47 1
0 -8 -6 10348.9 931.404 9
0 -8 -6 12039.9 1358.47 7
0 -8 -7 4988.65 898.724 11
0 -8 7 9035.04 1186.84 3
0 -8 -7 7330.53 865.010 9
0 -8 -7 6895.71 1065.88 7
0 -8 -8 4885.65 929.555 7
0 -8 8 4283.92 869.163 3
0 -8 -8 3089.03 747.770 11
0 -7 0 5832.10 501.701 8
0 -7 0 4957.52 711.347 1
0 -7 -1 6568.07 463.611 8
0 -7 1 5576.27 719.803 1
0 -7 -1 6377.81 737.045 1
0 -7 2 8647.47 895.140 1
0 -7 -2 7887.94 363.765 9
0 -7 -2 7598.78 795.922 1
0 -7 -3 44361.0 1434.19 9
0 -7 3 46787.4 1365.00 10
0 -7 3 43732.9 2132.72 1
0 -7 -3 45046.2 1999.98 1
0 -7 -4 9845.62 875.702 1
0 -7 4 10513.5 699.991 10
0 -7 4 10068.2 987.818 1
0 -7 -4 10585.3 755.092 9
0 -7 -4 10053.9 1064.10 11
0 -7 4 11601.3 1092.22 3
0 -7 5 8309.54 924.738 1
0 -7 -5 8352.76 1036.63 7
0 -7 5 9760.38 1054.40 3
0 -7 -5 12105.6 950.804 1
0 -7 -5 9911.52 1101.34 11
0 -7 -6 23961.4 1458.25 9
0 -7 6 23362.6 1738.42 3
0 -7 -6 20798.0 1714.51 7
0 -7 -6 22228.2 1734.36 11
0 -7 6 24591.0 1657.82 1
0 -7 -6 23429.2 1312.41 1
0 -7 7 35546.3 2321.51 3
0 -7 -7 38654.0 2431.31 11
0 -7 -7 37872.4 2036.49 9
0 -7 -7 42509.5 2547.67 7
0 -7 -8 3891.67 700.575 9
0 -7 -8 5870.84 958.437 7
0 -7 8 5481.58 946.284 3
0 -7 -8 4663.34 854.249 11
0 -7 -9 20261.3 1871.72 7
0 -7 -9 21152.4 1735.12 9
0 -7 -9 22073.7 1959.85 11
0 -7 9 17915.0 1822.20 3
0 -7 -10 4520.38 884.136 9
0 -6 0 26415.1 1440.81 1
0 -6 0 25748.3 1027.75 8
0 -6 -1 48524.4 1355.27 8
0 -6 1 40781.0 1890.52 1
0 -6 -1 42320.1 1866.37 1
0 -6 -2 23194.5 801.630 9
0 -6 2 24458.5 1412.93 1
0 -6 2 22448.1 720.838 10
0 -6 -2 23215.7 1293.82 1
0 -6 3 62209.4 2451.48 1
0 -6 3 63966.2 1786.08 10
0 -6 -3 64793.8 1880.52 9
0 -6 -3 69160.2 2356.58 1
0 -6 -4 11007.8 1042.59 11
0 -6 -4 9325.90 788.470 1
0 -6 4 9762.03 954.345 3
0 -6 4 11098.0 967.214 1
0 -6 -4 9978.52 745.547 9
0 -6 -5 21548.6 1554.77 7
0 -6 5 20456.8 1358.65 1
0 -6 5 21400.1 1493.51 3
0 -6 5 22331.3 774.175 11
0 -6 -5 20675.2 1509.89 11
0 -6 -5 21394.4 1172.53 1
0 -6 -6 9892.15 745.596 1
0 -6 -6 9178.26 1058.36 11
0 -6 -6 9355.22 903.273 9
0 -6 6 10197.3 1096.31 3
0 -6 -6 10174.6 1136.42 7
0 -6 -7 36516.7 1997.57 9
0 -6 -7 33015.7 2126.59 7
0 -6 7 35832.8 2203.21 3
0 -6 -7 31222.3 2072.45 11
0 -6 -8 12265.1 1339.60 7
0 -6 8 10403.8 1253.11 3
0 -6 -8 12481.4 1343.11 11
0 -6 -8 9466.31 1077.83 9
0 -6 -9 4510.45 848.732 11
0 -6 -9 4729.98 868.592 7
0 -6 -9 4209.47 803.113 9
0 -6 9 4446.86 888.121 3
0 -6 -10 9917.13 1303.63 7
0 -6 -10 9994.22 1277.04 9
0 -6 -10 10294.7 1330.77 11
0 -5 0 288.185 153.953 1
0 -5 0 102.127 142.946 2
0 -5 1 50807.8 1943.63 1
0 -5 1 52186.1 1910.79 2
0 -5 -1 49413.4 1866.34 1
0 -5 -1 52831.6 1376.97 8
0 -5 -1 49206.9 1844.99 2
0 -5 -2 72872.2 1809.51 9
0 -5 2 74240.4 2483.53 1
0 -5 -2 74609.5 2341.99 1
0 -5 2 75201.0 1744.80 10
0 -5 -2 75941.9 2434.34 2
0 -5 3 33650.4 1561.86 1
0 -5 -3 31378.8 1232.30 9
0 -5 -3 33443.8 1413.30 1
0 -5 -3 31482.7 1463.17 3
0 -5 -4 12539.4 1043.86 11
0 -5 4 11339.5 898.468 1
0 -5 -4 12956.0 820.245 1
0 -5 4 12137.2 992.893 3
0 -5 -4 12663.1 850.406 9
0 -5 -5 3557.74 418.313 1
0 -5 5 4089.94 553.514 1
0 -5 -5 4253.10 655.373 11
0 -5 -5 4036.02 633.085 7
0 -5 5 4737.62 283.961 11
0 -5 5 5291.19 706.410 3
0 -5 -6 60393.4 2468.88 9
0 -5 6 57727.9 2636.88 3
0 -5 -6 61914.1 1875.30 1
0 -5 -6 59373.1 2666.43 11
0 -5 -6 58316.6 2637.21 7
0 -5 -7 55998.6 2534.31 9
0 -5 7 55869.8 2728.49 3
0 -5 -7 54480.6 2662.53 7
0 -5 -7 54379.6 2634.52 11
0 -5 8 26643.2 1943.51 3
0 -5 -8 25821.6 1790.78 9
0 -5 -8 26428.2 1878.06 11
0 -5 -8 26863.7 1905.27 7
0 -5 -9 4202.42 808.274 7
0 -5 -9 2807.18 666.018 11
0 -5 9 3133.95 707.797 3
0 -5 -9 4161.40 759.495 9
0 -5 -10 6125.28 972.226 11
0 -5 -10 4251.68 847.451 9
0 -5 10 4746.19 919.830 3
0 -5 -10 5561.64 935.350 7
0 -5 -11 437.507 355.365 9
0 -5 -11 -21.0348 304.220 11
0 -4 0 85805.9 2379.73 2
0 -4 0 84022.0 2421.31 1
0 -4 1 10399.2 346.457 10
0 -4 -1 10381.4 691.555 1
0 -4 -1 9561.44 371.321 9
0 -4 1 9624.26 683.918 2
0 -4 1 11427.6 760.028 1
0 -4 -1 10362.8 459.739 8
0 -4 -1 10465.1 695.484 2
0 -4 -2 6401.97 536.353 1
0 -4 2 5894.18 570.427 1
0 -4 -2 6881.90 582.101 2
0 -4 -3 44899.8 1509.80 1
0 -4 3 43799.6 1680.70 1
0 -4 -3 42719.5 1691.02 2
0 -4 3 40696.7 1704.03 3
0 -4 -3 46652.5 1696.79 3
0 -4 -4 30770.3 1163.73 1
0 -4 4 29556.6 1368.77 1
0 -4 -4 31347.4 1582.63 7
0 -4 4 26274.6 1420.23 3
0 -4 4 27845.9 823.187 11
0 -4 -4 28749.5 1506.46 11
0 -4 -5 21572.6 1367.30 11
0 -4 5 19481.3 1302.10 3
0 -4 -5 22225.5 931.541 1
0 -4 -5 21950.6 1390.24 7
0 -4 5 22189.9 662.880 11
0 -4 5 24065.3 1228.50 1
0 -4 -6 23399.5 880.522 1
0 -4 6 20790.1 1451.09 3
0 -4 6 22556.8 924.519 6
0 -4 -6 20235.7 1419.45 7
0 -4 -6 20935.8 1423.61 11
0 -4 -7 12248.3 1128.58 9
0 -4 -7 12408.1 1129.93 11
0 -4 7 11692.6 1150.13 3
0 -4 -7 11802.5 1131.76 7
0 -4 -8 6814.68 877.324 11
0 -4 -8 4642.33 755.588 9
0 -4 8 6403.65 929.530 3
0 -4 -8 6010.04 849.556 7
0 -4 -9 2597.57 603.155 11
0 -4 -9 4062.74 728.796 7
0 -4 -9 3777.05 739.188 9
0 -4 9 2200.48 580.252 3
0 -4 10 181.973 323.515 3
0 -4 -10 403.532 269.685 11
0 -4 -10 77.2588 197.998 7
0 -4 -10 567.648 394.275 9
0 -4 -11 -10.8430 254.155 11
0 -4 -11 36.3184 214.855 7
0 -4 -11 358.408 306.269 9
0 -3 0 69.0430 97.5703 2
0 -3 0 -112.987 92.3494 1
0 -3 1 6553.70 509.947 1
0 -3 -1 5249.63 285.460 8
0 -3 -1 5685.28 443.838 1
0 -3 1 5842.68 461.759 2
0 -3 -1 5496.05 442.788 2
0 -3 -2 71136.5 1883.76 1
0 -3 2 73521.2 2098.25 2
0 -3 -2 75509.6 2073.15 2
0 -3 -2 72816.6 2007.34 3
0 -3 2 68923.0 2022.84 1
0 -3 3 9913.01 724.278 3
0 -3 -3 10545.4 572.236 1
0 -3 3 9874.03 409.049 11
0 -3 -3 11284.6 721.109 3
0 -3 3 10610.4 688.270 1
0 -3 4 11576.7 558.465 6
0 -3 -4 11576.8 804.811 3
0 -3 -4 12347.7 899.107 11
0 -3 -4 12754.8 601.087 1
0 -3 -4 12317.1 915.352 7
0 -3 4 12423.1 462.803 11
0 -3 4 12757.1 771.104 1
0 -3 4 11324.5 865.741 3
0 -3 4 12702.3 720.424 4
0 -3 5 10205.4 733.785 7
0 -3 5 8199.58 401.106 11
0 -3 5 7950.99 797.913 3
0 -3 -5 7677.77 754.341 11
0 -3 -5 9455.76 468.798 1
0 -3 5 9990.92 544.437 6
0 -3 -5 8749.69 818.102 7
0 -3 5 9985.49 671.343 4
0 -3 6 8333.66 656.920 4
0 -3 6 8354.88 873.214 3
0 -3 -6 9233.99 885.565 11
0 -3 6 7848.06 524.945 6
0 -3 -6 8043.52 825.239 7
0 -3 7 1496.01 424.957 3
0 -3 -7 2486.04 490.957 7
0 -3 7 2652.01 332.400 6
0 -3 -7 2951.10 522.521 11
0 -3 -8 30364.5 1863.49 7
0 -3 -8 31718.0 1850.29 11
0 -3 -8 33634.1 2058.44 9
0 -3 8 33460.2 2067.19 3
0 -3 -9 13320.4 1240.07 11
0 -3 -9 14465.5 1413.96 9
0 -3 -9 10785.6 1158.61 7
0 -3 9 13734.6 1401.80 3
0 -3 10 1598.60 556.285 3
0 -3 -10 1779.84 562.863 9
0 -3 -10 1664.42 487.797 7
0 -3 -10 1278.67 472.864 11
0 -3 -11 11129.6 1303.33 7
0 -3 -11 9477.36 1116.01 11
0 -3 -11 9921.05 1332.35 9
0 -3 11 9003.18 1295.38 3
0 -2 0 548444. 9705.29 1
0 -2 0 545488. 9667.33 2
0 -2 -1 244126. 4720.08 2
0 -2 -1 255231. 4401.37 8
0 -2 -1 244386. 4651.27 1
0 -2 1 234161. 4749.40 1
0 -2 -2 274453. 5294.14 3
0 -2 2 265547. 5113.81 4
0 -2 -2 268611. 5016.69 1
0 -2 2 272560. 5399.75 3
0 -2 -2 274557. 5335.13 2
0 -2 2 283719. 4924.90 6
0 -2 2 257313. 5220.99 1
0 -2 3 17092.0 912.871 3
0 -2 -3 17328.3 926.273 7
0 -2 -3 17813.6 613.367 1
0 -2 3 17976.5 750.380 4
0 -2 3 18482.3 796.364 1
0 -2 -3 16874.7 847.658 3
0 -2 3 17443.5 620.105 6
0 -2 3 17744.9 540.681 11
0 -2 -4 279854. 6109.47 7
0 -2 4 288118. 5788.80 7
0 -2 -4 285982. 5130.89 1
0 -2 -4 290552. 6035.04 3
0 -2 4 287373. 5585.03 5
0 -2 -4 277503. 6057.83 11
0 -2 4 291951. 5361.56 6
0 -2 4 294511. 5649.32 4
0 -2 4 273630. 6134.51 3
0 -2 4 289308. 5228.51 11
0 -2 4 277781. 5600.98 1
0 -2 5 707.098 155.634 6
0 -2 5 377.926 199.377 3
0 -2 5 624.166 185.990 7
0 -2 5 650.269 169.195 5
0 -2 -5 710.481 223.106 11
0 -2 -5 369.887 163.062 7
0 -2 5 915.505 205.459 4
0 -2 6 2835.52 504.064 3
0 -2 6 4135.40 445.876 4
0 -2 -6 4077.99 567.804 7
0 -2 6 3695.42 357.195 6
0 -2 6 3110.94 364.403 5
0 -2 -6 3314.03 494.344 11
0 -2 -7 3090.59 525.980 7
0 -2 7 3269.61 382.018 5
0 -2 -7 2315.31 437.568 11
0 -2 7 2374.19 320.326 6
0 -2 7 2969.12 414.113 4
0 -2 7 3450.61 593.348 3
0 -2 -8 5001.41 668.956 11
0 -2 -8 5351.22 733.604 7
0 -2 8 4469.35 741.962 3
0 -2 -9 4281.18 651.905 11
0 -2 9 3800.38 705.196 3
0 -2 -9 5569.60 786.015 7
0 -2 -9 3994.66 750.269 9
0 -2 -10 10649.4 1082.53 11
0 -2 -10 9531.24 1233.76 9
0 -2 -10 9426.26 1089.50 7
0 -2 10 11770.7 1374.54 3
0 -2 11 8513.63 1220.01 3
0 -2 -11 6902.97 989.362 7
0 -2 -11 7369.59 1156.25 9
0 -2 -12 18665.5 1719.37 7
0 -1 2 142383. 2883.20 7
0 -1 2 146843. 3088.19 3
0 -1 2 142665. 2818.61 4
0 -1 2 142413. 2805.46 1
0 -1 -2 145006. 3014.00 3
0 -1 2 142431. 2676.98 6
0 -1 2 138903. 2779.23 5
0 -1 -2 147248. 3086.86 7
0 -1 2 145191. 2627.40 11
0 -1 3 70537.1 1765.37 4
0 -1 -3 75418.4 2022.43 7
0 -1 -3 71053.2 1941.86 11
0 -1 3 72381.0 1616.01 11
0 -1 -3 69477.6 1968.32 3
0 -1 3 73361.2 2054.44 3
0 -1 3 72822.9 1685.74 5
0 -1 3 75007.6 1874.45 7
0 -1 4 232327. 4485.74 5
0 -1 -4 227174. 4977.77 7
0 -1 -4 236417. 4913.00 11
0 -1 4 227812. 4831.64 7
0 -1 4 235960. 4683.91 4
0 -1 4 224773. 5114.68 3
0 -1 -4 224314. 4996.03 3
0 -1 5 10246.9 667.025 4
0 -1 5 10174.4 836.057 3
0 -1 5 11025.0 761.224 7
0 -1 -5 10764.5 755.430 11
0 -1 5 11026.1 597.108 5
0 -1 -5 11335.6 808.746 7
0 -1 -6 28788.6 1383.19 11
0 -1 6 27415.4 1549.33 3
0 -1 6 31167.4 1135.30 5
0 -1 6 29959.8 1292.09 4
0 -1 -6 26987.8 1412.32 7
0 -1 -7 1662.25 380.951 7
0 -1 7 1663.85 330.633 4
0 -1 -7 1913.94 376.051 11
0 -1 7 1425.01 381.122 3
0 -1 7 2096.15 292.346 5
0 -1 7 1473.11 181.655 12
0 -1 -8 9435.07 862.572 11
0 -1 -8 8704.78 896.790 7
0 -1 8 9985.85 1070.28 3
0 -1 -9 22744.1 1568.86 7
0 -1 9 23918.8 1799.01 3
0 -1 -9 25093.6 1491.48 11
0 -1 -9 24558.0 1861.13 9
0 -1 10 2911.07 661.959 3
0 -1 -10 3203.32 613.973 7
0 -1 -10 2983.61 708.912 9
0 -1 -10 2705.32 506.381 11
0 -1 11 522.336 387.219 3
0 -1 -11 359.651 321.054 9
0 -1 -11 433.800 219.194 7
0 0 2 151003. 2966.31 7
0 0 2 144114. 3023.46 3
0 0 -2 144745. 2872.27 4
0 0 -2 141832. 2827.71 11
0 0 -2 148677. 2935.97 7
0 0 2 139452. 2863.48 4
0 0 -3 116657. 2156.92 1
0 0 -3 114612. 2600.39 4
0 0 -3 116144. 2566.88 11
0 0 3 115792. 2378.90 5
0 0 3 111532. 2786.68 3
0 0 -3 118119. 2803.91 3
0 0 3 118581. 2610.23 4
0 0 -3 116868. 2679.90 7
0 0 3 124554. 2743.35 7
0 0 -4 3063.87 186.570 1
0 0 -4 3247.75 341.066 11
0 0 4 3974.51 462.373 3
0 0 4 3082.11 378.098 7
0 0 -4 3326.78 361.755 4
0 0 -4 3984.69 423.303 7
0 0 4 3745.17 387.321 4
0 0 4 3072.04 277.396 5
0 0 -5 71096.5 2170.34 4
0 0 5 66462.9 2378.48 3
0 0 -5 73196.2 2089.98 11
0 0 -5 73334.1 2253.70 7
0 0 5 77169.3 1889.27 5
0 0 5 71498.0 2143.64 4
0 0 -5 73388.7 1481.19 1
0 0 5 75493.4 2347.02 7
0 0 6 12790.6 1017.03 3
0 0 6 12022.9 660.947 5
0 0 -6 12270.6 895.403 7
0 0 6 12296.1 837.239 4
0 0 -6 12938.2 861.578 4
0 0 -6 12034.2 787.418 11
0 0 -7 29878.7 1544.63 7
0 0 7 28572.3 1687.78 3
0 0 -7 28629.7 1346.72 11
0 0 -7 28037.2 1432.05 4
0 0 7 30079.8 1157.51 5
0 0 -8 20327.9 1350.67 7
0 0 8 20094.0 976.563 5
0 0 -8 21254.1 1204.08 11
0 0 8 16285.3 1375.80 3
0 0 -9 6047.37 810.769 7
0 0 9 4993.41 822.967 3
0 0 -9 5393.40 878.930 9
0 0 -9 7296.36 729.663 11
0 0 -10 18229.6 1706.01 9
0 0 10 15260.2 1517.03 3
0 0 11 891.562 429.065 3
0 0 -11 769.321 436.590 9
0 1 2 143027. 3021.77 4
0 1 -2 146905. 2856.95 4
0 1 -2 143800. 2625.19 11
0 1 2 147049. 3038.69 3
0 1 -2 141776. 2826.69 1
0 1 -2 143999. 2798.99 5
0 1 3 72511.6 2011.72 3
0 1 -3 73879.5 1617.60 11
0 1 3 76974.2 1992.89 4
0 1 -3 74249.0 1691.27 1
0 1 -3 72610.6 1703.35 5
0 1 3 70718.3 2033.47 7
0 1 -3 74566.9 1820.91 4
0 1 -4 239092. 4744.96 4
0 1 -4 225725. 4403.06 1
0 1 -4 238002. 4461.34 11
0 1 4 233480. 4929.92 4
0 1 4 214784. 5014.14 3
0 1 4 236044. 5110.52 7
0 1 -5 9840.16 506.778 1
0 1 5 11084.6 843.924 3
0 1 -5 10173.7 575.858 11
0 1 5 11045.9 764.867 4
0 1 -5 11184.2 714.809 4
0 1 -5 10995.2 736.808 7
0 1 5 10268.7 808.300 7
0 1 6 27041.0 1075.31 5
0 1 -6 29396.6 947.476 1
0 1 -6 28604.5 1297.09 4
0 1 -6 28211.5 1119.41 11
0 1 6 26994.5 1502.68 3
0 1 6 27598.0 1368.66 4
0 1 7 1552.62 256.906 5
0 1 -7 1248.22 248.789 11
0 1 -7 1318.16 298.860 4
0 1 7 1716.23 426.563 3
0 1 -7 1809.68 203.716 1
0 1 -8 10605.2 747.408 11
0 1 -8 8148.28 775.707 4
0 1 8 9206.43 1004.12 3
0 1 9 20511.6 1639.30 3
0 1 -9 23316.6 1207.35 11
0 1 -9 23423.1 1798.81 9
0 1 -9 22202.2 1379.86 4
0 1 -10 3748.92 786.768 9
0 1 10 2193.14 588.146 3
0 1 -11 521.087 442.893 9
0 1 11 872.595 456.464 3
0 2 0 545867. 9636.46 2
0 2 1 244179. 4697.72 2
0 2 1 247200. 4615.61 1
0 2 1 242169. 4346.99 8
0 2 -2 267588. 5084.81 4
0 2 -2 268760. 5113.47 5
0 2 2 267054. 5310.26 2
0 2 -2 268501. 4857.26 6
0 2 -2 281483. 5260.24 1
0 2 2 266509. 4976.60 1
0 2 3 18224.7 915.897 4
0 2 -3 18928.1 770.312 5
0 2 -3 17987.8 764.453 4
0 2 -3 17801.6 788.438 1
0 2 3 18537.5 929.984 2
0 2 3 18107.1 907.176 3
0 2 3 18456.0 624.688 1
0 2 4 284065. 5999.74 3
0 2 -4 287891. 5625.40 4
0 2 -4 281303. 5507.54 5
0 2 4 286707. 5990.58 4
0 2 -4 272113. 5541.36 1
0 2 -5 535.073 149.579 5
0 2 -5 490.238 167.093 4
0 2 -5 613.982 152.046 1
0 2 -5 861.707 143.822 11
0 2 5 641.844 220.364 4
0 2 5 601.106 215.657 3
0 2 -6 3809.53 330.896 11
0 2 6 4146.74 577.702 3
0 2 -6 4071.03 463.447 4
0 2 -6 3943.77 386.158 1
0 2 -7 3014.87 344.869 1
0 2 -7 2572.55 403.976 4
0 2 -7 2986.34 327.331 11
0 2 7 2871.71 525.906 3
0 2 -8 4902.05 440.374 11
0 2 8 4573.95 727.853 3
0 2 -8 4284.85 558.022 4
0 2 -9 4618.94 617.536 4
0 2 -9 3948.81 747.202 9
0 2 9 4760.17 787.364 3
0 2 10 8999.18 1169.24 3
0 2 -10 12181.2 1391.23 9
0 2 -11 9442.27 1301.80 9
0 2 11 8911.74 1247.18 3
0 3 0 -28.1631 96.2519 2
0 3 -1 5488.37 261.664 9
0 3 1 5387.90 432.372 1
0 3 1 5804.78 458.254 2
0 3 -1 5203.16 445.123 2
0 3 -2 72761.1 2061.17 1
0 3 2 71595.4 1881.13 1
0 3 -2 70013.9 1711.81 6
0 3 -2 71224.0 1896.76 4
0 3 2 71742.9 2037.41 2
0 3 2 71999.9 1668.30 8
0 3 3 10609.3 568.084 1
0 3 3 10549.8 729.830 2
0 3 -3 10664.8 633.271 4
0 3 -3 10023.2 626.003 5
0 3 -3 10625.8 496.712 6
0 3 -3 10892.8 695.239 1
0 3 4 12000.0 857.191 2
0 3 4 12843.0 863.018 3
0 3 4 11449.3 844.870 4
0 3 4 11889.2 580.939 1
0 3 -4 12234.4 764.145 1
0 3 -4 11598.4 705.021 4
0 3 -4 12114.9 712.153 5
0 3 -5 9846.08 668.896 5
0 3 -5 9746.67 703.635 1
0 3 5 8439.24 778.348 2
0 3 5 8575.78 785.918 3
0 3 -5 9211.05 670.761 4
0 3 -6 8475.72 664.055 1
0 3 -6 8776.25 702.953 4
0 3 -6 8173.75 633.679 5
0 3 6 7447.35 808.731 2
0 3 6 8346.94 837.262 3
0 3 -7 2420.98 401.341 4
0 3 -7 2521.69 366.954 1
0 3 7 1457.54 371.655 2
0 3 7 2434.26 503.853 3
0 3 -7 2117.74 333.807 5
0 3 -8 32457.7 1601.02 4
0 3 8 30785.8 1923.50 3
0 3 8 34134.5 2050.73 2
0 3 -8 33887.2 2047.66 9
0 3 -9 13034.2 1031.47 4
0 3 9 12816.8 1294.24 3
0 3 -9 13969.0 1389.72 9
0 3 9 10346.2 1186.72 2
0 3 10 1306.09 475.862 3
0 3 10 1513.69 504.751 2
0 3 -10 1429.80 501.772 9
0 3 -11 8118.48 1230.32 9
0 3 11 10375.7 1332.76 3
0 3 11 8870.47 1256.83 2
0 4 0 87218.0 2375.88 2
0 4 -1 9136.35 325.735 9
0 4 -1 9318.51 663.416 2
0 4 1 9373.12 668.039 1
0 4 1 11049.0 718.704 2
0 4 2 5980.52 551.127 2
0 4 -2 5715.91 510.984 4
0 4 2 5935.35 514.685 1
0 4 -2 6053.56 444.034 6
0 4 2 6565.97 385.645 8
0 4 -2 6037.32 388.685 9
0 4 -3 46100.5 1735.56 1
0 4 3 44019.5 1500.14 1
0 4 3 41514.6 1665.83 2
0 4 -3 44803.1 1560.62 4
0 4 -3 42791.6 1587.54 5
0 4 3 43880.0 1330.99 8
0 4 -3 44601.2 1325.14 6
0 4 4 27679.1 1116.28 1
0 4 -4 28686.7 1271.07 5
0 4 4 28822.4 1433.11 2
0 4 -4 28311.5 988.369 6
0 4 -4 27226.8 1212.78 4
0 4 4 28634.1 1150.18 8
0 4 5 22483.4 947.864 1
0 4 -5 21459.1 1103.32 4
0 4 5 20026.7 1269.60 2
0 4 -5 20081.8 1071.50 5
0 4 -6 22186.3 1190.97 4
0 4 6 23615.6 1489.39 2
0 4 6 21732.9 1401.31 3
0 4 -6 21039.4 1134.29 5
0 4 7 11021.4 1057.60 3
0 4 -7 12645.8 1122.95 9
0 4 -7 13642.1 974.806 4
0 4 -7 11136.1 835.722 5
0 4 7 11468.2 1115.53 2
0 4 8 6095.26 847.830 3
0 4 -8 5641.75 600.635 5
0 4 8 6435.52 899.269 2
0 4 -8 5909.73 838.929 9
0 4 -8 5078.31 625.730 4
0 4 -9 2970.46 647.060 9
0 4 9 2432.90 586.286 2
0 4 10 394.059 323.721 3
0 4 -10 94.8358 243.343 9
0 4 10 302.209 329.247 2
0 4 -11 23.2091 210.728 9
0 4 11 -436.514 394.623 2
0 4 11 130.239 274.076 3
0 5 0 404.675 211.160 2
0 5 1 50407.5 1879.71 1
0 5 1 48945.8 1822.85 2
0 5 -1 50667.7 1856.45 2
0 5 -2 72258.9 1749.95 9
0 5 2 75952.7 2377.82 1
0 5 2 75774.4 2412.91 2
0 5 3 31642.1 1505.90 2
0 5 -3 32199.9 1406.07 4
0 5 -3 33881.9 1225.97 6
0 5 3 31085.1 1380.51 1
0 5 -3 33804.1 1224.33 9
0 5 3 31327.8 1084.40 8
0 5 -3 32822.7 1467.25 5
0 5 4 12622.4 811.460 1
0 5 4 12662.3 721.556 8
0 5 4 12765.0 976.480 2
0 5 -4 13474.3 890.533 4
0 5 -4 11410.9 652.355 6
0 5 -4 12130.0 876.263 5
0 5 -4 12624.4 828.236 9
0 5 5 4017.69 595.906 2
0 5 -5 5060.10 578.602 5
0 5 -5 4503.54 517.212 4
0 5 -5 4354.04 548.561 9
0 5 5 4644.38 488.927 8
0 5 5 4616.68 474.801 1
0 5 -6 57916.6 2172.56 5
0 5 -6 59313.2 2404.15 9
0 5 -6 60610.5 2200.19 4
0 5 6 61500.8 2606.91 2
0 5 7 53973.3 2582.97 2
0 5 -7 57229.6 2531.50 9
0 5 -7 54543.7 2148.80 5
0 5 -7 55515.0 2188.11 4
0 5 -8 29106.8 1904.02 9
0 5 -8 28144.9 1500.70 5
0 5 -8 27321.2 1535.25 4
0 5 8 27848.6 1924.80 2
0 5 9 3045.90 689.628 2
0 5 -9 4103.24 745.190 9
0 5 -10 6438.27 1007.57 9
0 5 10 4912.42 900.904 2
0 5 11 210.658 252.388 2
0 5 -11 -74.1471 277.429 9
0 6 0 26210.5 1367.25 2
0 6 -1 43895.0 1846.35 2
0 6 1 45003.2 1851.52 2
0 6 2 23857.8 788.309 10
0 6 -2 22332.5 724.964 9
0 6 2 24513.8 1352.13 2
0 6 -3 62886.5 2265.63 4
0 6 -3 62668.7 1982.97 6
0 6 -3 65224.4 2365.12 5
0 6 3 62542.1 2380.68 2
0 6 -3 63727.4 1800.79 9
0 6 -4 11194.6 706.436 6
0 6 -4 10349.4 840.189 4
0 6 -4 11726.3 781.415 9
0 6 4 9957.31 915.741 2
0 6 4 10999.5 661.429 8
0 6 -4 11834.0 950.432 5
0 6 -5 20898.2 1219.82 9
0 6 5 21471.0 1445.30 2
0 6 -5 21897.3 982.995 6
0 6 5 20969.5 1045.75 8
0 6 -5 21903.9 1275.70 4
0 6 -5 19633.1 1261.22 5
0 6 -6 9115.62 825.360 4
0 6 -6 8935.57 872.538 9
0 6 6 8643.13 966.228 2
0 6 -6 9177.06 858.336 5
0 6 -7 35228.9 1944.84 9
0 6 7 33032.8 2043.39 2
0 6 -7 34618.1 1751.66 4
0 6 -7 36637.1 1813.60 5
0 6 -8 11518.1 1007.48 4
0 6 8 13309.5 1342.86 2
0 6 -8 11720.1 1183.17 9
0 6 -8 11875.1 1019.19 5
0 6 9 4441.31 841.228 2
0 6 -9 5473.53 878.987 9
0 6 -10 10414.6 1281.12 9
0 6 10 9398.57 1270.81 2
0 6 -11 -25.4332 264.674 9
0 7 0 6891.61 756.768 2
0 7 1 6873.98 734.379 2
0 7 -1 4985.38 643.518 2
0 7 2 8231.62 352.566 10
0 7 2 7795.71 806.379 2
0 7 -3 46465.4 1371.19 9
0 7 -3 44124.1 1726.02 6
0 7 3 45535.5 2104.53 2
0 7 -3 43182.4 1971.98 4
0 7 -3 43416.4 2020.63 5
0 7 3 46601.0 1416.66 10
0 7 -4 11211.6 772.722 6
0 7 -4 10514.6 914.095 4
0 7 4 8689.08 914.397 2
0 7 4 11070.8 741.822 10
0 7 -4 11269.5 987.866 5
0 7 -4 10162.0 706.273 9
0 7 -5 11059.0 857.815 9
0 7 -5 11358.8 746.461 6
0 7 -5 10374.1 924.864 4
0 7 5 8479.95 948.135 2
0 7 -5 11101.6 1012.57 5
0 7 6 23169.6 1665.19 2
0 7 -6 25705.7 1470.22 9
0 7 -6 20282.5 1401.98 5
0 7 -6 24779.6 1485.86 4
0 7 -7 35138.1 1940.79 9
0 7 -7 38797.8 1944.49 4
0 7 7 36147.2 2206.16 2
0 7 -7 37477.9 1955.97 5
0 7 -8 5247.56 798.095 9
0 7 8 4373.98 798.194 2
0 7 -8 4824.13 697.037 5
0 7 -9 24675.5 1850.97 9
0 7 9 21999.8 1885.97 2
0 7 -10 4442.26 868.751 9
0 7 10 3376.39 785.918 2
0 8 0 34187.5 1830.86 2
0 8 1 4579.21 650.063 2
0 8 -1 3661.20 600.128 2
0 8 2 27224.3 1638.98 2
0 8 -3 69322.5 2398.05 6
0 8 3 64426.5 2729.81 2
0 8 -3 65730.4 2723.15 5
0 8 -3 64870.8 2649.96 4
0 8 -4 8405.20 913.118 5
0 8 -4 7097.70 667.591 6
0 8 -4 7236.68 546.313 9
0 8 4 7076.48 880.776 2
0 8 -4 6241.67 777.340 4
0 8 -5 10595.0 996.779 4
0 8 -5 9686.25 1007.36 5
0 8 -5 8562.79 705.152 6
0 8 5 8295.15 983.264 2
0 8 -6 12188.0 1091.64 4
0 8 6 7827.66 994.426 2
0 8 -6 10911.9 1073.25 5
0 8 -7 7109.11 843.935 4
0 8 7 5093.86 848.146 2
0 8 -7 6292.61 844.493 5
0 8 -8 4651.78 734.927 5
0 8 8 4588.84 862.557 2
0 8 9 3358.27 767.272 2
0 9 0 539.105 286.245 2
0 9 1 1319.58 368.641 2
0 9 -1 1667.90 453.906 2
0 9 -2 8590.31 861.698 6
0 9 2 9938.92 1026.10 2
0 9 3 2861.41 588.104 2
0 9 -3 2761.95 566.397 4
0 9 -3 3674.20 565.957 6
0 9 -3 2910.79 595.826 5
0 9 -4 9904.11 856.792 6
0 9 4 10640.3 1125.99 2
0 9 -4 9679.57 1029.91 4
0 9 -4 10454.2 1107.23 5
0 9 5 26958.5 1897.33 2
0 9 -5 27418.6 1835.70 5
0 9 -5 27989.2 1771.40 4
0 9 6 7728.69 1041.92 2
0 9 -6 6980.67 884.839 4
0 9 -6 5728.87 843.841 5
0 9 -7 1023.72 385.960 5
0 9 7 825.693 407.887 2
0 9 -8 963.087 414.252 5
0 9 8 1104.74 456.917 2
0 9 9 12736.3 1529.17 2
0 10 0 46694.8 2460.63 2
0 10 -1 705.212 337.412 2
0 10 1 178.346 199.114 2
0 10 -2 10902.3 1040.44 6
0 10 2 11908.3 1207.47 2
0 10 -3 9925.50 957.384 6
0 10 -3 8735.72 1050.57 4
0 10 3 8839.21 1065.03 2
0 10 -3 10091.1 1146.59 5
0 10 -4 3815.67 726.094 5
0 10 -4 3945.54 705.928 4
0 10 4 4044.48 747.879 2
0 10 -5 11122.7 1230.87 5
0 10 5 10935.0 1257.06 2
0 10 -5 12242.6 1231.89 4
0 10 6 61.7949 237.550 2
0 10 -6 -44.4763 213.286 5
0 10 -6 529.570 359.408 4
0 10 7 2367.48 629.807 2
0 10 -7 3228.63 680.268 5
0 10 8 4778.40 939.916 2
0 11 0 51.5582 235.473 2
0 11 1 7139.03 991.155 2
0 11 -2 1927.00 500.297 6
0 11 2 1692.88 539.528 2
0 11 -2 1149.65 452.777 5
0 11 -2 2475.98 617.536 4
0 11 -3 1017.02 438.696 4
0 11 3 511.925 309.374 2
0 11 -3 1092.02 459.353 5
0 11 -4 5325.47 861.884 4
0 11 4 4256.47 806.776 2
0 11 -4 4661.46 840.350 5
0 11 -5 2978.52 655.798 4
0 11 5 2918.16 702.269 2
0 11 -5 1974.98 563.624 5
0 11 6 610.570 386.677 2
0 11 -6 706.901 377.361 5
0 11 7 -155.469 448.695 2
0 12 0 22784.8 1902.95 2
0 12 1 9246.66 1199.15 2
0 12 -1 8654.11 1075.63 6
0 12 2 1203.64 456.042 2
0 12 -2 1019.70 439.686 4
0 12 -3 4064.40 796.117 4
0 12 3 4653.44 862.639 2
0 12 4 11733.2 1390.92 2
0 12 -4 15772.7 1567.89 4
0 12 5 1630.37 559.878 2
0 13 1 5722.81 994.929 2
-1 -13 -1 813.502 522.482 11
1 -12 -5 1226.27 551.918 1
-1 -12 5 953.664 451.787 3
1 -12 -4 3926.54 858.559 1
-1 -12 4 791.968 421.227 3
1 -12 -3 4484.56 885.327 1
-1 -12 3 4512.20 837.569 3
1 -12 -2 740.900 392.567 1
1 -12 -1 4370.18 880.150 1
-1 -12 0 2060.85 601.279 11
-1 -12 -1 737.996 370.569 11
-1 -12 -2 6317.15 1050.74 11
-1 -11 6 121.237 248.106 3
1 -11 -5 4470.84 808.623 1
1 -11 -5 4556.77 947.904 11
-1 -11 5 3919.42 793.100 3
1 -11 -4 497.746 327.388 1
-1 -11 4 232.691 322.370 3
1 -11 -3 3347.52 741.044 1
-1 -11 3 2868.48 637.573 3
1 -11 -2 11350.9 1321.33 1
-1 -11 2 9797.25 1087.71 3
1 -11 -1 6476.33 1011.55 1
-1 -11 1 6094.18 865.165 11
-1 -11 0 1591.01 485.939 11
1 -11 0 2830.25 688.506 1
-1 -11 -1 3334.27 718.032 11
1 -11 1 2724.91 683.030 1
-1 -11 -2 25970.2 2024.09 11
1 -11 2 22303.5 1921.76 1
-1 -11 -3 8376.15 1214.41 7
-1 -11 -3 8098.87 1174.61 11
1 -11 3 8178.83 1173.51 1
-1 -11 -4 4185.44 868.978 7
1 -11 4 2798.68 739.673 3
1 -11 4 3197.70 751.571 1
-1 -11 -4 2862.66 744.511 11
-1 -10 7 15213.9 1634.21 3
1 -10 -6 22294.0 1689.17 1
1 -10 -6 19623.1 1884.35 11
-1 -10 6 19119.4 1740.13 3
1 -10 -5 2335.35 571.356 1
-1 -10 5 1946.66 561.301 3
-1 -10 4 3838.03 716.100 3
1 -10 -4 4023.13 749.854 1
1 -10 -3 6265.56 919.800 1
-1 -10 3 5349.01 783.871 3
-1 -10 2 11054.7 1031.99 11
-1 -10 2 11821.6 1043.20 8
1 -10 -2 9828.77 1164.49 1
-1 -10 1 -19.9345 219.599 11
-1 -10 1 62.3422 112.813 8
1 -10 -1 -27.3510 250.728 1
-1 -10 0 2322.26 540.691 11
1 -10 0 1756.29 528.777 1
-1 -10 -1 15904.9 1437.41 11
1 -10 1 16645.0 1539.25 1
-1 -10 -2 167.520 289.759 11
1 -10 2 244.584 298.841 1
-1 -10 -3 2297.45 618.355 7
-1 -10 -3 2741.08 660.779 11
1 -10 3 1779.60 547.430 1
1 -10 4 11639.7 1328.73 1
-1 -10 -4 10068.7 1279.37 7
-1 -10 -4 12932.9 1453.71 11
-1 -10 -5 3823.73 825.037 11
-1 -10 -5 5286.11 972.716 7
1 -10 5 3855.12 793.797 1
1 -10 5 4122.32 836.707 3
1 -10 6 1521.84 570.292 3
1 -10 6 2052.00 581.410 1
1 -10 7 5911.33 1014.24 1
-1 -9 8 2879.89 744.542 3
1 -9 -7 421.255 326.326 7
1 -9 -7 -64.5203 298.000 11
-1 -9 7 529.389 360.398 3
1 -9 -6 787.230 325.726 1
-1 -9 6 533.096 342.081 3
-1 -9 5 11767.2 1221.78 3
1 -9 -5 11223.8 1124.50 1
-1 -9 4 16931.2 1407.19 3
1 -9 -4 18264.6 1453.03 1
-1 -9 3 528.883 233.370 11
-1 -9 3 1338.88 377.340 3
1 -9 -3 352.184 209.157 1
-1 -9 2 18857.5 1287.80 8
1 -9 -2 18772.1 1499.29 1
-1 -9 2 16571.8 1195.75 11
-1 -9 1 2173.23 467.724 11
-1 -9 1 1808.72 524.939 1
1 -9 -1 2964.79 610.903 1
-1 -9 1 2007.10 417.523 8
-1 -9 0 10226.7 1114.99 1
1 -9 0 10602.7 1137.75 1
-1 -9 0 11645.9 1103.88 11
-1 -9 0 12674.0 941.274 8
-1 -9 -1 18618.2 1482.37 11
-1 -9 -1 22203.5 1613.58 1
1 -9 1 22853.1 1707.08 1
-1 -9 -1 20744.6 1168.08 8
-1 -9 -2 6829.73 633.511 8
-1 -9 -2 6233.21 884.402 11
1 -9 2 6525.45 919.798 1
-1 -9 -3 2269.18 573.273 7
-1 -9 -3 2523.70 614.873 11
1 -9 3 2164.14 532.244 1
-1 -9 -4 8799.92 1154.39 11
1 -9 4 10701.8 1195.64 1
-1 -9 -4 9599.87 1180.78 7
-1 -9 -5 1707.93 567.352 11
1 -9 5 3750.02 749.248 1
-1 -9 -5 3145.35 724.978 7
1 -9 5 2894.14 685.008 3
-1 -9 -6 10066.1 1299.76 11
-1 -9 -6 9574.74 1272.97 7
1 -9 6 11791.3 1395.40 3
1 -9 6 8873.84 1131.83 1
-1 -9 -7 4609.49 944.923 11
-1 -9 -7 2517.45 691.927 7
1 -9 7 6297.83 1055.09 3
1 -9 7 4829.62 839.666 1
1 -8 -9 18657.6 1853.63 11
1 -8 -9 17498.0 1781.65 7
-1 -8 9 18402.6 1844.73 3
1 -8 -8 5162.35 936.263 7
-1 -8 8 4332.75 863.049 3
1 -8 -8 4738.46 908.641 11
-1 -8 7 4364.97 807.327 3
1 -8 -7 4460.19 830.462 11
1 -8 -7 5158.11 719.380 9
1 -8 -7 4764.73 657.680 1
1 -8 -7 6673.39 1036.58 7
-1 -8 6 37349.2 2276.32 3
1 -8 -6 40378.1 2027.15 1
-1 -8 5 6920.74 897.857 3
1 -8 -5 8979.09 932.792 1
-1 -8 4 11586.6 741.425 11
-1 -8 4 12636.8 1129.14 3
1 -8 -4 11468.2 1074.21 1
1 -8 -3 42257.3 2148.89 1
1 -8 -3 42034.1 1297.93 9
-1 -8 3 43158.7 2078.63 3
-1 -8 3 40733.7 1682.98 11
-1 -8 2 18967.9 1188.14 11
1 -8 -2 17653.4 1370.09 1
1 -8 -1 2519.95 530.858 1
-1 -8 1 3899.25 647.837 1
-1 -8 1 2575.23 458.865 11
-1 -8 1 2427.06 419.457 8
-1 -8 0 40135.6 1670.33 8
1 -8 0 33928.1 1973.70 1
-1 -8 0 37120.5 2018.61 1
-1 -8 0 37321.7 1909.26 11
1 -8 1 36804.4 2058.34 1
-1 -8 -1 39694.7 2046.01 1
-1 -8 -1 34055.0 1920.92 11
-1 -8 -1 36987.4 1562.30 8
-1 -8 -2 11650.3 829.065 8
1 -8 2 12289.5 1173.35 1
-1 -8 -2 13471.4 1153.97 1
-1 -8 -2 10736.6 1096.44 11
-1 -8 -3 27355.3 1843.87 11
1 -8 3 27422.0 1799.02 1
-1 -8 -3 23815.0 1719.34 7
-1 -8 -4 266.297 285.911 11
1 -8 4 252.157 287.474 1
-1 -8 -4 986.671 423.944 7
1 -8 5 12704.4 1232.80 1
-1 -8 -5 10662.1 1236.96 11
1 -8 5 11255.7 1261.69 3
-1 -8 -5 9188.07 1159.19 7
-1 -8 -5 9789.58 863.747 9
-1 -8 -6 5395.43 703.188 9
-1 -8 -6 5281.21 915.508 7
1 -8 6 6607.38 1002.36 3
1 -8 6 5268.42 812.827 1
-1 -8 -6 5900.44 947.877 11
-1 -8 -7 3216.96 752.385 7
1 -8 7 3478.78 664.271 1
1 -8 7 2868.76 701.151 3
-1 -8 -7 2977.25 737.859 11
1 -8 8 1104.39 493.123 3
-1 -8 -8 478.493 317.131 11
1 -7 -11 5242.33 992.538 9
1 -7 -10 6656.88 1032.75 9
1 -7 -10 8084.23 1204.84 11
1 -7 -10 7483.61 1162.14 7
1 -7 -9 17194.7 1540.35 9
1 -7 -9 14122.3 1551.74 11
1 -7 -9 16067.9 1653.58 7
-1 -7 9 16709.0 1697.64 3
1 -7 -8 347.346 313.523 7
-1 -7 8 923.905 423.644 3
1 -7 -8 1201.34 505.612 11
1 -7 -7 745.075 265.930 1
1 -7 -7 584.829 365.384 7
-1 -7 7 1382.16 468.100 3
1 -7 -7 775.292 323.905 11
1 -7 -6 46292.3 2060.71 1
-1 -7 6 48005.4 2472.11 3
1 -7 -5 1331.57 345.629 1
-1 -7 5 2116.53 510.604 3
1 -7 -4 14707.6 1136.64 1
-1 -7 4 14342.4 1153.97 3
-1 -7 4 14738.5 750.966 11
-1 -7 3 5831.65 543.059 11
1 -7 -3 6501.40 757.251 1
-1 -7 3 7258.59 763.605 3
-1 -7 2 11125.4 428.227 10
-1 -7 2 11487.7 1043.62 1
1 -7 -2 10335.5 970.375 1
-1 -7 2 10216.7 788.596 11
1 -7 -1 14881.7 1166.91 1
-1 -7 1 13823.6 1130.90 1
-1 -7 1 16013.4 1013.91 8
-1 -7 1 15442.5 1048.17 11
-1 -7 0 44374.0 2048.37 1
1 -7 0 39410.0 1997.23 1
-1 -7 0 43569.4 1691.41 8
-1 -7 0 39961.6 1877.92 11
-1 -7 -1 27953.1 1644.14 11
-1 -7 -1 30862.2 1345.84 8
1 -7 1 30094.7 1732.64 1
-1 -7 -1 29961.7 1644.05 1
-1 -7 -2 19106.0 1025.59 8
1 -7 2 17243.5 1299.41 1
-1 -7 -2 14606.3 1214.65 11
-1 -7 -2 19930.1 1290.73 1
1 -7 3 19895.3 974.097 10
-1 -7 -3 19665.1 1001.65 9
1 -7 3 19436.4 1399.93 1
-1 -7 -3 17346.6 1363.51 7
-1 -7 -3 17518.9 1391.03 11
-1 -7 -4 5534.46 811.198 11
-1 -7 -4 4981.80 757.374 7
1 -7 4 3744.67 642.546 1
-1 -7 -5 28612.5 1542.47 9
-1 -7 -5 25659.3 1840.59 7
-1 -7 -5 27280.1 1902.93 11
1 -7 5 25599.1 1816.80 3
1 -7 5 28151.6 1754.41 1
1 -7 6 7902.73 1050.42 3
-1 -7 -6 9667.47 949.415 9
-1 -7 -6 9147.23 1144.64 11
-1 -7 -6 7003.88 1000.68 7
1 -7 6 8136.88 936.150 1
1 -7 7 15792.5 1562.37 3
-1 -7 -7 15377.0 1533.39 11
1 -7 7 14638.5 1292.06 1
-1 -7 -7 15498.5 1324.77 9
-1 -7 -7 15950.1 1556.69 7
-1 -7 -8 942.178 416.708 11
-1 -7 -8 1035.69 450.437 7
-1 -7 -8 1693.48 501.315 9
1 -7 8 966.746 452.843 3
-1 -7 -9 368.892 373.458 11
-1 -7 -9 14.7159 257.749 9
-1 -7 -10 7196.57 1121.49 9
1 -6 -11 1969.14 679.619 11
1 -6 -11 2175.49 666.366 9
-1 -6 10 5381.03 985.439 3
1 -6 -10 3721.71 801.059 7
1 -6 -10 5123.39 919.401 11
1 -6 -10 3932.09 792.598 9
1 -6 -9 5046.05 891.309 11
-1 -6 9 3811.14 790.179 3
1 -6 -9 4403.74 823.808 7
-1 -6 8 13964.7 1409.18 3
1 -6 -8 14219.9 1404.38 11
1 -6 -8 15489.9 1471.89 7
-1 -6 7 2252.37 536.781 3
1 -6 -7 2310.20 399.646 1
1 -6 -7 2011.16 528.711 7
-1 -6 6 34083.1 1984.39 3
1 -6 -6 33606.0 1595.22 1
1 -6 -5 19180.6 1189.88 1
-1 -6 5 21137.1 1429.89 3
1 -6 -4 6228.15 683.342 1
-1 -6 4 6687.93 413.504 11
-1 -6 4 6432.21 719.136 3
-1 -6 3 16971.3 836.114 11
1 -6 -3 15848.3 1008.73 2
-1 -6 3 13746.3 1006.07 3
1 -6 -3 15219.5 1079.71 1
-1 -6 2 32016.1 1347.80 11
1 -6 -2 32491.8 1458.46 2
1 -6 -2 32865.6 1636.72 1
-1 -6 2 35272.1 1740.79 1
-1 -6 1 55213.7 1990.04 11
1 -6 -1 53857.8 2203.02 1
-1 -6 1 56660.4 2254.63 1
1 -6 -1 56765.5 2002.13 2
1 -6 -1 56515.6 1342.12 9
-1 -6 1 57520.8 1236.50 10
-1 -6 0 9391.62 794.523 11
1 -6 0 7765.81 789.625 1
1 -6 0 9632.62 769.198 2
1 -6 0 8922.25 382.482 9
-1 -6 0 9539.17 703.378 8
-1 -6 0 8339.30 791.686 1
-1 -6 -1 8701.59 812.200 11
-1 -6 -1 7941.35 759.829 1
-1 -6 -1 8759.77 660.590 8
1 -6 1 7054.69 760.368 1
-1 -6 -2 1630.02 242.493 9
-1 -6 -2 1570.85 366.810 11
-1 -6 -2 1449.01 279.203 8
1 -6 2 1355.18 218.575 10
1 -6 2 909.592 320.357 1
-1 -6 -2 1276.37 316.717 1
-1 -6 -3 9869.42 976.990 7
1 -6 3 9861.01 919.919 1
-1 -6 -3 10931.4 1025.08 11
-1 -6 -3 10140.4 718.235 9
-1 -6 -3 12277.3 827.373 3
1 -6 3 11631.7 742.469 10
1 -6 4 17130.8 1234.66 1
-1 -6 -4 17726.3 1369.16 7
-1 -6 -4 18241.3 1390.79 11
1 -6 5 34630.8 2025.45 3
-1 -6 -5 32130.0 1998.21 11
-1 -6 -5 36398.4 1771.09 9
-1 -6 -5 39567.8 2167.63 7
1 -6 5 35137.1 1841.21 1
1 -6 6 9942.87 965.315 1
1 -6 6 9522.69 1089.31 3
-1 -6 -6 9528.61 1107.32 11
-1 -6 -6 9478.67 951.288 9
-1 -6 -6 8751.14 1059.41 7
1 -6 7 7580.21 846.307 1
1 -6 7 8585.73 1104.89 3
-1 -6 -7 7058.47 888.100 9
-1 -6 -7 8481.42 1085.39 7
-1 -6 -7 6597.11 945.311 11
1 -6 8 3558.70 771.343 3
-1 -6 -8 4087.38 753.481 9
-1 -6 -8 3850.23 778.932 7
-1 -6 -8 4243.76 828.279 11
1 -6 9 6702.30 1085.57 3
-1 -6 -9 6711.95 1077.20 11
-1 -6 -9 7095.91 1045.96 9
-1 -6 -9 6663.90 1056.40 7
-1 -6 -10 8799.78 1234.89 9
-1 -6 -10 6710.45 1091.49 11
1 -5 -11 6594.08 1033.27 7
1 -5 -11 6425.74 1056.38 9
1 -5 -11 6517.57 1022.77 11
1 -5 -10 15336.1 1507.50 7
1 -5 -10 14823.3 1480.67 11
-1 -5 10 12327.1 1478.32 3
-1 -5 9 1468.35 516.040 3
1 -5 -9 2072.92 566.387 7
1 -5 -9 1953.15 527.672 11
-1 -5 8 12556.5 1301.53 3
1 -5 -8 15508.1 1398.20 7
1 -5 -8 13382.6 1287.02 11
1 -5 -7 289.152 229.253 7
-1 -5 7 87.6467 188.653 3
1 -5 -7 65.0505 131.515 1
1 -5 -6 57333.8 1991.07 1
1 -5 -6 58132.8 2584.54 7
-1 -5 6 56865.8 2528.59 3
-1 -5 6 54309.7 1885.98 7
-1 -5 5 37931.3 1881.82 3
1 -5 -5 39374.1 1619.77 1
-1 -5 4 4811.11 595.571 3
-1 -5 4 4597.08 251.424 11
1 -5 -4 4931.34 540.355 1
1 -5 -3 45256.3 1787.38 1
1 -5 -3 45912.5 1665.85 2
-1 -5 3 42529.6 1739.45 3
-1 -5 3 43855.7 1309.34 11
1 -5 -2 17207.3 1056.90 1
-1 -5 2 19019.3 890.635 11
-1 -5 2 15341.5 922.050 3
1 -5 -2 18430.3 952.034 2
-1 -5 1 77333.3 2307.11 11
1 -5 -1 83367.6 2330.57 2
1 -5 -1 78624.7 2571.54 1
-1 -5 1 82077.2 1793.56 10
-1 -5 1 81761.2 2618.58 1
-1 -5 0 46841.1 1823.57 1
1 -5 0 43963.3 1612.78 2
1 -5 0 48259.4 1898.21 1
-1 -5 0 44651.4 1719.92 11
-1 -5 0 48908.7 1644.57 8
1 -5 0 45264.0 1186.99 9
-1 -5 0 45441.5 1138.79 10
1 -5 1 83594.8 2466.65 2
1 -5 1 82416.3 1963.36 9
-1 -5 -1 82496.0 2547.27 1
1 -5 1 78858.7 2629.82 1
-1 -5 -1 80708.0 2284.51 8
-1 -5 -1 80348.2 2605.55 11
-1 -5 -2 48474.8 1575.62 3
-1 -5 -2 44194.4 1939.01 11
-1 -5 -2 48044.6 1531.40 9
1 -5 2 45375.6 1898.22 1
1 -5 2 48447.0 1500.58 10
-1 -5 -2 45847.8 1618.70 8
-1 -5 -2 44376.0 1947.97 7
-1 -5 -3 42332.2 1581.51 9
-1 -5 -3 42561.5 1953.20 7
-1 -5 -3 36891.5 1852.08 11
1 -5 3 40266.5 1782.24 1
1 -5 3 40072.4 1497.89 10
-1 -5 -3 40771.6 1507.38 3
1 -5 4 25307.8 1095.38 11
-1 -5 -4 25881.4 1572.54 7
-1 -5 -4 23998.3 1198.95 3
1 -5 4 24159.9 1496.04 3
1 -5 4 28738.1 1486.55 1
-1 -5 -4 23245.9 1513.09 11
-1 -5 -5 25834.2 1667.27 11
1 -5 5 26599.5 1119.67 11
-1 -5 -5 27949.7 1717.45 7
-1 -5 -5 25279.2 1453.14 9
1 -5 5 22449.7 1363.03 1
1 -5 5 25766.8 1638.02 3
1 -5 6 12433.4 1010.47 1
-1 -5 -6 12372.4 1195.47 7
-1 -5 -6 14042.4 1272.62 11
1 -5 6 11078.5 1135.94 3
-1 -5 -6 14695.2 1183.18 9
-1 -5 -7 2819.41 585.646 9
-1 -5 -7 1317.61 438.335 7
-1 -5 -7 2668.86 608.287 11
1 -5 7 1711.22 513.744 3
1 -5 7 2069.91 420.704 1
-1 -5 -8 37957.5 2290.72 9
-1 -5 -8 40372.9 2417.56 11
1 -5 8 38501.1 2422.73 3
-1 -5 -8 39683.7 2408.73 7
1 -5 9 8666.23 1197.75 3
-1 -5 -9 8343.90 1125.71 11
-1 -5 -9 9850.46 1220.74 7
-1 -5 -9 8464.60 1145.74 9
-1 -5 -10 9218.49 1226.42 11
-1 -5 -10 9769.02 1299.81 7
-1 -5 -10 9740.89 1286.59 9
1 -5 10 8551.86 1260.62 3
1 -4 -12 1154.30 478.120 7
1 -4 -11 2343.96 612.247 7
-1 -4 11 2612.78 709.608 3
1 -4 -11 3054.21 693.624 11
1 -4 -10 11119.7 1205.75 11
1 -4 -10 9079.59 1111.29 7
-1 -4 10 7840.58 1154.01 3
1 -4 -9 3697.16 677.483 11
1 -4 -9 4475.79 757.571 7
-1 -4 9 5309.86 892.588 3
-1 -4 8 16063.5 1448.75 3
1 -4 -8 15723.1 1321.15 11
1 -4 -8 16096.8 1343.20 7
1 -4 -7 43575.2 1496.50 1
-1 -4 7 37517.3 2108.74 3
1 -4 -7 39774.0 2093.07 7
-1 -4 7 42657.2 1660.81 7
1 -4 -6 2912.96 362.297 1
-1 -4 6 2282.31 490.393 3
-1 -4 6 3251.75 385.714 7
1 -4 -6 2348.49 484.470 7
-1 -4 5 1934.80 411.108 3
1 -4 -5 2124.45 327.565 1
-1 -4 5 1705.30 263.485 7
1 -4 -4 21377.4 1073.63 1
-1 -4 4 24355.3 1299.29 3
1 -4 -3 1370.54 266.032 1
1 -4 -3 1137.48 229.918 2
-1 -4 3 924.382 237.938 3
-1 -4 3 1088.86 145.142 11
-1 -4 2 280217. 5630.63 3
-1 -4 2 274467. 5261.06 11
1 -4 -2 268938. 5417.78 2
1 -4 -2 262600. 5750.00 1
-1 -4 1 27948.6 1108.30 11
1 -4 -1 28246.6 1061.59 2
1 -4 -1 26559.3 1240.17 1
1 -4 0 51372.7 1306.19 9
1 -4 0 47163.9 1522.93 2
1 -4 0 49206.5 1798.62 1
-1 -4 0 48531.5 1256.37 10
-1 -4 0 50208.9 1713.71 11
-1 -4 0 52532.7 1631.70 8
1 -4 1 20076.9 964.936 2
-1 -4 -1 21009.6 951.892 8
1 -4 1 19327.9 778.216 10
1 -4 1 20156.1 795.711 9
-1 -4 -1 20028.0 1097.52 11
1 -4 1 20216.0 1080.42 1
-1 -4 -2 27068.7 1019.94 3
-1 -4 -2 25331.4 1328.00 11
-1 -4 -2 26762.3 1342.68 7
-1 -4 -2 26149.4 1072.99 9
-1 -4 -2 26264.8 1125.67 8
1 -4 2 29376.9 1333.65 1
1 -4 2 25707.1 1039.72 10
1 -4 2 26848.2 1240.64 2
-1 -4 -3 94512.5 3016.93 11
1 -4 3 93726.0 2567.69 6
-1 -4 -3 93411.9 2968.76 7
-1 -4 -3 89830.3 2614.59 9
1 -4 3 97542.2 2808.62 1
1 -4 3 95926.0 2604.66 10
-1 -4 -3 93298.8 2427.84 3
-1 -4 -4 59644.8 1945.06 3
1 -4 4 57687.2 1753.09 11
1 -4 4 55071.9 2030.70 1
1 -4 4 58151.8 1908.53 6
-1 -4 -4 56461.4 2297.76 7
1 -4 4 57972.2 2327.87 3
-1 -4 -4 55614.6 2304.70 11
1 -4 5 25534.4 1096.70 11
-1 -4 -5 26102.9 1472.26 9
-1 -4 -5 26711.0 1600.45 7
1 -4 5 24237.2 1524.32 3
1 -4 5 26605.6 1342.20 1
-1 -4 -5 27596.6 1627.99 11
-1 -4 -6 6183.03 811.477 11
1 -4 6 6525.11 661.614 1
-1 -4 -6 6652.90 829.343 7
-1 -4 -6 6318.06 786.318 9
1 -4 6 7082.77 567.446 11
1 -4 6 7242.67 870.440 3
1 -4 7 19014.1 1134.57 1
-1 -4 -7 20025.7 1513.58 9
1 -4 7 19461.0 1542.50 3
-1 -4 -7 17079.4 1407.54 11
-1 -4 -7 18537.6 1473.73 7
-1 -4 -8 5259.57 831.855 7
1 -4 8 5142.26 854.845 3
-1 -4 -8 6742.14 944.926 9
-1 -4 -8 6120.07 874.114 11
-1 -4 -9 3728.17 727.668 11
-1 -4 -9 3102.36 688.640 7
-1 -4 -9 2711.80 654.812 9
1 -4 9 3528.37 728.638 3
-1 -4 -10 534.568 386.573 11
1 -4 10 344.443 307.419 3
-1 -4 -10 1021.39 483.335 7
-1 -4 -10 671.222 397.225 9
-1 -4 -11 534.815 373.047 11
1 -3 -12 11582.4 1325.26 7
1 -3 -11 2631.74 620.999 7
-1 -3 11 2973.99 756.376 3
1 -3 -11 2817.18 625.927 11
-1 -3 10 6601.16 1038.84 3
1 -3 -10 6385.48 859.117 11
1 -3 -10 7620.97 973.415 7
1 -3 -9 2438.52 494.294 11
-1 -3 9 3030.39 669.367 3
1 -3 -9 3592.03 640.289 7
1 -3 -8 14816.2 1202.48 11
-1 -3 8 15391.5 1364.64 3
1 -3 -8 14578.3 663.723 1
1 -3 -8 15787.9 1261.38 7
1 -3 -7 22280.9 1415.58 11
-1 -3 7 22463.1 1153.25 7
1 -3 -7 22667.9 1438.91 7
-1 -3 7 21216.8 1504.19 3
1 -3 -7 21860.1 921.047 1
1 -3 -6 10293.5 898.067 7
-1 -3 6 7791.36 597.072 7
1 -3 -6 8930.78 588.121 1
-1 -3 6 8930.88 883.803 3
1 -3 -5 13458.3 737.726 1
-1 -3 5 14141.3 1028.35 3
-1 -3 5 13755.6 709.774 7
1 -3 -4 9424.69 619.703 1
-1 -3 4 9805.65 771.647 3
-1 -3 4 10361.9 530.101 7
-1 -3 4 10742.6 751.574 4
1 -3 -3 7545.87 551.908 1
-1 -3 3 7423.39 605.706 4
-1 -3 3 7655.60 611.246 3
1 -3 -2 196290. 4217.03 1
-1 -3 2 195732. 3718.79 11
-1 -3 2 194872. 4111.35 3
1 -3 -2 191352. 3886.88 2
-1 -3 1 399188. 7610.92 11
1 -3 -1 425823. 7968.91 1
1 -3 -1 419598. 7481.30 2
-1 -3 1 414175. 7546.58 3
1 -3 0 411479. 7960.43 1
-1 -3 0 414455. 7833.77 11
1 -3 0 407551. 7529.04 2
1 -3 0 415745. 7446.43 9
-1 -3 0 411096. 7399.14 10
-1 -3 0 419891. 7779.96 8
-1 -3 -1 59932.7 1726.37 8
-1 -3 -1 59769.7 1608.27 9
1 -3 1 60844.3 1614.63 9
-1 -3 -1 58851.9 1566.86 10
-1 -3 -1 62885.4 1889.17 7
1 -3 1 58195.9 1586.98 10
-1 -3 -1 62618.9 1917.17 11
1 -3 1 57644.4 1838.47 1
1 -3 1 57844.5 1679.43 2
-1 -3 -2 133081. 3085.07 9
1 -3 2 130916. 3059.86 6
-1 -3 -2 123927. 3348.38 11
-1 -3 -2 127739. 3322.67 7
-1 -3 -2 134692. 2785.43 3
1 -3 2 127057. 3044.35 9
1 -3 2 128466. 3180.56 1
1 -3 2 126360. 3008.86 10
1 -3 3 5108.79 489.464 1
1 -3 3 5953.53 541.344 5
-1 -3 -3 4090.90 514.298 11
-1 -3 -3 4982.85 511.535 9
1 -3 3 4981.41 483.411 10
-1 -3 -3 4439.98 536.845 7
-1 -3 -3 5052.04 422.319 3
1 -3 3 4538.98 433.199 6
1 -3 3 4809.89 412.634 11
-1 -3 -4 12336.3 952.761 11
-1 -3 -4 10954.2 903.392 7
1 -3 4 10164.8 855.206 3
-1 -3 -4 10924.8 716.157 3
1 -3 4 11699.9 674.542 11
1 -3 4 11076.8 717.961 6
1 -3 4 11685.9 753.070 1
-1 -3 -5 26117.5 1513.06 7
-1 -3 -5 27204.8 1499.28 9
1 -3 5 25281.6 1183.83 1
1 -3 5 27928.1 1155.35 11
-1 -3 -5 26392.0 1515.26 11
1 -3 5 25772.4 1194.31 6
1 -3 5 26571.4 1520.56 3
1 -3 6 25147.3 1177.56 1
1 -3 6 26812.0 1618.37 3
-1 -3 -6 24417.5 1556.70 7
-1 -3 -6 25109.9 1537.68 11
1 -3 6 23987.8 1141.26 11
-1 -3 -6 27976.2 1650.89 9
1 -3 7 127161. 4241.41 3
-1 -3 -7 124135. 4145.34 7
-1 -3 -7 132773. 4313.67 9
-1 -3 -7 120617. 4021.32 11
1 -3 8 44393.6 2474.33 3
-1 -3 -8 43751.3 2312.82 11
-1 -3 -8 49978.6 2536.09 7
-1 -3 -8 47535.2 2556.05 9
-1 -3 -9 9165.39 1172.83 9
1 -3 9 9236.14 1158.82 3
-1 -3 -9 7138.90 987.442 7
-1 -3 -9 8920.00 1061.44 11
1 -3 10 7844.60 1156.21 3
-1 -3 -10 8827.28 1158.50 7
-1 -3 -10 7173.81 984.154 11
-1 -3 -10 9605.92 1281.04 9
-1 -3 -11 14428.1 1445.53 11
-1 -3 -11 11914.9 1423.26 7
1 -2 -12 2126.89 571.051 7
-1 -2 11 169.496 242.431 3
1 -2 -11 1052.73 383.459 7
1 -2 -10 17874.6 1434.23 7
1 -2 -10 19522.2 1430.16 11
-1 -2 10 19194.1 1731.44 3
1 -2 -9 47484.9 2286.24 7
-1 -2 9 51474.3 2756.80 3
1 -2 -9 50490.5 2283.41 11
-1 -2 8 9678.38 1078.97 3
1 -2 -8 12547.9 1040.69 11
1 -2 -8 12336.1 1052.51 7
1 -2 -8 12900.8 564.430 1
-1 -2 7 33990.6 1000.88 6
-1 -2 7 34272.2 1481.05 7
1 -2 -7 32161.9 1641.86 7
-1 -2 7 33552.4 1877.45 3
1 -2 -7 33155.4 1647.96 11
1 -2 -7 34204.5 1111.02 1
-1 -2 6 144309. 3370.29 7
1 -2 -6 132623. 3727.49 7
-1 -2 6 138521. 2673.26 6
1 -2 -6 136034. 3053.53 1
-1 -2 6 136955. 4046.61 3
-1 -2 5 3207.11 421.629 4
-1 -2 5 2903.80 312.546 7
-1 -2 5 3029.90 482.497 3
1 -2 -5 2373.99 385.522 7
1 -2 -5 2392.67 287.500 1
1 -2 -4 11239.1 616.131 1
1 -2 -4 9652.36 764.855 4
-1 -2 4 10687.3 718.982 4
-1 -2 4 11739.8 534.382 7
-1 -2 4 10663.0 785.116 3
-1 -2 3 42850.3 1497.56 2
1 -2 -3 40765.4 1316.67 1
-1 -2 3 41179.2 1469.49 3
-1 -2 3 42261.0 1012.65 7
-1 -2 3 42231.9 1456.35 4
1 -2 -2 11684.6 625.971 1
-1 -2 2 12569.1 681.918 2
-1 -2 2 11474.8 612.811 3
-1 -2 2 11274.0 403.189 11
-1 -2 1 582829. 10128.1 3
1 -2 -1 589704. 10489.0 1
1 -2 -1 582647. 9937.80 2
-1 -2 1 567748. 10172.9 11
-1 -2 0 200225. 3944.66 7
-1 -2 0 199533. 4054.95 8
1 -2 0 209848. 4139.27 1
1 -2 0 202941. 3739.80 2
-1 -2 0 195127. 4029.27 11
-1 -2 0 192172. 3852.42 10
-1 -2 -1 353622. 6708.27 8
-1 -2 -1 363954. 6142.58 3
1 -2 1 359007. 6602.47 10
-1 -2 -1 351758. 6853.13 11
-1 -2 -1 347461. 6559.49 10
1 -2 1 357064. 6686.48 6
1 -2 1 349129. 6718.63 1
1 -2 1 349368. 6622.66 9
-1 -2 -1 342265. 6601.72 9
-1 -2 -1 344890. 6736.98 7
-1 -2 -2 8250.36 629.512 11
1 -2 2 7941.94 544.030 10
-1 -2 -2 8674.66 627.077 7
1 -2 2 8203.02 556.913 5
1 -2 2 7633.94 560.305 9
-1 -2 -2 8402.02 427.646 3
1 -2 2 9433.97 562.875 6
1 -2 2 8354.18 509.661 11
1 -2 2 8788.05 545.407 1
-1 -2 -2 8270.30 578.931 9
-1 -2 -3 109847. 2977.61 11
1 -2 3 109164. 2624.64 1
1 -2 3 110822. 2965.34 3
-1 -2 -3 106564. 2968.05 7
-1 -2 -3 106863. 2580.25 3
1 -2 3 108553. 2857.45 10
1 -2 3 112077. 2686.51 6
1 -2 3 111275. 2800.22 5
1 -2 3 110257. 2602.52 11
-1 -2 -3 108334. 2930.26 9
-1 -2 -4 48502.4 1909.50 7
1 -2 4 47432.9 1866.75 3
1 -2 4 48748.2 1209.99 4
1 -2 4 44537.2 1462.17 1
1 -2 4 48505.6 1818.27 7
1 -2 4 49053.8 1560.71 11
1 -2 4 46917.9 1588.82 6
1 -2 4 46339.0 1281.15 12
-1 -2 -4 46905.3 1854.27 11
-1 -2 -4 48861.2 1646.32 3
1 -2 4 45854.1 1657.17 5
-1 -2 -5 29210.0 1566.79 9
1 -2 5 29830.4 966.193 4
1 -2 5 29696.8 1125.92 1
1 -2 5 29214.5 1230.61 11
1 -2 5 30216.3 1285.33 6
-1 -2 -5 27855.4 1510.28 7
1 -2 5 27152.9 1467.19 3
-1 -2 -5 28942.1 1490.93 11
1 -2 5 29519.7 950.284 12
1 -2 6 21466.9 1396.19 3
-1 -2 -6 22911.2 1390.41 11
1 -2 6 22679.1 950.032 1
-1 -2 -6 21194.3 1388.35 7
1 -2 6 21914.6 799.425 12
1 -2 6 21843.7 888.789 4
-1 -2 -6 20871.3 1434.11 9
1 -2 6 22815.5 1137.57 11
1 -2 7 24305.3 1258.49 11
-1 -2 -7 23372.2 1565.82 7
1 -2 7 24763.1 1638.78 3
1 -2 7 25355.6 1043.77 4
-1 -2 -7 27543.2 1601.30 11
-1 -2 -7 27844.3 1771.41 9
1 -2 8 2964.33 643.175 3
-1 -2 -8 3316.69 677.294 9
-1 -2 -8 3152.67 599.287 7
-1 -2 -8 3287.20 595.987 11
-1 -2 -9 2351.18 570.019 7
1 -2 9 2736.13 642.374 3
-1 -2 -9 3778.90 763.864 9
-1 -2 -9 3323.33 619.523 11
-1 -2 -10 3631.06 800.970 9
-1 -2 -10 3113.58 701.221 7
1 -2 10 3149.93 718.029 3
-1 -2 -10 2660.92 590.081 11
-1 -2 -11 2133.19 622.824 7
1 -2 11 1960.76 622.137 3
-1 -1 11 1746.54 578.191 3
1 -1 -11 2220.12 518.369 7
-1 -1 10 1527.20 483.028 3
1 -1 -10 1412.42 407.398 7
1 -1 -10 1779.85 408.030 11
1 -1 -9 5286.55 649.732 11
1 -1 -9 4412.54 634.946 7
-1 -1 9 4737.26 800.040 3
-1 -1 8 8174.71 977.800 3
1 -1 -8 9431.89 949.797 4
-1 -1 8 10383.8 515.682 12
1 -1 -8 9402.09 827.555 11
1 -1 -8 9878.95 501.979 1
1 -1 -8 9566.15 497.187 1
1 -1 -8 9063.03 846.000 7
1 -1 -7 18841.8 1153.74 7
-1 -1 7 18827.1 720.495 12
-1 -1 7 18857.3 1382.58 3
-1 -1 7 16800.3 1058.05 7
1 -1 -7 19954.2 1138.99 11
1 -1 -7 17014.3 1212.64 4
1 -1 -6 61236.8 2124.49 7
1 -1 -6 62152.8 2337.05 4
-1 -1 6 62141.5 2455.68 3
-1 -1 6 66027.6 2053.35 7
-1 -1 6 64125.2 1569.90 12
-1 -1 5 18926.2 878.935 7
-1 -1 5 18223.2 661.424 12
-1 -1 5 18435.7 1141.07 3
-1 -1 5 18774.8 1034.97 4
1 -1 -5 17349.8 951.396 7
1 -1 -5 18018.9 1086.50 4
-1 -1 4 70785.0 2110.61 4
1 -1 -4 70482.6 2005.53 7
-1 -1 4 67562.6 1576.17 12
-1 -1 4 71691.5 1752.14 7
-1 -1 4 67876.6 2205.59 3
1 -1 -4 69332.7 2194.70 4
-1 -1 3 43928.5 1484.55 3
-1 -1 3 42129.3 1084.39 12
-1 -1 3 43301.6 1053.08 7
-1 -1 3 43608.7 1442.90 4
1 -1 -3 40832.7 1497.23 4
-1 -1 2 253853. 4897.33 2
-1 -1 2 257080. 4955.93 3
1 -1 -2 253415. 5090.65 4
-1 -1 2 252521. 4678.92 12
-1 -1 1 455966. 8132.83 12
1 -1 -1 448300. 8257.38 4
-1 -1 1 453070. 8016.27 3
-1 -1 1 470445. 8026.79 11
1 -1 -1 456688. 8050.74 5
-1 -1 1 461673. 8176.16 2
-1 -1 0 121046. 2596.38 11
-1 -1 0 123241. 2489.55 7
-1 -1 0 128453. 2644.24 2
1 -1 0 121924. 2646.38 1
-1 -1 0 121269. 2648.92 8
1 -1 0 131253. 2535.58 8
1 -1 0 125575. 2455.92 4
-1 -1 0 120913. 2591.83 10
-1 -1 -1 114396. 2551.18 11
1 -1 1 109789. 2508.94 9
-1 -1 -1 107544. 2459.47 10
-1 -1 -1 112279. 2524.62 8
1 -1 1 111902. 2435.07 11
-1 -1 -1 110967. 2516.51 9
1 -1 1 108590. 2401.50 1
1 -1 1 104743. 2339.96 12
1 -1 1 110679. 2489.88 10
-1 -1 -1 112919. 2495.57 7
-1 -1 -2 146240. 3362.29 9
-1 -1 -2 145621. 3334.45 11
1 -1 2 146298. 3009.89 1
1 -1 2 144124. 2995.49 12
1 -1 2 144893. 3295.43 10
-1 -1 -2 145755. 3337.15 7
1 -1 2 150410. 3192.27 6
1 -1 2 144278. 3336.77 9
1 -1 2 147641. 3149.60 11
-1 -1 -2 146591. 2979.20 3
1 -1 2 146805. 3221.88 5
1 -1 3 143445. 3226.27 11
1 -1 3 140433. 3428.25 10
1 -1 3 131819. 2928.68 12
-1 -1 -3 144836. 3474.60 7
1 -1 3 144971. 3395.30 3
-1 -1 -3 140204. 3155.88 3
1 -1 3 139694. 2931.20 1
1 -1 3 141003. 3262.79 5
-1 -1 -3 140286. 3401.03 11
1 -1 3 142030. 3223.53 6
1 -1 3 143270. 2605.59 4
1 -1 4 96393.3 2558.00 6
1 -1 4 97629.6 2076.96 4
-1 -1 -4 92506.0 2805.53 7
1 -1 4 99128.6 2200.92 1
-1 -1 -4 94500.8 2740.80 11
1 -1 4 100927. 2623.77 5
1 -1 4 97711.1 2807.54 7
-1 -1 -4 96430.0 2627.74 3
1 -1 4 94440.7 2244.42 12
1 -1 4 97138.8 2795.40 3
1 -1 4 101669. 2597.77 11
1 -1 5 23712.2 860.061 4
-1 -1 -5 23494.8 1248.93 11
-1 -1 -5 24900.5 1348.35 7
1 -1 5 23579.8 919.614 12
1 -1 5 22587.6 794.015 1
1 -1 5 22550.6 1283.02 3
1 -1 5 24449.1 1161.84 5
1 -1 5 22783.2 1122.21 11
1 -1 6 36172.1 1558.18 11
1 -1 6 34052.5 1766.05 3
1 -1 6 36504.5 1241.06 12
-1 -1 -6 35371.8 1767.50 7
-1 -1 -6 37302.2 1934.06 9
1 -1 6 37802.2 1269.45 4
-1 -1 -6 37826.2 1722.53 11
-1 -1 -7 13285.9 1121.83 7
1 -1 7 12738.0 696.862 12
1 -1 7 11188.1 1060.68 3
-1 -1 -7 12494.3 1009.06 11
-1 -1 -7 12140.0 1169.11 9
1 -1 7 12892.3 749.556 4
-1 -1 -8 11880.6 1235.11 9
-1 -1 -8 8619.96 981.675 7
1 -1 8 9069.15 1041.73 3
-1 -1 -8 9063.72 900.275 11
-1 -1 -9 922.492 399.021 7
-1 -1 -9 701.577 350.886 9
1 -1 9 1159.75 428.214 3
-1 -1 -9 671.096 278.242 11
1 -1 10 1054.61 446.420 3
-1 -1 -10 1673.60 515.304 7
-1 -1 -10 2714.97 551.023 11
-1 -1 -10 1996.32 620.756 9
1 -1 11 24086.9 2091.18 3
-1 -1 -11 23919.2 2157.57 9
-1 0 11 5411.16 958.280 3
1 0 -10 7927.64 951.144 4
1 0 -10 6432.14 786.730 7
-1 0 10 7269.13 1051.97 3
1 0 -9 87946.2 3332.18 4
1 0 -9 91412.3 3107.32 7
1 0 -9 94050.1 2832.63 11
-1 0 9 89185.1 3710.50 3
1 0 -8 257.136 223.566 4
1 0 -8 11.7901 94.4322 11
1 0 -8 440.460 129.303 1
1 0 -8 363.652 177.788 7
-1 0 8 305.459 218.503 3
1 0 -7 26738.5 1020.38 1
1 0 -7 27063.0 1331.59 7
-1 0 7 27944.9 1674.61 3
1 0 -7 28408.3 1544.55 4
1 0 -7 26166.5 1214.49 11
1 0 -6 70882.9 2176.65 7
-1 0 6 69788.1 2631.57 3
1 0 -6 72427.7 2477.63 4
1 0 -6 72302.2 2118.09 11
-1 0 5 48514.1 1949.93 3
1 0 -5 50605.4 1611.57 7
-1 0 5 49965.7 1843.68 4
1 0 -5 47698.1 1836.55 4
-1 0 4 32707.8 1339.03 4
1 0 -4 32471.4 1354.60 4
1 0 -4 33274.7 1115.72 7
-1 0 4 34055.0 1438.49 3
-1 0 3 124143. 2989.18 4
1 0 -3 131795. 2644.84 7
-1 0 3 122526. 3032.06 3
1 0 -3 121178. 3006.68 4
-1 0 2 71702.4 1543.65 6
1 0 -2 70063.0 1815.77 3
1 0 -2 74329.2 1894.44 4
-1 0 2 72211.5 1854.16 3
1 0 -1 22299.7 589.151 2
-1 0 1 21860.7 593.933 2
1 0 -1 23734.4 746.885 3
-1 0 1 23335.0 677.676 6
-1 0 1 22878.2 748.079 3
1 0 -1 21879.2 740.043 12
1 0 -1 21193.7 763.333 4
1 0 -1 23183.1 681.326 6
-1 0 0 236.764 72.9050 2
-1 0 0 405.454 83.4610 4
1 0 0 391.668 83.2545 4
-1 0 0 454.612 115.287 11
-1 0 0 448.402 118.864 8
-1 0 0 446.930 106.072 6
1 0 0 503.715 86.8202 2
1 0 0 262.690 83.9345 12
-1 0 -1 365750. 6648.67 12
1 0 1 367802. 6826.83 9
-1 0 -1 366753. 6712.43 11
1 0 1 366633. 6653.60 12
1 0 1 365274. 6269.26 4
1 0 1 357839. 6776.29 10
1 0 2 22724.1 1003.44 9
1 0 2 24849.9 868.567 12
-1 0 -2 23862.6 986.450 7
1 0 2 25421.2 893.606 3
1 0 2 21503.8 948.322 10
1 0 2 23586.0 952.030 11
-1 0 -2 24652.5 942.357 11
1 0 3 84172.3 1871.16 4
1 0 3 85442.5 2236.26 5
-1 0 -3 84847.4 2383.74 7
1 0 3 86255.0 2275.15 3
1 0 3 83173.6 2410.71 10
-1 0 -3 85056.3 2273.03 11
-1 0 -3 91724.6 2313.96 3
1 0 3 88775.2 2136.42 12
1 0 3 84156.7 2304.05 11
1 0 3 88153.6 1797.84 1
-1 0 -4 105092. 2791.74 11
-1 0 -4 106815. 2906.18 3
1 0 4 108254. 2764.46 5
-1 0 -4 106886. 2996.20 7
1 0 4 109514. 2456.31 4
1 0 4 104000. 2884.66 3
1 0 4 111853. 2106.81 1
1 0 4 106918. 2589.50 12
1 0 4 108696. 2877.30 11
1 0 5 2594.53 390.267 11
-1 0 -5 2304.99 404.121 7
1 0 5 1710.71 245.362 4
1 0 5 1620.38 319.743 3
1 0 5 1992.11 287.051 12
-1 0 -5 1370.19 284.671 11
1 0 5 1631.78 286.935 5
-1 0 -6 24177.0 1270.07 11
1 0 6 22242.5 1367.94 3
1 0 6 25325.5 1096.96 4
-1 0 -6 25721.9 1583.96 9
-1 0 -6 27170.0 1489.48 7
1 0 6 23473.4 1074.71 12
1 0 7 328.387 158.444 4
-1 0 -7 355.495 262.593 9
1 0 7 329.334 207.789 3
-1 0 -7 1108.79 283.145 11
-1 0 -7 726.517 255.174 7
1 0 7 956.339 223.937 12
-1 0 -8 143.002 158.369 11
-1 0 -8 20.2096 175.392 9
1 0 8 167.908 196.319 3
-1 0 -9 3540.98 749.549 9
1 0 9 2859.41 627.609 3
-1 0 -9 3136.61 523.552 11
1 0 10 263.762 273.501 3
-1 0 -10 481.011 358.980 9
-1 0 -11 7325.18 1195.87 9
1 0 11 4238.71 886.947 3
-1 1 11 2721.15 712.046 3
1 1 -11 2797.61 600.662 4
-1 1 10 2689.42 665.380 3
1 1 -10 1018.85 368.008 4
1 1 -9 5292.71 729.414 4
-1 1 9 4080.13 759.108 3
1 1 -9 4966.07 494.333 11
1 1 -8 9612.85 924.833 4
1 1 -8 9517.45 644.226 11
1 1 -8 10284.4 657.590 1
-1 1 8 8571.08 995.834 3
-1 1 8 9593.00 392.861 5
1 1 -7 18124.5 1036.62 7
1 1 -7 18742.3 869.450 11
1 1 -7 18450.6 900.101 1
-1 1 7 18298.6 1360.84 3
1 1 -7 16682.1 1154.94 4
-1 1 7 19372.3 599.213 5
1 1 -6 62548.3 1942.39 7
1 1 -6 66376.1 1756.05 11
-1 1 6 57993.3 2396.17 3
-1 1 6 65169.6 1391.08 5
1 1 -6 64905.5 2298.68 4
1 1 -6 62724.8 1853.11 1
1 1 -5 16844.2 1009.20 4
-1 1 5 17101.8 1110.04 3
-1 1 5 19790.3 1124.04 4
1 1 -5 18603.4 719.678 11
1 1 -5 18872.5 842.555 7
1 1 -4 71376.2 1415.21 5
-1 1 4 72583.9 2232.18 4
-1 1 4 67455.5 2238.66 3
1 1 -4 67006.9 2106.39 4
1 1 -4 69408.1 1698.86 7
1 1 -3 42412.9 1463.84 4
1 1 -3 44697.5 1038.63 7
-1 1 3 43656.2 967.059 5
1 1 -3 42843.1 1461.23 3
-1 1 3 42074.2 1525.23 3
1 1 -2 246613. 4415.79 11
1 1 -2 251371. 4821.02 3
-1 1 2 249173. 4431.39 5
1 1 -2 246660. 4898.53 4
1 1 -2 239819. 4556.97 12
-1 1 2 246795. 4972.19 3
-1 1 1 466293. 8309.66 4
1 1 -1 471163. 8222.71 2
1 1 -1 455009. 8095.55 11
1 1 -1 454497. 8192.19 12
1 1 -1 471194. 8072.56 3
-1 1 1 455235. 8040.83 8
1 1 -1 456521. 8309.90 4
-1 1 1 467424. 8244.63 6
-1 1 1 460090. 8111.30 5
-1 1 0 123400. 2414.13 4
1 1 0 121597. 2526.22 4
1 1 0 119942. 2578.29 2
1 1 0 119063. 2585.84 12
-1 1 0 125236. 2589.63 6
-1 1 0 123722. 2574.69 10
1 1 0 121646. 2468.77 7
-1 1 0 122670. 2562.44 5
-1 1 0 121756. 2475.10 8
-1 1 -1 109210. 2513.38 9
1 1 1 110213. 2541.75 9
1 1 1 110227. 2507.33 10
1 1 1 113534. 2107.04 3
1 1 1 116535. 2547.50 7
-1 1 -1 110309. 2450.06 6
-1 1 -1 110934. 2378.89 12
1 1 1 111121. 2571.50 2
-1 1 -1 108885. 2484.34 10
-1 1 -1 111606. 2493.33 5
-1 1 -2 148512. 3362.63 9
1 1 2 146031. 3355.46 9
1 1 2 147045. 3317.06 8
-1 1 -2 146276. 3128.09 11
-1 1 -2 144427. 3200.73 5
1 1 2 148469. 3311.40 10
1 1 2 146261. 2980.37 3
1 1 2 148844. 3369.62 11
1 1 2 146080. 3382.32 2
-1 1 -2 141360. 3018.04 1
-1 1 -2 144385. 2977.95 12
1 1 3 135592. 3161.29 3
1 1 3 139940. 3427.31 11
1 1 3 145571. 3477.02 10
-1 1 -3 143044. 2959.92 1
-1 1 -3 142325. 3167.50 11
1 1 4 95388.8 2636.07 3
1 1 4 97340.2 2778.66 11
-1 1 -4 94546.9 2475.49 11
1 1 4 95714.9 2416.61 4
1 1 5 23187.0 1053.53 4
1 1 5 20134.3 1157.39 3
-1 1 -5 22719.2 1079.75 11
1 1 6 39521.0 1534.89 4
1 1 6 36714.2 1764.18 3
-1 1 -6 34877.4 1880.56 9
-1 1 -6 37276.3 1521.61 11
-1 1 -7 13572.5 1233.56 9
1 1 7 12970.0 1101.83 3
-1 1 -7 13395.1 913.097 11
1 1 7 13066.4 900.197 4
-1 1 -8 10434.3 1160.51 9
1 1 8 9523.58 1017.16 3
-1 1 -8 8511.61 771.557 11
-1 1 -9 1165.09 454.795 9
1 1 9 1245.32 408.252 3
-1 1 -9 956.504 283.451 11
-1 1 -10 1498.36 534.956 9
1 1 10 898.179 397.022 3
-1 1 -11 23141.3 2127.34 9
1 1 11 19983.3 1858.03 3
1 2 -11 719.360 366.858 4
-1 2 11 1134.13 508.148 3
-1 2 10 17061.3 1620.71 3
1 2 -10 17425.0 1396.53 4
1 2 -9 49416.3 2338.07 4
-1 2 9 50383.9 2705.63 3
1 2 -8 14198.4 1118.54 4
1 2 -8 12416.8 813.434 1
-1 2 8 11765.9 1176.41 3
1 2 -8 11951.8 558.244 11
1 2 -7 35258.7 1423.00 1
1 2 -7 34137.1 965.486 11
1 2 -7 33231.8 1676.50 4
-1 2 7 34107.3 1894.82 3
1 2 -6 147757. 3482.17 1
1 2 -6 137601. 2895.41 5
-1 2 6 130442. 4026.54 3
1 2 -6 129772. 3719.45 4
1 2 -6 141196. 2659.09 11
1 2 -5 2941.83 363.856 1
-1 2 5 2696.40 458.636 3
1 2 -5 2862.49 258.671 5
1 2 -5 2776.30 407.525 4
1 2 -4 10637.9 681.607 1
-1 2 4 10529.8 804.998 3
1 2 -4 9633.73 697.207 4
1 2 -4 10372.5 491.892 5
1 2 -3 38732.6 1023.07 12
1 2 -3 38283.7 1396.31 4
-1 2 3 41512.1 1257.39 2
1 2 -3 40248.1 1424.30 3
1 2 -2 10916.7 640.588 2
1 2 -2 11549.2 599.998 3
1 2 -2 11578.3 666.013 4
-1 2 2 10908.0 475.202 2
1 2 -2 11055.3 498.369 12
1 2 -2 11231.7 418.890 11
1 2 -1 570618. 10290.3 11
-1 2 1 588643. 10022.4 2
-1 2 1 586489. 10417.4 5
1 2 -1 592036. 10580.7 4
-1 2 1 578796. 9963.87 8
-1 2 1 583872. 10574.3 4
1 2 0 203947. 4085.38 11
1 2 0 196809. 4144.99 2
1 2 0 201706. 3902.27 9
-1 2 0 198878. 4043.05 5
1 2 0 206746. 4093.58 8
-1 2 0 196293. 3879.56 10
-1 2 0 199753. 4059.00 6
-1 2 -1 348598. 6559.82 9
-1 2 -1 351166. 6655.01 1
1 2 1 357339. 6668.39 8
1 2 1 358263. 6824.53 2
-1 2 -1 343125. 6503.14 10
1 2 1 347447. 6570.50 9
1 2 1 351122. 6525.80 10
1 2 1 335604. 6715.50 7
-1 2 -1 358883. 6597.09 6
-1 2 -1 348333. 6667.52 5
1 2 2 9106.66 585.651 10
-1 2 -2 8987.04 347.844 4
1 2 2 9301.02 475.880 1
1 2 2 8349.50 442.734 3
-1 2 -2 8090.06 566.693 9
-1 2 -2 8032.84 563.292 5
-1 2 -2 8049.58 448.732 12
1 2 2 8707.45 647.468 2
-1 2 -2 9473.56 552.398 6
1 2 2 8780.83 590.891 8
1 2 2 8605.42 587.134 9
-1 2 -2 8290.33 539.711 1
-1 2 -3 112765. 2219.73 4
-1 2 -3 109875. 2954.99 9
1 2 3 110118. 2901.45 10
-1 2 -3 109297. 2390.52 12
1 2 3 113997. 2318.10 1
1 2 3 108223. 2624.87 3
-1 2 -3 107054. 2781.02 5
1 2 3 111309. 3070.22 2
1 2 3 111229. 2903.16 8
-1 2 -3 115527. 2682.00 1
-1 2 -4 48472.0 1241.43 4
-1 2 -4 48709.6 1511.82 1
-1 2 -4 45037.7 1646.51 5
1 2 4 46066.6 1855.84 11
1 2 4 46990.4 1656.81 3
1 2 4 45758.0 1926.23 2
1 2 4 48962.7 1083.41 1
-1 2 -4 47115.7 1871.13 9
1 2 5 29395.4 1337.92 4
-1 2 -5 29270.0 1116.52 1
-1 2 -5 28358.7 978.153 4
1 2 5 32230.3 1671.46 2
1 2 5 28140.5 1377.18 3
-1 2 -5 28010.2 1518.69 9
-1 2 -5 28577.2 1186.55 11
-1 2 -6 22926.7 945.727 4
-1 2 -6 20794.7 1427.34 9
-1 2 -6 21415.8 1055.53 11
1 2 6 23235.9 1530.49 2
1 2 6 21988.6 1322.99 3
1 2 6 22974.7 1242.92 4
-1 2 -6 20987.3 933.671 1
-1 2 -7 27933.3 1299.75 11
1 2 7 27683.7 1636.05 3
-1 2 -7 30753.3 1878.89 9
-1 2 -8 2402.57 381.252 11
-1 2 -8 3606.34 682.374 9
1 2 8 3537.35 625.516 3
1 2 8 1920.21 536.023 2
1 2 9 3283.91 719.600 2
1 2 9 2728.08 595.151 3
-1 2 -9 2959.66 691.309 9
1 2 10 1445.14 545.761 2
-1 2 -10 2360.58 667.029 9
1 2 10 1849.65 540.019 3
1 2 11 2133.98 616.705 3
-1 3 12 10213.4 1343.76 2
-1 3 11 3786.83 788.409 2
-1 3 11 2938.06 740.058 3
-1 3 10 7191.13 999.549 2
1 3 -10 7931.78 933.493 4
-1 3 10 6800.65 1028.68 3
1 3 -9 2309.00 485.453 4
-1 3 9 2806.29 632.113 3
-1 3 9 1679.90 467.840 2
1 3 -8 14263.9 1146.57 4
-1 3 8 14973.2 1229.57 2
-1 3 8 15432.4 1370.83 3
1 3 -7 20706.5 1327.38 4
-1 3 7 25184.1 1487.77 2
-1 3 7 23031.5 1573.62 3
1 3 -7 22683.7 963.102 5
-1 3 6 8743.58 880.351 3
-1 3 6 10636.1 869.668 2
1 3 -6 8014.98 755.661 4
1 3 -6 8624.13 557.305 5
1 3 -5 13199.3 877.224 1
-1 3 5 14117.8 920.992 2
1 3 -5 14489.8 724.406 5
1 3 -5 12973.0 914.361 4
-1 3 5 12757.1 1001.54 3
1 3 -4 10044.6 730.397 1
-1 3 4 10140.2 681.572 2
1 3 -4 9309.76 749.667 3
1 3 -4 9468.82 403.254 12
1 3 -4 10157.7 750.933 4
1 3 -3 6760.47 580.052 1
-1 3 3 7622.01 521.068 2
1 3 -3 8263.61 290.134 6
1 3 -3 7093.90 402.536 12
1 3 -3 7180.69 589.981 4
-1 3 2 194832. 4207.13 1
1 3 -2 186400. 4237.84 4
-1 3 2 192575. 3853.46 2
1 3 -2 195143. 4327.85 2
-1 3 1 420731. 7958.45 1
1 3 -1 417415. 7958.90 4
-1 3 1 407645. 7439.67 2
1 3 -1 411515. 7964.06 2
1 3 0 409120. 7417.65 9
1 3 0 398451. 7960.24 2
-1 3 0 419136. 7861.32 5
1 3 0 426932. 7872.69 11
1 3 0 420735. 7900.01 1
-1 3 0 404788. 7822.57 6
-1 3 0 410260. 7407.90 10
-1 3 -1 58515.2 1831.80 1
1 3 1 58302.1 1572.92 10
1 3 1 56601.8 1852.82 11
1 3 1 61633.7 1742.70 8
1 3 1 59102.8 1604.37 9
1 3 1 60151.5 1728.47 1
-1 3 -1 57065.8 1715.77 6
1 3 1 53928.3 1842.11 2
-1 3 -1 61549.7 1839.11 5
-1 3 -1 57698.9 1578.68 9
-1 3 -1 61058.1 1572.98 10
1 3 2 130446. 3389.47 2
1 3 2 127805. 3063.15 9
1 3 2 122618. 3073.89 8
1 3 2 131603. 3025.43 10
-1 3 -2 129465. 3024.36 6
1 3 2 131690. 2966.47 1
-1 3 -2 135354. 3241.73 1
-1 3 -2 128964. 3037.09 9
-1 3 -2 128985. 3185.85 5
-1 3 -3 5116.68 520.456 9
1 3 3 5652.29 524.257 8
1 3 3 5502.61 404.427 1
1 3 3 5646.16 463.325 3
1 3 3 5146.92 499.113 10
-1 3 -3 4823.87 439.183 6
-1 3 -3 5132.10 482.573 1
-1 3 -3 4552.34 477.734 5
1 3 3 4750.14 552.833 2
-1 3 -3 5081.10 363.433 12
-1 3 -3 4213.33 313.098 4
-1 3 -4 10418.5 827.062 9
1 3 4 11307.1 828.393 8
-1 3 -4 12903.9 792.289 1
-1 3 -4 11502.7 528.727 12
-1 3 -4 10693.9 779.935 5
1 3 4 11109.1 920.072 2
1 3 4 11950.4 775.551 3
1 3 4 10430.7 526.848 1
-1 3 -4 11291.4 564.235 4
1 3 5 26778.7 758.386 1
1 3 5 26474.7 1562.98 2
-1 3 -5 26476.8 991.152 4
1 3 5 25820.1 1324.95 3
-1 3 -5 28268.2 1524.84 9
-1 3 -5 26026.8 1193.20 1
-1 3 -5 25685.7 1293.87 5
-1 3 -6 24756.5 1016.39 4
1 3 6 24543.5 1409.17 3
-1 3 -6 24687.2 1307.02 5
-1 3 -6 25661.5 1192.81 1
1 3 6 24263.3 1604.81 2
-1 3 -6 24552.9 1549.88 9
-1 3 -7 131737. 3151.34 4
1 3 7 128623. 4397.41 2
1 3 7 130386. 4022.59 3
-1 3 -7 127299. 4280.59 9
-1 3 -8 50802.4 2641.13 9
1 3 8 46565.0 2359.55 3
1 3 8 49517.6 2670.21 2
-1 3 -9 6561.92 987.233 9
1 3 9 8400.23 1040.79 3
1 3 9 8002.13 1132.60 2
1 3 10 9022.59 1250.68 2
1 3 10 9277.25 1180.04 3
-1 3 -10 9899.13 1293.93 9
1 3 11 15340.4 1605.32 3
-1 4 12 2604.84 711.840 2
-1 4 11 1991.10 586.220 3
-1 4 11 2088.93 592.786 2
1 4 -10 8216.12 966.271 4
-1 4 10 7508.06 1023.39 2
-1 4 10 7336.38 1075.18 3
1 4 -9 4685.76 687.379 4
-1 4 9 4286.36 719.836 2
-1 4 9 4548.78 823.350 3
1 4 -8 17642.0 1297.14 4
-1 4 8 14308.9 1228.35 2
-1 4 8 17619.3 1474.83 3
1 4 -8 15653.4 889.907 5
-1 4 7 39820.2 1971.64 2
1 4 -7 38430.7 1892.97 4
1 4 -7 42846.2 1544.47 5
1 4 -6 3275.23 395.506 5
-1 4 6 3047.32 477.577 2
1 4 -6 2534.86 446.285 4
1 4 -5 1718.22 359.008 4
1 4 -5 1289.44 251.100 5
-1 4 5 1706.41 329.171 2
-1 4 4 20712.0 1075.74 2
1 4 -4 21415.5 1180.82 4
1 4 -4 21916.5 770.162 12
1 4 -4 22556.4 600.249 6
-1 4 3 1117.55 113.377 8
1 4 -3 1718.12 318.440 4
-1 4 3 1359.21 244.920 2
-1 4 3 1615.27 296.346 1
1 4 -2 256948. 5766.96 2
-1 4 2 272042. 5711.08 1
1 4 -2 269566. 5752.44 4
-1 4 2 265730. 5342.00 2
1 4 -1 29793.9 1317.19 2
-1 4 1 27523.2 1034.91 2
1 4 0 45882.3 1249.82 9
-1 4 0 49170.1 1707.81 5
1 4 0 51098.9 1772.39 1
-1 4 0 50846.8 1538.24 2
1 4 0 47140.4 1761.66 2
-1 4 0 49078.7 1260.86 10
-1 4 -1 19821.6 1044.87 5
1 4 1 19184.4 789.802 9
1 4 1 19068.0 920.993 8
1 4 1 20654.7 799.553 10
1 4 1 19662.1 1011.48 1
-1 4 -1 20938.8 997.110 6
1 4 1 20572.3 1131.92 2
-1 4 -2 26781.0 1079.32 9
1 4 2 28673.0 1194.52 8
-1 4 -2 26742.8 1153.45 6
1 4 2 27826.3 1168.36 1
1 4 2 27231.6 1075.10 10
-1 4 -2 27557.4 1288.45 5
1 4 2 24164.5 1295.19 2
-1 4 -3 95093.8 2658.88 9
-1 4 -3 94463.0 2555.04 6
-1 4 -3 98634.4 2380.47 4
1 4 3 94601.7 2625.51 10
-1 4 -3 96025.5 2334.82 12
1 4 3 95927.1 2505.67 1
1 4 3 94569.7 3003.44 2
1 4 3 99591.0 2709.31 8
-1 4 -3 92622.1 2769.42 5
-1 4 -4 57255.0 1680.75 4
-1 4 -4 61917.4 2170.41 9
1 4 4 57851.7 2052.58 8
1 4 4 54627.2 2293.00 2
-1 4 -4 55900.3 1843.96 6
1 4 4 57420.8 1710.98 1
-1 4 -4 58601.1 1541.18 12
-1 4 -4 55763.0 2066.12 5
1 4 5 25491.9 1332.68 3
-1 4 -5 26798.6 1069.81 4
-1 4 -5 27676.0 1506.03 9
1 4 5 24744.0 1561.89 2
-1 4 -5 24094.6 1323.49 5
1 4 5 27577.4 999.621 1
-1 4 -6 6623.61 533.265 4
-1 4 -6 5386.65 722.185 9
1 4 6 6741.02 858.614 2
1 4 6 7094.96 740.244 3
-1 4 -6 6504.61 685.822 5
-1 4 -7 17389.7 925.174 4
1 4 7 16437.6 1265.73 3
1 4 7 18562.1 1520.02 2
-1 4 -7 19332.6 1250.06 5
-1 4 -7 16497.7 1357.16 9
1 4 8 6825.01 994.678 2
-1 4 -8 6380.15 920.017 9
1 4 8 4499.04 725.951 3
-1 4 -9 3699.69 745.440 9
1 4 9 4001.98 807.094 2
1 4 9 2780.64 617.674 3
1 4 10 -95.2781 223.229 2
1 4 10 685.139 398.700 3
-1 4 -10 673.271 432.961 9
-1 5 11 5052.72 912.493 2
1 5 -11 7978.35 1182.08 9
-1 5 10 12900.1 1364.72 2
1 5 -10 12945.4 1244.15 4
1 5 -9 1128.64 387.299 4
-1 5 9 1377.40 451.817 2
1 5 -8 13845.0 1188.19 4
-1 5 8 15905.2 1323.37 2
1 5 -8 16015.1 999.670 5
1 5 -7 -74.0838 181.819 4
1 5 -7 -25.0532 102.505 5
-1 5 7 122.165 189.721 2
-1 5 6 50520.9 2154.29 2
1 5 -6 51293.7 1900.07 5
1 5 -6 51562.5 2196.21 4
1 5 -5 35777.3 1010.47 12
-1 5 5 33418.5 1600.24 2
1 5 -5 34939.1 1504.52 5
1 5 -5 35786.1 1713.68 4
1 5 -4 5297.41 607.581 4
-1 5 4 4708.31 546.047 1
-1 5 4 5464.78 566.299 2
-1 5 4 4962.70 305.431 8
1 5 -4 5766.54 355.957 6
-1 5 3 43414.5 1638.20 2
1 5 -3 47542.0 1884.72 4
-1 5 2 15433.5 869.327 2
1 5 -2 16957.5 1048.82 4
1 5 -2 16196.7 1067.16 2
-1 5 1 79936.6 2257.21 2
1 5 -1 78625.3 2580.83 2
-1 5 0 46693.2 1623.73 2
-1 5 0 44982.5 1783.29 5
1 5 0 45287.1 1856.69 2
-1 5 0 46657.4 1181.26 10
1 5 0 46157.5 1185.33 9
1 5 1 82616.5 2566.49 1
1 5 1 78847.5 1935.75 10
1 5 1 82546.5 2723.51 2
-1 5 -1 84468.2 2492.73 6
-1 5 -1 82287.2 2588.69 5
1 5 2 49826.7 2051.47 2
1 5 2 46377.5 1657.40 8
-1 5 -2 47328.1 1505.69 9
1 5 2 52789.6 1875.74 1
-1 5 -2 47908.7 1912.21 5
-1 5 -2 46355.8 1715.14 6
1 5 2 47496.6 1506.20 10
-1 5 -3 38791.1 1455.16 4
1 5 3 42666.8 1632.93 1
-1 5 -3 40827.2 1541.24 9
-1 5 -3 38375.7 1529.77 6
1 5 3 41329.1 1531.50 10
-1 5 -3 40739.3 1766.62 5
1 5 3 39855.3 1580.97 8
1 5 3 41889.1 1930.05 2
-1 5 -4 25737.2 1313.11 9
-1 5 -4 26015.9 998.719 12
-1 5 -4 23952.5 1355.06 5
1 5 4 25809.7 1568.69 2
1 5 4 24811.9 1287.38 8
-1 5 -4 22180.6 1137.49 6
1 5 4 26650.6 1205.60 1
-1 5 -4 26091.3 1141.05 4
1 5 5 25701.7 1657.22 2
-1 5 -5 22206.7 1357.79 5
-1 5 -5 26862.1 1495.64 9
-1 5 -5 26522.7 893.218 12
-1 5 -5 26820.8 1173.47 4
1 5 5 27178.7 1161.67 1
-1 5 -6 12057.8 790.285 4
-1 5 -6 12960.4 1108.15 9
1 5 6 11984.6 1188.23 2
-1 5 -6 12735.8 1026.89 5
-1 5 -7 2713.37 571.061 9
-1 5 -7 2084.73 440.082 5
1 5 7 2193.69 550.827 2
-1 5 -8 39663.5 2320.91 9
1 5 8 35722.7 2355.99 2
-1 5 -8 37805.1 1945.50 5
1 5 9 9523.01 1268.43 2
-1 5 -9 10314.2 1246.38 9
-1 5 -10 10701.9 1352.36 9
1 5 10 10188.3 1380.65 2
1 6 -11 993.805 494.675 9
-1 6 11 1240.30 511.133 2
1 6 -10 6165.43 980.799 9
-1 6 10 3909.90 796.364 2
1 6 -9 4944.00 749.857 4
-1 6 9 5013.33 827.355 2
-1 6 8 16221.2 1372.43 2
1 6 -8 15915.7 1314.08 4
1 6 -8 16190.1 1102.35 5
1 6 -7 2523.96 529.652 4
-1 6 7 2457.14 521.588 2
1 6 -7 2201.70 400.808 5
1 6 -6 36945.4 1907.48 4
-1 6 6 36562.5 1860.07 2
1 6 -6 34686.6 1662.35 5
-1 6 5 19815.3 1257.01 2
1 6 -5 20563.2 745.113 6
1 6 -5 19637.4 827.652 12
-1 6 5 20293.3 760.873 8
1 6 -5 19352.2 1304.96 4
1 6 -5 20304.9 1209.49 5
1 6 -4 6582.08 465.885 6
1 6 -4 5329.29 658.804 4
-1 6 4 7080.13 695.835 2
-1 6 3 16039.6 1009.88 2
1 6 -3 14616.5 1065.47 4
-1 6 2 33375.3 1440.60 2
1 6 -2 30963.6 1597.97 4
1 6 -2 31341.4 1648.16 2
1 6 -1 56091.7 1242.93 9
-1 6 1 57604.4 1330.38 10
1 6 -1 53666.8 2209.14 2
-1 6 1 55855.8 1951.22 2
-1 6 0 8789.68 716.242 2
1 6 0 7751.54 781.030 2
1 6 1 8121.53 819.745 2
-1 6 -1 7974.93 765.707 5
-1 6 -1 8392.58 743.788 6
1 6 2 1963.75 267.678 10
-1 6 -2 1741.35 384.104 5
1 6 2 2203.63 441.525 2
-1 6 -2 1845.03 340.450 6
-1 6 -3 11230.6 811.910 4
-1 6 -3 12027.1 763.338 9
1 6 3 11621.3 1035.22 2
1 6 3 10857.3 794.594 8
-1 6 -3 10921.7 824.476 6
1 6 3 11587.5 748.678 10
-1 6 -3 10730.8 934.734 5
-1 6 -4 16825.9 1043.81 9
-1 6 -4 18788.5 1052.80 4
1 6 4 19031.7 1398.39 2
-1 6 -4 18006.6 1237.20 5
-1 6 -4 20173.0 1112.92 6
-1 6 -5 36102.0 1740.83 9
-1 6 -5 35847.5 1196.21 12
-1 6 -5 33952.4 1516.74 6
1 6 5 32815.4 1981.45 2
-1 6 -5 37500.7 1872.23 5
1 6 5 37304.7 1570.25 1
-1 6 -5 34915.6 1505.70 4
1 6 6 8644.24 1042.16 2
-1 6 -6 8600.63 902.720 5
-1 6 -6 10056.1 769.481 4
-1 6 -6 10211.6 975.255 9
-1 6 -7 8810.37 1000.45 9
1 6 7 7428.30 1026.10 2
-1 6 -7 8133.56 894.576 5
-1 6 -8 6022.13 884.453 9
1 6 8 3728.58 787.162 2
-1 6 -8 4302.52 675.067 5
1 6 9 8574.84 1245.14 2
-1 6 -9 7267.42 1049.67 9
-1 6 -10 7442.16 1133.54 9
1 7 -10 6785.43 1047.39 9
-1 7 10 7772.96 1091.16 2
1 7 -9 15038.0 1425.26 9
-1 7 9 14272.7 1410.27 2
1 7 -9 14625.4 1354.92 4
1 7 -8 455.138 305.282 4
-1 7 8 438.887 287.310 2
1 7 -8 767.689 293.839 5
1 7 -8 250.810 270.562 9
-1 7 7 342.691 238.323 2
1 7 -7 447.894 253.003 4
1 7 -7 758.066 309.145 5
1 7 -6 47090.6 2268.80 4
1 7 -6 46986.4 2099.77 5
-1 7 6 44244.1 2167.47 2
1 7 -5 1241.39 392.420 4
1 7 -5 1899.46 254.541 6
-1 7 5 1379.29 366.603 2
1 7 -5 1988.73 427.066 5
-1 7 4 15368.1 1110.26 2
1 7 -4 14468.8 817.480 6
1 7 -4 15646.3 1208.83 4
1 7 -3 7085.48 808.591 4
-1 7 3 7789.10 755.245 2
1 7 -2 10992.3 1008.26 2
-1 7 2 11527.6 890.334 2
1 7 -2 11693.2 1023.72 4
-1 7 1 15163.8 1023.76 2
1 7 -1 15798.6 1204.82 2
-1 7 0 40433.9 1788.15 2
1 7 0 42940.3 2044.55 2
-1 7 -1 30634.1 1565.77 6
1 7 1 30205.2 1713.14 2
-1 7 -1 27796.2 1600.11 5
1 7 2 17481.9 782.558 10
-1 7 -2 17040.9 1231.40 5
-1 7 -2 19144.8 1179.55 6
1 7 2 16998.0 1305.38 2
1 7 3 20863.7 1490.64 2
-1 7 -3 19398.8 1190.67 4
-1 7 -3 20596.3 986.197 9
1 7 3 20219.9 1006.24 10
-1 7 -3 19244.4 1182.14 6
-1 7 -3 22208.8 1430.10 5
-1 7 -4 4269.05 632.938 5
-1 7 -4 4935.73 583.199 4
-1 7 -4 4384.04 507.267 9
-1 7 -4 4755.84 571.915 6
1 7 4 3739.65 660.032 2
-1 7 -5 29070.6 1166.23 12
1 7 5 29307.1 1924.77 2
-1 7 -5 27098.9 1470.80 9
-1 7 -5 29841.3 1473.28 4
-1 7 -5 27155.8 1400.50 6
-1 7 -5 27707.7 1689.60 5
-1 7 -6 8787.53 782.550 4
-1 7 -6 8034.22 920.643 5
1 7 6 8057.38 1048.87 2
-1 7 -6 8689.94 887.923 9
-1 7 -7 16993.6 1359.82 9
1 7 7 15560.4 1525.02 2
-1 7 -7 11900.5 1151.21 5
-1 7 -8 1027.23 370.428 5
1 7 8 1900.37 598.825 2
-1 7 -8 2421.19 574.437 9
-1 7 -9 511.846 388.898 9
1 7 9 140.734 201.563 2
-1 8 9 17703.7 1611.26 2
1 8 -8 4067.31 716.015 4
-1 8 8 4314.32 766.331 2
1 8 -7 4928.69 768.703 4
-1 8 7 3810.35 676.005 2
-1 8 6 38931.9 2120.79 2
1 8 -6 46821.0 2370.97 4
1 8 -6 39240.6 2060.92 5
-1 8 5 8316.12 905.887 2
1 8 -5 8066.75 885.814 5
1 8 -5 8777.97 978.828 4
1 8 -4 13679.2 1201.68 4
-1 8 4 11452.4 1017.23 2
1 8 -4 13030.1 736.563 9
1 8 -4 12250.2 817.027 6
1 8 -3 39221.3 2069.58 4
-1 8 3 40881.2 1929.29 2
-1 8 2 19656.4 1274.65 2
1 8 -2 20869.5 1473.20 4
1 8 -2 22298.9 1550.23 2
1 8 -1 2092.81 456.043 2
-1 8 1 2259.81 429.981 2
1 8 0 33294.9 1924.88 2
-1 8 0 36938.1 1810.98 2
-1 8 0 38213.5 2000.15 5
1 8 1 35289.1 1989.80 2
-1 8 -1 34495.6 1926.61 5
-1 8 -1 34896.8 1812.65 6
1 8 2 11704.0 1144.27 2
-1 8 -2 12328.7 1135.62 5
-1 8 -2 10449.7 944.023 6
-1 8 -3 26628.7 1708.03 5
1 8 3 27864.5 1844.74 2
-1 8 -3 29651.4 1622.03 4
-1 8 -3 29091.4 1563.12 6
-1 8 -4 366.304 240.971 4
-1 8 -4 403.962 280.025 5
-1 8 -4 442.976 265.434 6
-1 8 -4 477.383 201.941 9
1 8 4 -140.104 216.333 2
-1 8 -5 11755.4 941.576 6
1 8 5 14292.6 1394.90 2
-1 8 -5 10113.4 1076.82 5
-1 8 -5 12093.3 988.580 4
1 8 6 5680.39 929.934 2
-1 8 -6 7036.97 918.007 5
1 8 7 2531.32 644.319 2
-1 8 -7 3086.41 630.522 5
-1 8 -8 1078.12 429.823 5
1 8 8 1179.01 482.801 2
1 9 -8 1531.22 471.795 4
1 9 -7 486.184 358.993 4
-1 9 7 542.430 353.651 2
1 9 -7 375.690 245.775 5
1 9 -6 766.996 371.381 5
1 9 -6 320.974 207.336 4
-1 9 6 1268.99 399.953 2
1 9 -5 11311.4 1179.10 4
-1 9 5 12387.1 1163.40 2
1 9 -5 11858.0 1161.16 5
1 9 -4 19019.7 1531.91 4
-1 9 4 19611.7 1416.10 2
1 9 -4 21082.2 1189.97 6
1 9 -3 272.714 213.169 4
-1 9 3 542.068 254.048 2
1 9 -2 16976.3 1451.05 2
-1 9 2 18445.2 1328.75 2
1 9 -2 16977.1 1425.92 4
1 9 -1 2417.15 542.402 2
-1 9 1 2171.50 467.385 2
1 9 0 11532.0 1187.88 2
-1 9 0 11989.8 1074.81 2
-1 9 0 12389.4 1200.19 5
1 9 1 22678.0 1659.98 2
-1 9 -1 17019.5 1441.74 5
-1 9 -1 20570.0 1449.08 6
1 9 2 4985.58 809.543 2
-1 9 -2 7474.00 847.047 6
-1 9 -2 6531.58 886.250 5
-1 9 -3 3452.09 553.820 6
1 9 3 2544.87 588.528 2
-1 9 -3 2124.47 460.692 4
-1 9 -3 2035.02 534.863 5
1 9 4 11091.8 1250.80 2
-1 9 -4 11919.7 1018.67 6
-1 9 -4 11684.9 1204.86 5
-1 9 -4 10651.6 1013.12 4
-1 9 -5 3540.96 685.299 5
-1 9 -5 3093.04 539.021 4
1 9 5 1553.60 524.189 2
1 9 6 9918.81 1278.91 2
-1 9 -6 10278.2 1171.21 5
-1 9 -7 4292.19 767.575 5
1 9 7 2493.43 678.764 2
-1 9 -8 1842.79 542.184 5
1 10 -7 16143.7 1532.37 4
1 10 -7 14998.9 1429.84 5
1 10 -6 20806.3 1667.05 5
1 10 -6 16340.8 1527.81 4
-1 10 6 17743.1 1529.35 2
-1 10 5 1602.56 487.173 2
1 10 -5 1604.84 491.692 4
1 10 -5 1802.67 536.984 5
1 10 -4 3804.94 729.826 4
-1 10 4 5061.97 748.270 2
1 10 -3 4619.02 796.623 4
-1 10 3 4634.89 714.924 2
-1 10 2 10356.3 1046.37 2
1 10 -2 11251.9 1235.33 4
1 10 -2 10787.3 1216.45 2
-1 10 1 233.713 208.596 2
1 10 -1 109.327 253.630 2
-1 10 0 2615.31 612.994 5
1 10 0 2936.85 635.843 2
-1 10 0 3289.46 639.857 6
1 10 1 14500.3 1403.00 2
-1 10 -1 13436.7 1238.01 6
-1 10 -1 16555.3 1493.87 5
-1 10 -2 682.507 357.064 5
1 10 2 299.444 255.713 2
-1 10 -2 273.058 241.174 6
-1 10 -3 3608.56 648.919 4
1 10 3 2398.97 597.556 2
-1 10 -3 2566.65 515.812 6
-1 10 -3 2683.18 598.109 5
-1 10 -4 11047.9 1105.12 4
-1 10 -4 9720.36 961.926 6
-1 10 -4 10993.2 1237.79 5
1 10 4 10358.7 1272.98 2
1 10 5 5254.39 917.670 2
-1 10 -5 4902.98 826.322 5
1 10 6 2543.09 693.329 2
-1 10 -6 2059.87 564.552 5
-1 10 -7 3426.69 740.519 5
1 11 -7 137.864 315.839 5
1 11 -6 113.502 207.430 4
1 11 -6 212.590 299.459 5
1 11 -5 3641.33 741.653 5
1 11 -5 4751.37 846.921 4
1 11 -4 107.165 185.696 4
-1 11 4 381.288 318.158 2
1 11 -4 608.390 318.200 5
1 11 -3 2918.15 680.070 4
-1 11 3 2573.66 563.408 2
1 11 -2 12232.0 1372.55 4
1 11 -2 11575.6 1337.18 2
-1 11 2 11602.4 1186.17 2
-1 11 1 7102.74 1047.44 5
1 11 -1 6609.30 999.567 4
1 11 -1 6666.50 1006.61 2
-1 11 1 6274.56 887.476 2
1 11 0 2314.93 623.688 2
-1 11 0 1800.99 557.832 5
-1 11 0 2138.57 571.249 6
-1 11 -1 3160.63 712.859 5
-1 11 -1 3070.79 652.517 6
1 11 1 2554.29 647.431 2
-1 11 -2 26111.1 1807.08 6
1 11 2 22247.8 1868.01 2
-1 11 -2 23844.3 1916.07 5
-1 11 -3 8592.62 1157.84 5
-1 11 -3 9505.87 1100.95 4
1 11 3 7886.31 1133.90 2
-1 11 -3 6664.48 880.192 6
-1 11 -4 3452.28 754.749 5
1 11 4 3971.95 850.258 2
1 11 5 3136.86 768.806 2
1 12 -4 420.369 312.211 4
1 12 -3 3854.12 813.817 4
-1 12 2 603.066 349.439 2
1 12 -2 620.597 461.768 4
1 12 -1 3619.03 813.373 2
1 12 -1 3997.91 833.139 4
-1 12 1 3302.91 721.691 6
-1 12 0 1025.21 434.581 6
1 12 0 2704.47 704.531 2
1 12 1 1269.63 487.265 2
-1 12 -1 1417.42 472.351 6
-1 12 -2 5470.81 938.793 4
1 12 2 4797.86 916.978 2
-1 12 -2 5503.31 865.602 6
-1 12 -3 8757.99 1139.83 4
1 12 3 10060.2 1325.28 2
-1 13 -1 2474.67 710.044 6
-2 -12 0 5181.80 891.930 11
-2 -12 0 5256.06 928.438 7
-2 -12 -1 2255.70 608.042 11
-2 -12 -1 2313.41 633.035 7
-2 -12 -2 522.659 380.609 7
-2 -11 7 4311.51 935.295 3
2 -11 -6 1962.12 598.999 1
-2 -11 6 2097.76 607.414 3
2 -11 -5 2041.09 589.306 1
2 -11 -4 1798.13 578.697 1
-2 -11 4 1395.26 467.107 8
2 -11 -3 1462.96 509.263 1
-2 -11 3 900.261 376.410 8
2 -11 -2 4756.46 885.990 1
2 -11 -1 3453.56 791.633 1
-2 -11 1 3557.15 679.481 11
-2 -11 0 1816.47 513.079 11
-2 -11 0 763.550 347.515 7
2 -11 0 1101.73 472.465 1
-2 -11 -1 4904.24 866.430 11
-2 -11 -1 5419.12 897.780 7
2 -11 1 3665.25 801.902 1
2 -11 2 -56.0105 256.121 1
-2 -11 -2 683.861 380.434 7
-2 -11 -2 554.673 284.252 11
-2 -11 -3 9974.23 1319.17 11
-2 -11 -3 8928.31 1227.08 7
2 -11 3 11010.0 1401.17 1
-2 -10 7 4258.62 835.603 3
2 -10 -6 4639.75 813.165 1
-2 -10 6 4575.60 827.033 3
-2 -10 5 8651.33 1055.11 3
2 -10 -5 8096.14 1066.05 1
2 -10 -4 2688.92 608.915 1
-2 -10 4 2266.45 526.631 3
-2 -10 4 1825.50 519.373 8
-2 -10 3 4344.00 664.918 3
-2 -10 3 6821.80 901.193 8
2 -10 -3 4438.45 809.396 1
-2 -10 2 8585.92 972.683 8
2 -10 -2 7831.06 1076.43 1
-2 -10 2 9511.64 925.621 3
-2 -10 2 9747.04 972.131 11
-2 -10 1 15392.6 1308.21 11
2 -10 -1 15779.1 1522.47 1
-2 -10 1 13794.4 1194.65 8
-2 -10 0 4726.38 781.827 7
2 -10 0 3750.51 780.177 1
-2 -10 0 4652.82 668.805 8
-2 -10 0 5100.12 779.840 11
-2 -10 -1 20027.4 1654.71 7
2 -10 1 22108.0 1841.67 1
-2 -10 -1 23929.0 1813.49 11
-2 -10 -2 8826.13 1117.93 7
2 -10 2 7967.53 1121.78 1
-2 -10 -2 7444.79 1067.71 11
-2 -10 -3 9481.51 1212.97 7
2 -10 3 8815.92 1190.90 1
-2 -10 -3 8349.39 1162.50 11
-2 -10 -4 206.804 349.872 11
-2 -10 -4 630.431 411.332 7
2 -10 4 297.186 326.007 1
-2 -10 -5 10951.1 1388.54 7
2 -10 5 8383.09 1180.01 1
2 -10 6 1577.92 511.658 1
-2 -9 8 5047.59 930.171 3
2 -9 -8 5976.01 1071.95 7
-2 -9 7 2273.18 595.078 3
2 -9 -7 1783.36 497.694 1
2 -9 -6 1638.67 482.463 1
-2 -9 6 736.936 318.130 3
2 -9 -5 11787.4 1218.35 1
-2 -9 5 12131.6 1192.11 3
2 -9 -4 30554.1 2000.78 1
-2 -9 4 30447.9 1818.01 3
-2 -9 3 9804.62 1040.18 8
2 -9 -3 9658.15 1126.40 1
-2 -9 3 11790.8 1041.06 3
-2 -9 3 11363.7 918.432 11
-2 -9 2 2523.34 495.234 11
-2 -9 2 2585.20 516.455 8
-2 -9 2 2499.64 448.123 3
2 -9 -2 3644.11 702.575 1
-2 -9 1 6861.22 840.234 11
-2 -9 1 6499.12 787.476 8
-2 -9 1 7537.58 729.260 3
2 -9 -1 6602.02 941.156 1
-2 -9 0 169.536 177.358 11
-2 -9 0 915.856 348.679 8
-2 -9 0 238.727 210.839 7
2 -9 0 444.681 309.344 1
-2 -9 -1 16864.5 1442.04 11
-2 -9 -1 19055.1 1517.40 7
-2 -9 -1 19589.3 1321.75 8
2 -9 1 20328.3 1658.02 1
-2 -9 -2 5251.55 839.025 11
-2 -9 -2 4883.90 801.174 7
-2 -9 -2 4166.02 599.587 8
2 -9 2 5187.42 825.908 1
-2 -9 -3 11772.7 1308.42 11
2 -9 3 12142.6 1304.09 1
-2 -9 -3 12971.1 1335.76 7
-2 -9 -4 957.814 441.084 11
-2 -9 -4 1038.54 418.645 7
2 -9 4 935.558 415.510 1
-2 -9 -5 2080.70 636.216 11
-2 -9 -5 1775.92 570.198 7
2 -9 5 1758.34 518.065 1
2 -9 5 1380.18 469.528 3
-2 -9 -6 11876.0 1476.63 11
2 -9 6 11380.0 1301.05 1
2 -9 6 8760.27 1257.83 3
-2 -9 -6 8678.38 1231.94 7
2 -9 7 7343.52 1057.11 1
2 -8 -9 688.762 367.206 11
2 -8 -9 691.672 407.456 7
-2 -8 9 1790.85 603.810 3
2 -8 -8 12633.7 1466.63 7
-2 -8 8 8633.92 1166.52 3
2 -8 -7 11558.6 1118.50 1
-2 -8 7 10109.3 1173.56 3
2 -8 -6 16964.3 1376.61 1
-2 -8 6 20109.4 1585.89 3
-2 -8 5 2268.24 516.908 3
2 -8 -5 1271.75 414.402 1
-2 -8 4 685.912 214.551 11
2 -8 -4 734.017 319.360 1
-2 -8 4 1322.56 378.252 3
2 -8 -3 22336.0 1608.55 1
-2 -8 3 24080.0 1427.61 3
-2 -8 3 22856.8 1241.85 11
-2 -8 3 25361.6 1048.63 10
2 -8 -2 4953.18 773.335 1
-2 -8 2 4700.10 665.812 8
-2 -8 2 4435.06 364.541 10
-2 -8 2 5549.32 622.378 3
-2 -8 2 5792.61 676.009 11
-2 -8 1 16999.0 1225.63 11
-2 -8 1 15293.8 1172.84 8
2 -8 -1 16578.9 1390.18 1
-2 -8 1 15216.3 973.190 3
-2 -8 0 1764.38 436.406 11
-2 -8 0 1677.28 392.056 8
-2 -8 0 2257.76 456.734 7
2 -8 0 2103.25 503.031 1
-2 -8 -1 46818.5 2318.36 11
-2 -8 -1 43419.9 1982.86 8
2 -8 1 41983.0 2300.87 1
-2 -8 -1 41058.3 2152.19 7
-2 -8 -2 11399.3 1163.00 11
-2 -8 -2 13743.2 1062.15 8
2 -8 2 12463.7 1228.37 1
-2 -8 -2 10395.2 1084.19 7
-2 -8 -3 3097.33 649.828 11
2 -8 3 4496.32 755.108 1
-2 -8 -3 2671.89 588.814 7
2 -8 4 4796.74 780.922 1
-2 -8 -4 5713.15 902.091 7
-2 -8 -4 5329.48 891.702 11
-2 -8 -5 7289.88 1058.70 11
-2 -8 -5 6883.34 793.618 9
-2 -8 -5 6263.75 972.581 7
2 -8 5 5308.97 833.497 1
2 -8 5 7625.02 1078.67 3
-2 -8 -6 2274.18 623.856 11
2 -8 6 2383.69 577.449 1
-2 -8 -6 1753.80 582.325 7
2 -8 6 2076.89 629.346 3
2 -8 7 369.877 326.918 3
-2 -8 -7 346.301 446.718 11
2 -8 7 335.717 278.356 1
-2 -8 -7 614.374 452.892 7
2 -7 -10 303.840 401.608 11
2 -7 -10 98.7083 352.950 7
-2 -7 9 7633.90 1122.09 3
2 -7 -9 8214.95 1164.41 7
2 -7 -8 5627.96 928.528 7
-2 -7 8 5233.23 888.207 3
-2 -7 7 11472.8 1211.15 3
2 -7 -7 10570.1 1005.72 1
2 -7 -6 11665.9 1068.53 1
-2 -7 6 11675.7 1153.96 3
2 -7 -5 12915.0 1120.39 1
-2 -7 5 11667.6 1064.14 3
-2 -7 4 7723.66 568.112 11
2 -7 -4 7540.40 867.031 1
-2 -7 4 7058.11 770.458 3
2 -7 -3 46688.3 1778.66 2
-2 -7 3 43819.6 1701.74 11
2 -7 -3 50565.7 2329.54 1
-2 -7 3 48553.8 1972.21 3
-2 -7 2 28505.8 1126.86 10
2 -7 -2 30173.9 1380.97 2
-2 -7 2 30634.0 1675.95 8
2 -7 -2 27166.4 1700.13 1
-2 -7 2 31093.3 1416.66 3
-2 -7 2 32055.1 1502.52 11
-2 -7 1 24886.8 1469.59 8
-2 -7 1 26313.3 1010.75 10
2 -7 -1 25351.9 1060.56 9
2 -7 -1 26767.0 1310.27 2
2 -7 -1 24847.9 1606.64 1
-2 -7 1 25640.2 1187.85 3
-2 -7 1 27129.1 1472.63 11
2 -7 0 26426.1 1083.91 9
2 -7 0 26465.8 987.128 8
-2 -7 0 23324.5 1430.94 7
-2 -7 0 25338.3 1438.70 8
2 -7 0 22598.7 1558.71 1
-2 -7 0 24958.6 1504.16 11
-2 -7 -1 18815.8 1376.42 11
2 -7 1 18282.3 939.201 9
-2 -7 -1 19339.3 1235.12 8
-2 -7 -1 19965.7 1368.25 7
2 -7 1 19440.0 1432.37 1
-2 -7 -2 3909.01 654.215 11
-2 -7 -2 5159.32 641.098 8
-2 -7 -2 4347.34 416.941 3
-2 -7 -2 5215.57 715.392 7
2 -7 2 3819.71 650.994 1
2 -7 3 12635.2 1183.17 1
-2 -7 -3 13879.1 1278.52 11
-2 -7 -3 15258.1 1305.77 7
-2 -7 -4 9826.87 888.272 9
-2 -7 -4 10117.9 1107.80 7
2 -7 4 12121.6 1156.20 1
-2 -7 -4 10018.2 1143.50 11
-2 -7 -5 41683.1 2051.68 9
2 -7 5 38560.0 2152.86 1
-2 -7 -5 36965.9 2285.49 7
2 -7 5 39228.5 2397.84 3
-2 -7 -5 41816.6 2475.39 11
2 -7 6 5837.71 832.444 1
-2 -7 -6 6667.85 997.841 11
-2 -7 -6 5778.91 799.369 9
-2 -7 -6 6437.16 990.257 7
2 -7 6 6237.49 962.439 3
2 -7 7 5665.68 835.403 1
-2 -7 -7 5801.38 870.338 9
-2 -7 -7 5973.26 971.182 11
2 -7 7 6470.69 1045.29 3
-2 -7 -7 5212.74 921.719 7
2 -7 8 13887.3 1613.25 3
-2 -7 -8 16615.2 1556.79 9
-2 -7 -8 13258.4 1542.72 11
-2 -7 -9 18725.2 1771.18 9
2 -6 -11 6822.25 1101.80 11
2 -6 -11 5293.67 953.282 7
2 -6 -10 4675.15 909.533 11
2 -6 -10 4856.15 891.430 7
-2 -6 10 4294.39 897.899 3
2 -6 -9 10372.5 1249.89 7
-2 -6 9 9364.04 1213.89 3
-2 -6 8 17368.2 1546.95 3
2 -6 -8 18944.3 1252.25 1
2 -6 -8 16683.3 1534.36 7
-2 -6 7 9026.56 1050.32 3
2 -6 -7 10366.5 924.731 1
2 -6 -6 2767.07 506.878 1
-2 -6 6 2219.37 491.670 3
2 -6 -5 1917.87 437.148 1
-2 -6 5 3218.97 545.054 3
-2 -6 4 34717.0 1692.48 3
2 -6 -4 34812.1 1794.61 1
-2 -6 4 35841.0 1190.66 11
2 -6 -3 22702.4 1068.22 2
2 -6 -3 22574.0 1423.07 1
-2 -6 3 23465.2 1255.00 3
-2 -6 3 22773.5 1054.94 11
-2 -6 2 14308.4 908.079 11
-2 -6 2 13461.8 1041.73 8
2 -6 -2 15067.4 835.074 2
-2 -6 2 13485.4 848.930 3
2 -6 -2 14765.2 1144.33 1
-2 -6 1 1478.51 237.331 10
2 -6 -1 2050.72 166.505 8
-2 -6 1 1744.88 272.139 3
-2 -6 1 1744.03 383.546 8
2 -6 -1 2231.38 465.833 1
2 -6 -1 1309.56 253.357 2
-2 -6 1 1179.93 284.805 11
2 -6 -1 2066.62 300.028 9
-2 -6 0 1595.15 352.780 11
2 -6 0 1443.35 225.613 8
2 -6 0 1860.84 440.961 1
-2 -6 0 1330.51 317.477 8
-2 -6 0 1425.96 328.960 7
2 -6 0 1859.22 318.354 2
-2 -6 0 1530.14 252.950 10
2 -6 0 1864.30 290.084 9
2 -6 1 13786.6 914.619 2
2 -6 1 10241.1 714.078 9
-2 -6 -1 10236.4 905.898 7
2 -6 1 10516.5 973.818 1
-2 -6 -1 11499.9 991.307 11
-2 -6 -1 12350.0 944.346 8
-2 -6 -2 10929.3 1020.11 11
2 -6 2 10327.8 968.955 1
2 -6 2 9773.53 753.617 9
-2 -6 -2 10518.9 582.902 3
-2 -6 -2 11479.9 916.261 8
-2 -6 -2 12329.9 1038.14 7
-2 -6 -3 25039.4 1648.76 11
2 -6 3 20840.8 1434.07 1
-2 -6 -3 25398.3 1003.84 3
-2 -6 -3 24837.3 1599.05 7
-2 -6 -4 8449.96 995.676 11
-2 -6 -4 9386.38 1016.88 7
-2 -6 -4 9652.48 885.677 9
2 -6 4 8685.56 922.330 1
-2 -6 -5 1912.99 488.488 7
2 -6 5 2830.71 548.064 1
2 -6 5 1706.38 492.509 3
-2 -6 -5 2075.21 541.481 11
-2 -6 -5 2831.60 524.468 9
-2 -6 -6 20234.2 1682.81 11
2 -6 6 21773.2 1504.06 1
-2 -6 -6 20298.3 1677.22 7
-2 -6 -6 18821.3 1464.66 9
2 -6 6 22041.6 1750.91 3
-2 -6 -7 3058.31 671.468 11
-2 -6 -7 2692.22 585.615 9
-2 -6 -7 1856.55 548.148 7
2 -6 7 2675.64 536.703 1
2 -6 7 2218.37 577.859 3
-2 -6 -8 2069.14 645.709 11
2 -6 8 3320.98 768.251 3
-2 -6 -8 1627.80 547.065 7
-2 -6 -8 2233.74 568.804 9
-2 -6 -9 72.2276 273.096 9
2 -5 -12 1455.20 596.023 7
2 -5 -11 4585.73 869.542 11
2 -5 -11 3407.65 741.374 7
2 -5 -10 2133.84 590.312 11
2 -5 -10 1974.50 572.355 7
-2 -5 10 649.165 386.772 3
2 -5 -9 5830.40 870.429 7
-2 -5 9 6447.96 993.181 3
2 -5 -8 9154.06 1064.42 7
-2 -5 8 9140.55 1105.47 3
2 -5 -8 10068.4 855.112 1
-2 -5 7 82130.7 3315.41 3
2 -5 -7 84667.1 2804.74 1
-2 -5 6 49067.9 1367.80 7
-2 -5 6 46372.9 2225.25 3
2 -5 -6 49224.0 2029.67 1
-2 -5 5 1612.06 377.486 3
2 -5 -5 1106.00 277.363 1
-2 -5 4 33217.7 1024.35 11
-2 -5 4 30727.8 1516.56 3
2 -5 -4 29681.0 1552.64 1
2 -5 -3 37518.9 1248.59 2
-2 -5 3 35326.7 1498.22 3
-2 -5 3 33730.1 1236.72 11
2 -5 -3 35404.3 1687.30 1
-2 -5 2 48294.9 1688.66 11
-2 -5 2 48025.8 1986.16 8
2 -5 -2 51188.9 1502.69 2
-2 -5 2 47871.7 1627.66 3
2 -5 -2 48683.6 2037.73 1
-2 -5 1 114156. 2821.85 10
2 -5 -1 116072. 2731.89 2
2 -5 -1 113140. 2357.65 8
-2 -5 1 115765. 3005.84 7
-2 -5 1 116433. 2659.64 3
-2 -5 1 107844. 3256.79 8
2 -5 -1 113611. 3436.32 1
-2 -5 1 112260. 3109.53 11
-2 -5 0 32062.6 1528.37 11
-2 -5 0 33695.4 1264.23 10
-2 -5 0 30513.2 1485.71 8
-2 -5 0 33378.7 1471.79 7
2 -5 0 31465.5 1274.37 9
-2 -5 0 32820.3 989.129 3
2 -5 0 31862.0 1250.75 2
2 -5 0 30969.2 1601.62 1
2 -5 0 32545.4 1135.57 8
-2 -5 -1 208890. 5105.43 11
-2 -5 -1 194047. 3805.58 3
2 -5 1 203235. 4568.76 2
2 -5 1 204198. 4552.75 9
-2 -5 -1 206132. 4888.63 8
-2 -5 -1 204660. 4456.12 10
-2 -5 -1 188058. 4818.34 7
2 -5 1 201165. 5084.11 1
2 -5 2 19396.6 1080.26 10
2 -5 2 20721.4 1131.07 9
-2 -5 -2 19410.9 1185.41 8
-2 -5 -2 20539.7 1281.59 7
-2 -5 -2 20846.0 725.825 3
2 -5 2 20593.5 1284.37 1
-2 -5 -2 20601.8 1336.35 11
-2 -5 -3 76828.4 2876.48 7
2 -5 3 78698.1 2813.56 1
-2 -5 -3 82126.5 2011.26 3
-2 -5 -3 80703.6 3013.61 11
-2 -5 -4 16840.9 842.601 3
-2 -5 -4 15084.3 1260.05 11
-2 -5 -4 16082.3 1158.01 9
2 -5 4 14980.9 1126.33 1
-2 -5 -4 13787.1 1195.79 7
-2 -5 -5 12310.0 1203.86 11
-2 -5 -5 13759.6 1138.04 9
2 -5 5 12523.2 1036.94 1
-2 -5 -5 13702.2 1255.28 7
2 -5 5 13857.8 1253.85 3
2 -5 6 10855.0 975.409 1
-2 -5 -6 8856.37 1067.49 7
2 -5 6 11155.8 1182.84 3
-2 -5 -6 11371.1 1128.94 9
-2 -5 -6 11067.5 1185.46 11
-2 -5 -7 2408.03 605.353 11
-2 -5 -7 2388.89 560.404 9
2 -5 7 2389.27 580.158 3
2 -5 7 2113.99 436.156 1
-2 -5 -7 2330.31 598.587 7
-2 -5 -8 3472.64 713.258 9
2 -5 8 3155.32 739.393 3
-2 -5 -8 3058.22 695.508 11
-2 -5 -8 3577.59 752.757 7
-2 -5 -9 5550.04 972.468 11
2 -5 9 6416.86 1075.57 3
-2 -5 -9 5220.84 927.080 9
-2 -5 -9 8539.71 1198.73 7
2 -4 -11 3369.08 727.837 11
-2 -4 11 3646.89 842.773 3
2 -4 -11 2600.96 605.077 7
2 -4 -10 6259.30 885.594 7
-2 -4 10 5905.81 997.859 3
2 -4 -10 5634.20 855.748 11
2 -4 -9 1890.63 499.604 7
-2 -4 9 1009.17 391.848 3
2 -4 -8 1440.39 319.498 1
2 -4 -8 1954.03 495.615 7
-2 -4 8 1023.66 400.067 3
2 -4 -7 76148.5 2502.41 1
2 -4 -7 76737.3 2987.02 7
-2 -4 7 76244.8 3112.35 3
-2 -4 6 21119.6 723.981 7
-2 -4 6 20026.6 1380.05 3
2 -4 -6 18530.7 1127.05 1
2 -4 -5 16391.2 1050.13 1
-2 -4 5 15474.4 520.945 7
-2 -4 5 14438.8 1074.74 3
2 -4 -4 30053.0 1468.70 1
-2 -4 4 34654.4 1539.53 3
-2 -4 3 39037.3 1515.57 3
2 -4 -3 38523.9 1677.00 1
-2 -4 3 40145.4 1252.73 11
2 -4 -2 166103. 4189.75 1
2 -4 -2 162232. 3254.83 2
-2 -4 2 159758. 3423.31 7
-2 -4 2 167629. 3640.19 3
-2 -4 2 166632. 3697.54 11
2 -4 -1 47793.7 1887.21 1
2 -4 -1 49112.8 1329.71 2
2 -4 -1 47609.8 1282.65 8
-2 -4 1 46602.5 1835.27 8
-2 -4 1 45757.7 1573.82 10
-2 -4 1 47860.2 1551.18 7
-2 -4 1 48795.8 1326.91 3
-2 -4 1 45922.9 1659.23 11
2 -4 0 4273.70 373.803 2
-2 -4 0 4332.94 430.920 10
-2 -4 0 4161.61 492.841 11
-2 -4 0 4765.46 481.606 7
2 -4 0 5166.60 413.679 8
-2 -4 0 3589.54 467.999 8
-2 -4 0 4722.54 250.959 3
2 -4 0 4618.01 457.741 9
2 -4 0 5224.05 579.268 1
-2 -4 -1 28120.0 1404.67 11
2 -4 1 27122.4 1140.81 2
-2 -4 -1 25966.3 1155.13 10
-2 -4 -1 28234.3 1359.81 8
-2 -4 -1 25956.8 1279.26 7
2 -4 1 27536.6 1231.93 9
2 -4 1 25924.3 1356.32 1
-2 -4 -2 70512.8 2553.22 11
2 -4 2 71879.4 2335.31 9
2 -4 2 75106.6 2349.10 10
-2 -4 -2 69030.5 2448.95 7
-2 -4 -2 72244.8 1529.74 3
-2 -4 -2 73492.9 2446.68 8
2 -4 2 68306.5 2396.87 1
-2 -4 -3 5485.58 686.173 11
-2 -4 -3 5504.55 664.588 7
-2 -4 -3 5802.37 387.615 3
2 -4 3 5447.38 610.632 1
-2 -4 -4 4628.85 662.311 11
-2 -4 -4 4487.89 643.905 7
-2 -4 -4 4772.19 428.535 3
2 -4 4 4415.21 561.707 1
-2 -4 -4 4373.54 597.615 9
-2 -4 -5 7537.17 847.752 9
2 -4 5 7397.67 723.737 1
-2 -4 -5 6539.67 831.731 7
-2 -4 -5 7383.15 614.314 3
2 -4 5 8221.47 911.052 3
-2 -4 -5 7932.74 923.583 11
-2 -4 -6 2269.60 549.093 11
2 -4 6 2647.67 563.637 3
-2 -4 -6 2046.60 505.800 7
-2 -4 -6 2360.75 522.613 9
2 -4 6 2466.40 442.137 1
-2 -4 -7 431.287 265.045 11
2 -4 7 573.815 322.976 3
-2 -4 -7 482.688 340.359 7
2 -4 7 553.567 225.487 1
-2 -4 -7 874.795 374.091 9
2 -4 8 3028.50 661.553 3
-2 -4 -8 3326.96 715.124 11
-2 -4 -8 1372.64 477.560 7
-2 -4 -8 2153.85 570.059 9
-2 -4 -9 4930.55 849.901 11
-2 -4 -9 4523.36 881.411 9
-2 -4 -9 3887.60 796.238 7
2 -4 9 4445.61 868.737 3
-2 -4 -10 1276.12 561.046 9
-2 -4 -10 875.634 415.242 11
2 -3 -11 14452.2 1342.12 11
2 -3 -11 14200.1 1327.90 7
-2 -3 11 12484.8 1516.20 3
2 -3 -10 9062.50 1026.01 11
2 -3 -10 6581.67 868.444 7
-2 -3 10 6285.44 1006.86 3
-2 -3 9 26108.8 1958.86 3
2 -3 -9 29407.8 1774.82 7
2 -3 -8 84815.1 2556.72 1
2 -3 -8 87701.2 3148.69 7
-2 -3 8 82055.2 3419.15 3
2 -3 -7 11513.3 825.007 1
2 -3 -7 10989.7 966.850 7
-2 -3 7 9310.25 997.593 3
2 -3 -6 22912.8 1194.78 1
-2 -3 6 21647.3 1421.21 3
2 -3 -5 43362.9 1706.40 1
-2 -3 5 41270.0 1844.54 3
2 -3 -4 10103.4 778.441 1
-2 -3 4 10644.5 805.736 3
2 -3 -3 115592. 3195.07 1
-2 -3 3 119810. 2631.38 11
-2 -3 3 120323. 3033.32 3
-2 -3 2 93291.8 2691.77 2
2 -3 -2 94195.0 2732.76 1
-2 -3 2 90589.6 1973.09 7
-2 -3 2 94169.2 2294.46 3
-2 -3 2 90935.6 2300.18 11
2 -3 -1 51088.3 1862.76 1
2 -3 -1 54178.3 1764.68 5
-2 -3 1 54013.6 1883.61 2
2 -3 -1 52346.9 1203.23 2
2 -3 -1 53858.6 1448.95 8
-2 -3 1 51461.6 1869.16 8
-2 -3 1 50745.2 1478.46 7
-2 -3 1 53834.7 1324.80 3
-2 -3 1 54492.8 1725.48 11
2 -3 0 76063.1 2381.11 1
2 -3 0 74917.5 2203.72 9
-2 -3 0 74227.9 2110.08 7
-2 -3 0 74867.7 2179.68 10
2 -3 0 80990.7 2064.76 8
-2 -3 0 78786.5 2396.02 8
-2 -3 0 80623.9 2329.08 11
2 -3 1 49449.9 1729.34 10
2 -3 1 51160.5 1770.86 9
-2 -3 -1 48869.8 1826.24 8
-2 -3 -1 51722.3 1730.60 10
-2 -3 -1 47334.3 1730.70 7
-2 -3 -1 48648.1 1839.60 11
2 -3 1 48982.4 1825.31 1
-2 -3 -2 64147.0 2304.02 11
2 -3 2 69153.0 2249.81 9
2 -3 2 66250.3 2183.44 10
-2 -3 -2 67889.1 2280.87 8
-2 -3 -2 63613.2 2208.19 7
-2 -3 -2 66211.6 2143.35 10
2 -3 2 63413.9 2153.05 1
2 -3 2 68521.7 2157.35 11
-2 -3 -3 9743.72 876.105 11
-2 -3 -3 12394.2 943.857 7
-2 -3 -3 11695.5 571.975 3
2 -3 3 11151.0 796.943 11
2 -3 3 10169.6 775.420 1
-2 -3 -4 4970.58 650.550 11
-2 -3 -4 5468.06 659.500 9
-2 -3 -4 4309.36 604.344 7
2 -3 4 4342.04 508.796 1
-2 -3 -4 4990.86 441.647 3
2 -3 4 4927.35 630.322 3
-2 -3 -5 56730.9 2452.62 7
-2 -3 -5 54418.7 2401.23 9
2 -3 5 54507.3 1980.91 1
2 -3 5 53834.2 2370.77 3
-2 -3 -5 56570.7 1932.90 3
-2 -3 -5 59148.4 2502.69 11
-2 -3 -6 24541.6 1656.80 9
2 -3 6 25635.8 1254.28 1
-2 -3 -6 20972.6 1525.07 7
2 -3 6 19677.7 1456.01 3
-2 -3 -6 21613.9 1529.76 11
-2 -3 -7 4419.71 719.964 11
-2 -3 -7 3775.28 671.189 7
2 -3 7 3516.79 446.878 1
2 -3 7 2698.24 583.826 3
-2 -3 -7 3338.79 648.672 9
-2 -3 -8 8073.30 1077.74 9
-2 -3 -8 8066.18 1060.35 7
2 -3 8 9828.50 1165.91 3
-2 -3 -8 10038.7 1125.55 11
2 -3 9 1278.00 472.775 3
-2 -3 -9 2585.21 665.438 9
-2 -3 -9 1540.89 507.358 7
-2 -3 -9 2187.17 585.560 11
-2 -3 -10 1403.11 500.751 11
-2 -3 -10 1842.70 663.919 9
2 -3 10 1432.24 519.818 3
-2 -3 -11 581.570 549.764 11
2 -2 -11 4067.50 662.943 7
-2 -2 11 3427.62 784.755 3
2 -2 -10 11874.5 1101.40 11
2 -2 -10 11867.1 1094.14 7
-2 -2 10 10538.8 1302.54 3
2 -2 -9 2993.71 550.717 11
2 -2 -9 3237.45 549.135 7
-2 -2 9 3053.48 667.386 3
2 -2 -8 28308.7 1308.40 1
-2 -2 8 28923.7 965.676 12
2 -2 -8 28506.5 1566.52 7
-2 -2 8 30512.2 1938.55 3
2 -2 -8 26444.2 1775.23 4
2 -2 -7 26452.0 1269.68 1
2 -2 -7 27654.4 1702.81 4
-2 -2 7 27025.1 981.516 12
2 -2 -7 26633.1 1426.03 7
-2 -2 7 27652.4 1722.11 3
-2 -2 6 33827.0 1159.32 12
2 -2 -6 33832.3 1795.19 4
2 -2 -6 35059.0 1572.37 7
-2 -2 6 32360.2 1736.89 3
-2 -2 5 22732.2 1320.93 3
-2 -2 5 24227.9 968.182 12
2 -2 -5 24715.3 1434.46 4
-2 -2 4 68869.6 1894.79 12
-2 -2 4 71930.2 2216.76 2
-2 -2 4 66447.9 2232.58 3
2 -2 -4 65004.4 2364.39 4
2 -2 -3 25877.0 1276.17 4
-2 -2 3 24806.5 1116.04 3
-2 -2 3 29501.4 1227.64 2
-2 -2 3 24796.8 1031.94 12
-2 -2 2 8446.30 613.529 2
-2 -2 2 7382.44 491.320 11
2 -2 -2 8831.60 553.915 5
2 -2 -2 9417.67 688.329 4
-2 -2 2 8712.07 532.080 3
-2 -2 1 29904.5 1213.27 2
2 -2 -1 30078.2 1296.09 1
-2 -2 1 30578.1 1231.15 4
2 -2 -1 29792.8 1059.11 8
-2 -2 1 32098.8 1334.96 8
-2 -2 1 30499.5 951.557 7
-2 -2 1 30650.5 889.893 3
2 -2 -1 29534.1 1185.83 4
2 -2 -1 30659.3 1172.98 5
-2 -2 1 30290.0 1148.21 11
-2 -2 0 57822.6 1822.82 10
2 -2 0 59176.2 1926.12 1
2 -2 0 58767.8 1721.23 8
-2 -2 0 56374.7 1900.52 8
-2 -2 0 61193.3 1904.78 2
-2 -2 0 58679.7 1678.86 7
-2 -2 0 56252.6 1810.72 11
2 -2 1 28354.7 1189.64 8
-2 -2 -1 28609.6 1295.48 8
2 -2 1 27285.6 1226.23 10
-2 -2 -1 27813.3 1221.22 10
2 -2 1 25351.8 1172.80 1
2 -2 1 28522.4 1251.90 9
-2 -2 -1 29332.2 1298.11 2
-2 -2 -1 26883.2 1169.20 7
-2 -2 -1 29121.9 1280.75 11
2 -2 1 28854.2 1231.48 11
2 -2 2 12486.3 777.146 1
-2 -2 -2 11035.0 820.062 11
-2 -2 -2 12103.9 821.129 10
2 -2 2 13100.2 881.204 9
2 -2 2 12141.9 831.814 10
-2 -2 -2 11075.2 792.853 7
2 -2 2 12373.8 796.691 11
2 -2 3 111416. 2859.78 12
-2 -2 -3 108371. 3209.36 7
2 -2 3 109542. 2890.45 1
-2 -2 -3 116084. 3297.86 11
2 -2 3 113337. 3062.31 11
-2 -2 -4 39324.2 1823.71 11
-2 -2 -4 44017.1 1952.30 9
-2 -2 -4 40213.3 1855.17 7
2 -2 4 41656.4 1806.28 3
2 -2 4 39264.9 1494.57 1
2 -2 4 40571.6 1497.33 12
-2 -2 -5 51092.3 2200.03 11
2 -2 5 48661.1 1703.90 12
-2 -2 -5 48987.1 2256.59 9
-2 -2 -5 51435.6 2261.68 7
2 -2 5 48647.4 1695.58 1
2 -2 5 46638.0 2091.78 3
-2 -2 -5 53824.5 1890.33 3
2 -2 6 34501.2 1379.14 12
2 -2 6 32977.6 1315.51 1
-2 -2 -6 34233.0 1919.17 7
2 -2 6 34370.4 1864.15 3
-2 -2 -6 35388.8 1885.11 11
-2 -2 -6 34700.5 1993.42 9
-2 -2 -7 1549.59 417.943 11
-2 -2 -7 1158.79 414.664 9
-2 -2 -7 1199.95 387.220 7
2 -2 7 1059.11 390.042 3
-2 -2 -8 2753.20 580.162 11
-2 -2 -8 2446.53 594.481 9
-2 -2 -8 3184.74 654.735 7
2 -2 8 2430.52 579.681 3
-2 -2 -9 3497.98 669.978 11
2 -2 9 3040.62 696.825 3
-2 -2 -9 3598.69 738.999 7
-2 -2 -9 5034.07 932.831 9
-2 -2 -10 7221.09 992.525 11
-2 -2 -10 6267.14 1091.06 9
2 -2 10 6364.60 1045.24 3
-2 -1 11 2311.19 669.352 3
2 -1 -10 5753.81 696.635 11
2 -1 -10 7053.26 994.944 4
2 -1 -10 5060.12 667.130 7
-2 -1 10 5242.41 941.920 3
2 -1 -9 6776.76 730.150 11
2 -1 -9 4699.07 755.945 4
2 -1 -9 5717.24 672.385 7
-2 -1 9 5468.60 886.135 3
-2 -1 8 4338.25 412.602 12
2 -1 -8 4863.47 724.043 4
2 -1 -8 4527.37 561.100 7
-2 -1 8 3805.31 705.587 3
2 -1 -7 40562.7 2062.82 4
-2 -1 7 42329.6 1429.55 12
2 -1 -7 44172.7 1728.50 7
-2 -1 7 37594.7 2041.52 3
-2 -1 7 40136.9 1166.34 6
2 -1 -6 1438.19 282.761 7
-2 -1 6 1707.40 188.753 6
-2 -1 6 1822.00 415.885 3
-2 -1 6 1105.22 213.855 12
2 -1 -6 1035.12 317.553 4
2 -1 -5 19672.1 1236.96 4
-2 -1 5 22224.9 1290.96 3
-2 -1 5 21871.8 956.205 12
-2 -1 5 21421.0 701.508 6
2 -1 -4 18187.2 1095.64 4
-2 -1 4 17777.8 922.705 2
-2 -1 4 17223.2 1035.86 3
-2 -1 4 18742.3 875.059 12
-2 -1 4 19032.2 650.435 6
2 -1 -3 119319. 3169.56 4
-2 -1 3 119602. 2838.94 2
-2 -1 3 115720. 2838.26 12
-2 -1 3 118758. 2502.21 6
-2 -1 3 119554. 3016.75 3
2 -1 -3 124557. 2550.05 5
2 -1 -2 314056. 6466.80 4
-2 -1 2 325171. 6171.50 2
-2 -1 2 329827. 6551.53 8
2 -1 -2 328346. 6521.37 3
-2 -1 2 314646. 6204.76 3
2 -1 -2 316376. 6273.44 6
-2 -1 2 317904. 6317.94 12
2 -1 -2 323590. 6067.61 5
-2 -1 2 325036. 6460.52 4
2 -1 -1 50378.1 1582.25 4
-2 -1 1 53041.8 1533.33 2
-2 -1 1 51466.1 1588.69 11
-2 -1 1 52527.1 1725.34 8
2 -1 -1 53626.4 1593.55 8
2 -1 -1 52383.0 1628.27 6
-2 -1 1 53942.8 1628.64 4
2 -1 -1 53766.1 1144.30 2
2 -1 -1 56111.0 1592.59 5
-2 -1 1 51604.0 1651.56 12
2 -1 0 181857. 3720.72 4
2 -1 0 184252. 4074.41 12
-2 -1 0 185776. 3842.45 4
-2 -1 0 187226. 4168.68 8
2 -1 0 183653. 3997.77 8
-2 -1 0 182377. 4095.64 10
-2 -1 0 184968. 3945.92 2
2 -1 0 182999. 3610.85 2
2 -1 0 176964. 3977.49 5
-2 -1 0 187010. 4032.46 11
2 -1 1 114788. 2979.75 9
2 -1 1 113006. 2950.29 10
-2 -1 -1 112012. 2950.68 8
2 -1 1 110496. 2865.05 8
2 -1 1 114581. 2285.15 4
2 -1 1 110181. 2809.56 12
-2 -1 -1 109400. 2788.47 7
-2 -1 -1 108251. 2884.95 11
2 -1 2 53272.9 1905.35 10
2 -1 2 52657.7 1933.79 9
2 -1 2 52567.8 1682.63 1
2 -1 2 50503.4 1689.87 12
-2 -1 -2 51496.4 1826.41 7
2 -1 2 55559.4 1845.09 11
-2 -1 -2 54433.4 1887.86 11
2 -1 3 22462.5 997.085 1
2 -1 3 23868.3 1192.80 11
2 -1 3 22527.7 1067.16 12
-2 -1 -3 23195.9 1247.90 7
2 -1 3 24247.6 1158.15 3
-2 -1 -3 25233.6 1279.53 11
2 -1 4 3269.15 454.196 3
-2 -1 -4 3998.37 540.808 7
2 -1 4 3525.88 365.261 1
-2 -1 -4 4078.32 531.253 11
2 -1 4 3586.91 415.976 12
-2 -1 -5 647.670 262.679 11
2 -1 5 124.866 134.533 3
2 -1 5 396.268 124.294 1
-2 -1 -5 749.052 275.389 7
-2 -1 -5 876.756 300.023 9
2 -1 5 514.933 179.276 12
-2 -1 -6 134071. 4353.70 9
2 -1 6 132896. 2938.49 1
-2 -1 -6 125770. 4095.98 7
2 -1 6 126450. 3945.48 3
2 -1 6 135551. 3417.70 12
-2 -1 -6 129635. 3943.07 11
-2 -1 -7 13597.6 1323.26 9
-2 -1 -7 12950.0 1219.54 7
2 -1 7 12235.5 1136.12 3
-2 -1 -7 14405.8 1179.37 11
-2 -1 -8 33776.0 2223.21 9
2 -1 8 28415.6 1890.14 3
-2 -1 -8 27941.8 1764.63 11
-2 -1 -9 1412.82 487.782 9
2 -1 9 859.469 344.126 3
-2 -1 -9 2482.58 552.521 11
-2 -1 -10 23047.9 2076.19 9
2 -1 10 19318.9 1785.85 3
-2 -1 -10 23305.0 1716.53 11
2 -1 11 872.837 490.074 3
2 0 -12 288.504 280.823 4
2 0 -11 964.038 368.893 4
-2 0 11 2577.40 700.758 3
2 0 -10 4806.64 807.896 4
2 0 -10 5442.86 660.114 7
-2 0 10 3034.88 747.817 3
2 0 -9 36885.9 2162.08 4
2 0 -9 40154.1 1701.61 11
-2 0 9 41697.1 1617.12 12
2 0 -9 39877.9 1751.46 7
-2 0 9 39578.3 2401.77 3
2 0 -8 23651.5 1609.95 4
2 0 -8 24460.1 1245.88 7
-2 0 8 23419.7 1697.79 3
-2 0 8 26231.1 1217.70 12
2 0 -7 1101.81 359.066 4
2 0 -7 1296.37 257.860 7
-2 0 7 997.993 232.791 12
-2 0 7 1393.11 398.842 3
2 0 -6 190536. 4961.07 4
-2 0 6 185239. 4237.00 12
2 0 -6 191928. 4102.58 7
-2 0 6 180803. 4977.73 3
-2 0 5 44711.8 1379.97 6
2 0 -5 44212.3 1900.96 4
-2 0 5 45847.8 1954.69 3
2 0 -5 49414.5 1445.46 7
-2 0 5 47317.8 1608.91 12
-2 0 4 114684. 2797.62 12
-2 0 4 108588. 3094.29 3
2 0 -4 103356. 3023.00 3
-2 0 4 108404. 2500.00 6
2 0 -4 108879. 3125.51 4
2 0 -4 110992. 2104.92 5
-2 0 3 259488. 4959.34 2
2 0 -3 252868. 5552.09 4
-2 0 3 245687. 5436.12 3
2 0 -3 257150. 5438.94 3
-2 0 3 257380. 4971.02 6
-2 0 3 256644. 5281.87 12
2 0 -3 259337. 4773.31 5
2 0 -2 134430. 2813.97 2
2 0 -2 143171. 3280.36 12
-2 0 2 138113. 3236.37 12
-2 0 2 140925. 3307.55 4
2 0 -2 138926. 3340.81 4
2 0 -2 140188. 3225.07 3
-2 0 2 142993. 3285.26 8
-2 0 2 138135. 3031.66 6
2 0 -2 135426. 3030.00 6
2 0 -2 145072. 2972.29 5
-2 0 2 141287. 2845.84 2
2 0 -1 443220. 8368.35 4
2 0 -1 441047. 7989.73 2
2 0 -1 450248. 8425.88 11
-2 0 1 445372. 8451.32 8
-2 0 1 450099. 8335.00 4
2 0 -1 446432. 8492.49 12
2 0 -1 455622. 8481.71 8
-2 0 1 453737. 8002.23 2
-2 0 1 449865. 8286.03 6
2 0 -1 445934. 8305.62 6
2 0 0 365410. 6794.97 4
-2 0 0 360056. 6740.84 4
-2 0 0 361264. 7159.85 8
2 0 0 367124. 7166.88 8
2 0 0 361086. 6802.40 2
2 0 0 372921. 7043.08 6
2 0 0 377407. 7166.23 12
2 0 1 20713.0 1042.74 10
2 0 1 20307.0 709.879 4
-2 0 -1 21522.2 714.010 4
2 0 1 20568.2 1049.83 9
-2 0 -1 20560.4 991.161 11
2 0 1 22740.9 1012.60 7
2 0 1 18951.8 903.391 2
2 0 1 20784.2 984.803 12
-2 0 -1 20860.0 982.931 12
2 0 2 53919.0 1892.92 10
-2 0 -2 52080.1 1784.60 11
2 0 2 52105.9 1204.16 4
2 0 2 49778.5 1884.02 9
2 0 2 49521.0 1699.25 12
2 0 2 48645.9 1503.45 3
2 0 3 13895.9 917.071 11
2 0 3 12328.4 444.057 4
-2 0 -3 13031.4 865.523 11
2 0 3 12250.5 743.251 3
2 0 3 12027.9 786.198 12
2 0 4 36992.4 1202.11 1
2 0 4 37819.4 987.458 4
2 0 4 36756.8 1519.39 3
2 0 4 34975.4 1465.29 12
-2 0 -4 36014.8 1591.96 11
-2 0 -5 33221.8 1820.66 9
2 0 5 33327.0 1586.88 3
-2 0 -5 36624.6 1684.75 11
2 0 5 35390.1 1095.38 1
2 0 5 34309.1 1012.27 4
2 0 5 31817.3 1442.62 12
2 0 6 7064.60 440.596 4
-2 0 -6 7538.00 926.618 9
-2 0 -6 7135.16 750.195 11
2 0 6 7667.92 362.441 1
2 0 6 7442.60 786.094 3
-2 0 -7 59805.5 2871.21 9
2 0 7 57677.1 2539.61 3
-2 0 -7 59278.4 2444.09 11
-2 0 -8 1104.85 442.052 9
2 0 8 395.047 212.602 3
-2 0 -8 1096.60 364.678 11
2 0 9 3838.28 726.686 3
-2 0 -9 3763.66 617.419 11
-2 0 -10 809.752 434.607 9
2 0 10 164.289 320.067 3
2 0 11 202.927 308.205 3
2 1 -12 3614.34 780.052 4
2 1 -11 2669.65 639.289 4
-2 1 11 2321.15 655.825 3
2 1 -10 4884.21 806.218 4
-2 1 10 4184.47 820.564 3
2 1 -9 6578.52 894.360 4
-2 1 9 6186.47 933.216 3
2 1 -8 3660.34 403.605 11
2 1 -8 3685.92 626.929 4
2 1 -8 4556.96 478.914 7
-2 1 8 4246.83 720.970 3
2 1 -7 37973.5 1969.54 4
2 1 -7 45096.9 1469.03 7
-2 1 7 37328.0 2052.90 3
2 1 -6 2361.21 453.978 4
2 1 -6 1644.98 228.748 7
-2 1 6 1197.45 360.830 3
2 1 -5 20118.4 1237.84 4
2 1 -5 22131.6 736.238 7
-2 1 5 19817.9 1266.04 3
2 1 -4 18884.8 1104.64 4
-2 1 4 18425.5 1114.45 3
2 1 -4 18301.8 523.768 7
2 1 -4 18788.1 1051.44 3
-2 1 4 16905.7 847.506 6
2 1 -3 118775. 3135.95 4
2 1 -3 118913. 2821.34 12
2 1 -3 115174. 2645.78 11
2 1 -3 116237. 2917.45 3
-2 1 3 114588. 2768.84 6
2 1 -3 115644. 2470.03 6
-2 1 3 116198. 2485.92 5
-2 1 2 331709. 6473.56 4
2 1 -2 322305. 6142.20 2
2 1 -2 312214. 6468.23 4
-2 1 2 313872. 6204.26 8
2 1 -2 328550. 6340.79 12
2 1 -2 320399. 5646.84 7
2 1 -2 316370. 6160.66 3
2 1 -2 319067. 5992.03 6
-2 1 2 320932. 6254.64 6
-2 1 2 322787. 6056.52 5
-2 1 2 316746. 6406.86 12
2 1 -2 320701. 6166.54 11
-2 1 1 53840.7 1586.87 4
2 1 -1 49782.1 1602.64 4
2 1 -1 52402.2 1530.04 2
2 1 -1 52860.5 1363.24 3
-2 1 1 50013.4 1540.70 8
2 1 -1 52909.7 1520.24 6
-2 1 1 52562.5 1606.38 6
-2 1 1 54049.1 1570.79 5
2 1 -1 51741.8 1350.37 7
2 1 -1 51695.4 1650.92 12
2 1 -1 54054.5 1611.04 11
2 1 0 186703. 4080.09 11
-2 1 0 183447. 3693.02 4
-2 1 0 182384. 4113.03 10
2 1 0 174400. 3918.50 2
-2 1 0 186094. 3993.09 8
2 1 0 185901. 3861.74 7
-2 1 0 185134. 4025.25 6
-2 1 0 186808. 4072.05 12
2 1 0 183740. 3855.66 4
2 1 0 180067. 4075.30 12
2 1 1 113152. 2975.35 9
2 1 1 107623. 2519.90 4
2 1 1 110141. 2813.40 7
2 1 1 112585. 2868.35 2
2 1 1 114198. 2970.11 10
-2 1 -1 110950. 2841.12 6
2 1 1 114911. 2906.04 12
-2 1 -1 113340. 2244.96 4
-2 1 -1 113148. 2829.28 12
2 1 2 52447.7 1809.99 12
2 1 2 51463.7 1440.39 4
2 1 2 55105.2 1967.87 9
2 1 2 50960.6 1868.73 10
2 1 2 51792.9 1873.01 2
2 1 2 52918.6 1409.86 3
-2 1 -2 51203.9 1688.20 12
2 1 3 25667.3 1236.07 12
2 1 3 23161.9 1291.67 2
2 1 3 25149.1 1021.41 3
-2 1 -3 23851.8 1175.40 11
2 1 4 3961.69 572.679 2
2 1 4 3400.98 411.821 3
-2 1 -4 4289.96 504.101 11
-2 1 -5 375.586 166.402 11
2 1 5 398.547 194.917 3
2 1 5 308.470 83.6313 1
2 1 5 282.783 133.939 4
-2 1 -5 579.273 288.263 9
2 1 6 132015. 3178.43 4
-2 1 -6 137623. 4358.40 9
2 1 6 124053. 3733.45 3
-2 1 -6 125813. 3663.96 11
-2 1 -7 13553.2 1321.57 9
2 1 7 13260.4 1125.80 3
-2 1 -7 12489.2 1017.28 11
-2 1 -8 28413.4 2051.81 9
-2 1 -8 31211.1 1712.85 11
2 1 8 28449.5 1814.93 3
2 1 9 1190.74 504.718 2
-2 1 -9 1783.16 560.832 9
-2 1 -9 852.474 313.173 11
2 1 9 1182.56 448.468 3
-2 1 -10 23224.2 2080.71 9
2 1 10 23485.6 2130.18 2
2 1 10 21676.2 1815.16 3
2 1 11 764.810 386.595 3
2 2 -12 2262.14 603.283 4
2 2 -11 5786.14 928.736 4
-2 2 11 4299.55 903.775 3
2 2 -10 13653.5 1324.55 4
-2 2 10 10220.4 1287.93 3
2 2 -9 3236.71 648.110 4
-2 2 9 3374.11 677.304 3
2 2 -8 29308.1 902.835 11
2 2 -8 26427.3 1705.06 4
-2 2 8 25749.5 1846.31 3
2 2 -7 26699.6 863.202 11
-2 2 7 26423.7 1728.43 3
2 2 -7 25228.2 1581.93 4
2 2 -6 33105.9 1727.16 4
-2 2 6 33304.6 1828.40 3
-2 2 6 34761.3 878.033 5
2 2 -6 35719.8 892.525 5
2 2 -5 24361.6 1372.34 4
-2 2 5 24058.4 1432.80 3
-2 2 5 24445.3 790.108 5
2 2 -5 24965.1 808.447 11
2 2 -4 72124.4 2411.82 4
2 2 -4 67871.4 1923.76 12
2 2 -4 67267.6 2225.75 3
-2 2 4 69389.3 1718.30 5
2 2 -4 73020.0 1716.89 11
2 2 -3 24584.7 1036.15 12
-2 2 3 25056.0 722.944 2
2 2 -3 24298.8 1079.55 3
2 2 -3 26165.8 785.814 6
2 2 -3 26167.0 1268.22 4
-2 2 3 23813.4 1104.29 6
-2 2 3 24843.2 932.077 5
2 2 -3 26977.3 936.580 11
-2 2 2 8694.08 657.134 4
2 2 -2 7782.96 576.884 2
-2 2 2 7972.42 490.313 8
2 2 -2 8748.50 537.935 11
2 2 -2 8295.78 645.540 4
2 2 -2 8016.74 462.887 6
2 2 -2 8515.73 512.654 3
-2 2 2 7439.16 581.950 6
2 2 -2 8538.73 592.037 12
-2 2 2 8431.10 537.078 5
2 2 -1 31708.6 1202.86 11
-2 2 1 30486.8 1180.01 4
2 2 -1 30870.1 1245.60 4
2 2 -1 28688.2 1189.27 2
2 2 -1 32189.8 1264.25 12
-2 2 1 30680.1 1071.76 8
2 2 -1 29365.2 978.753 7
2 2 -1 31967.6 879.788 3
-2 2 1 31190.5 1241.25 6
-2 2 1 31433.3 1190.48 5
2 2 0 61090.7 1919.43 11
-2 2 0 60576.0 1650.03 4
2 2 0 58540.2 1805.02 4
-2 2 0 58691.4 1863.19 10
2 2 0 60187.4 1876.56 9
2 2 0 65889.0 1979.65 2
2 2 0 61265.6 1753.96 7
2 2 0 60146.7 1925.35 12
-2 2 0 60448.8 1879.40 6
-2 2 0 58244.5 1856.23 5
-2 2 0 59765.5 1891.15 12
2 2 1 27165.5 1099.01 4
2 2 1 29997.0 1286.21 9
2 2 1 27062.1 1259.21 2
2 2 1 28387.6 1218.91 7
-2 2 -1 28095.7 1218.05 10
-2 2 -1 27447.8 1193.38 6
-2 2 -1 26502.7 1150.17 12
-2 2 -1 26493.6 1211.49 5
-2 2 -1 27448.2 849.690 4
2 2 1 28335.7 1265.56 12
2 2 1 30046.9 1275.77 10
-2 2 -2 12031.4 840.769 9
2 2 2 12263.2 839.995 10
2 2 2 11812.4 834.746 9
2 2 2 12211.3 874.092 2
2 2 2 12005.2 496.099 3
-2 2 -2 10825.9 756.405 6
-2 2 -2 12517.2 744.191 12
-2 2 -2 12306.7 829.184 5
-2 2 -3 114427. 3267.86 9
-2 2 -3 115391. 2843.76 12
2 2 3 107607. 3291.24 2
2 2 3 106880. 2548.28 3
-2 2 -3 101703. 3032.92 5
-2 2 -4 39285.1 1861.05 9
2 2 4 41871.9 1966.61 2
2 2 4 38483.4 1453.65 3
2 2 5 50694.3 1277.39 1
-2 2 -5 49891.3 2281.71 9
2 2 5 46995.5 2294.71 2
2 2 5 49586.1 1868.08 3
2 2 5 48694.4 1764.16 4
2 2 6 34651.5 1503.98 4
-2 2 -6 30363.0 1875.38 9
2 2 6 33288.4 1628.93 3
2 2 6 32573.9 1984.15 2
2 2 7 544.521 329.461 2
-2 2 -7 1068.54 377.288 9
2 2 7 857.126 307.401 3
2 2 8 3133.99 709.183 2
2 2 8 2701.16 536.300 3
-2 2 -8 3126.35 695.424 9
2 2 9 5163.72 939.517 2
-2 2 -9 4087.63 833.523 9
2 2 9 3064.92 638.901 3
2 2 10 9514.13 1346.69 2
-2 2 -10 5858.63 1060.20 9
2 2 10 6762.36 985.897 3
-2 3 12 2579.41 663.646 2
2 3 -11 14737.3 1455.63 4
-2 3 11 15268.1 1677.11 3
-2 3 11 11227.0 1267.59 2
-2 3 10 7112.66 921.232 2
2 3 -10 8058.32 1033.08 4
-2 3 10 7867.50 1139.88 3
2 3 -9 24137.7 1727.85 4
-2 3 9 24067.5 1892.37 3
2 3 -8 86447.2 3332.94 4
-2 3 8 85503.6 3558.13 3
-2 3 7 11153.4 1121.27 3
2 3 -7 10319.7 1010.01 4
2 3 -7 11659.1 553.722 5
-2 3 7 10469.0 520.619 5
2 3 -6 22383.5 1421.80 4
-2 3 6 23182.8 1182.24 2
2 3 -6 22907.1 889.283 5
-2 3 6 24187.6 896.576 5
2 3 -5 44109.6 1960.04 4
2 3 -5 44515.3 1415.56 12
-2 3 5 45232.4 1553.79 2
2 3 -5 46471.1 1050.12 11
-2 3 5 44232.8 1385.83 5
2 3 -4 10615.1 642.348 12
2 3 -4 10704.9 861.877 4
-2 3 4 10793.3 582.679 2
2 3 -4 11683.5 826.167 3
-2 3 4 10258.6 612.909 5
2 3 -4 10766.0 500.688 11
2 3 -3 121008. 2687.72 11
2 3 -3 113398. 3162.06 2
2 3 -3 120980. 3307.75 4
-2 3 3 119960. 2407.65 2
-2 3 3 118251. 2581.82 8
2 3 -3 119376. 2453.17 6
2 3 -3 120535. 2989.95 3
-2 3 3 116116. 2856.63 5
2 3 -3 119067. 2923.41 12
2 3 -2 84567.4 2283.12 11
2 3 -2 81653.0 2519.96 2
2 3 -2 92131.0 2650.80 4
-2 3 2 92949.5 2025.71 8
-2 3 2 96470.1 2689.84 4
-2 3 2 86545.7 2550.82 6
2 3 -2 88453.9 2434.40 12
2 3 -2 88940.1 2187.67 3
-2 3 2 87093.1 2383.87 5
-2 3 1 53093.3 1771.40 4
2 3 -1 54842.5 1765.62 11
2 3 -1 54956.7 1892.08 2
2 3 -1 53005.5 1859.26 4
2 3 -1 56498.5 1842.53 12
-2 3 1 50665.3 1815.99 6
-2 3 1 52067.7 1754.80 5
-2 3 0 77695.0 2106.78 4
2 3 0 80414.9 2380.67 11
2 3 0 76789.9 2381.75 8
-2 3 0 79255.4 2218.20 10
2 3 0 76043.6 2204.87 9
2 3 0 76395.7 2289.78 4
2 3 0 76447.4 2414.43 2
-2 3 0 73756.3 2290.05 6
-2 3 0 77145.2 2317.70 5
-2 3 -1 51339.6 1453.62 4
2 3 1 49064.6 1736.40 10
-2 3 -1 53890.7 1772.73 10
2 3 1 52712.6 1805.07 9
2 3 1 49881.2 1917.51 2
2 3 1 50729.4 1881.22 8
2 3 1 48849.0 1786.75 7
-2 3 -1 46645.1 1744.20 6
-2 3 -1 51200.0 1750.82 12
-2 3 -1 47769.0 1782.68 5
-2 3 -2 64650.0 1520.45 4
2 3 2 60553.4 2277.12 2
2 3 2 62088.2 2162.18 9
-2 3 -2 68086.3 2206.46 9
2 3 2 65145.0 2237.68 8
-2 3 -2 63265.3 2104.41 6
-2 3 -2 61743.5 2164.91 5
-2 3 -2 65013.4 1996.75 12
2 3 2 64728.5 2160.03 10
-2 3 -3 10573.2 705.131 12
2 3 3 11870.4 703.506 1
2 3 3 10816.3 938.508 2
2 3 3 11907.5 607.692 3
-2 3 -3 11373.8 884.844 9
-2 3 -3 10530.7 790.379 6
-2 3 -3 11548.8 882.379 5
2 3 4 5222.67 431.414 1
-2 3 -4 4521.21 613.394 9
2 3 4 3864.05 604.621 2
-2 3 -4 3950.91 533.449 5
2 3 4 4399.22 437.236 3
-2 3 -4 4392.25 442.309 12
2 3 5 56179.0 1525.26 1
2 3 5 58196.8 2594.38 2
2 3 5 56720.5 1996.21 3
-2 3 -5 58871.8 2477.40 9
-2 3 -6 24555.7 1642.11 9
2 3 6 20845.3 1597.62 2
2 3 6 21266.1 1267.69 3
2 3 7 4568.20 779.547 2
-2 3 -7 5749.54 859.288 9
2 3 7 4409.33 625.885 3
2 3 8 9551.98 1225.13 2
-2 3 -8 8226.03 1083.76 9
2 3 8 9482.61 1001.63 3
2 3 9 3087.04 737.964 2
-2 3 -9 1477.41 512.178 9
2 3 9 1915.77 489.525 3
-2 3 -10 2693.93 751.817 9
-2 4 11 4002.45 752.398 2
2 4 -11 4598.95 828.293 4
-2 4 10 5781.37 833.195 2
2 4 -10 5371.32 842.949 4
-2 4 9 2200.58 504.528 2
2 4 -9 2423.74 546.651 4
-2 4 8 1545.40 384.355 2
2 4 -8 1967.52 474.332 4
2 4 -7 75558.3 2994.25 4
-2 4 7 73806.4 2595.56 2
2 4 -7 78500.8 2125.72 5
-2 4 7 74692.4 2100.69 5
2 4 -6 20556.3 1386.98 4
-2 4 6 18976.1 1084.72 2
-2 4 6 18857.1 929.555 5
2 4 -5 13690.0 1070.62 4
-2 4 5 14630.9 841.727 2
2 4 -5 15134.8 764.579 12
-2 4 5 13795.5 812.877 5
2 4 -4 37010.3 1725.26 4
-2 4 4 33722.5 1354.78 5
2 4 -4 34705.5 818.584 6
2 4 -4 34029.4 1297.77 12
-2 4 4 33945.2 1194.00 2
2 4 -3 39693.1 1738.01 2
-2 4 3 38066.2 1147.32 2
2 4 -3 40904.6 1770.41 4
-2 4 3 39242.5 985.352 8
2 4 -3 38181.5 1291.99 11
2 4 -3 38434.9 1452.41 12
-2 4 3 39160.9 1503.31 5
2 4 -2 168586. 3831.21 11
-2 4 2 169246. 3308.85 2
2 4 -2 168364. 4260.19 2
2 4 -2 174022. 4294.70 4
-2 4 2 163968. 4198.23 6
-2 4 2 168182. 4013.90 5
2 4 -2 167093. 3991.57 12
-2 4 1 49628.1 1806.75 4
2 4 -1 48857.1 1737.81 11
2 4 -1 49072.3 1900.44 2
2 4 -1 48191.4 1863.80 4
-2 4 1 46026.2 1585.43 10
-2 4 1 44415.7 1789.63 6
-2 4 1 45160.9 1734.27 5
-2 4 0 5540.59 486.085 10
2 4 0 4428.04 515.173 1
-2 4 0 4619.14 469.477 4
2 4 0 4641.60 536.260 4
2 4 0 5021.20 586.090 2
-2 4 0 4426.83 511.121 6
-2 4 0 5353.56 566.887 5
2 4 0 4543.20 450.756 9
-2 4 -1 28327.1 1213.80 10
2 4 1 26227.4 1422.42 2
2 4 1 28325.1 1322.99 1
2 4 1 28518.9 1393.51 8
2 4 1 25552.1 1181.76 10
-2 4 -1 27132.1 1314.98 6
2 4 1 26333.8 1221.48 9
-2 4 -1 26903.8 1104.96 4
-2 4 -1 25192.9 1314.15 5
2 4 2 72852.8 2316.98 10
2 4 2 73328.6 2280.74 1
2 4 2 74254.7 2371.33 9
2 4 2 66409.9 2546.86 2
-2 4 -2 71306.4 2219.97 12
-2 4 -2 70087.6 2332.66 6
-2 4 -2 69402.3 2417.89 5
-2 4 -3 4904.93 490.751 12
-2 4 -3 5157.74 338.268 4
-2 4 -3 4611.95 564.665 9
2 4 3 5319.52 516.538 1
2 4 3 4699.65 646.805 2
-2 4 -3 5665.12 601.503 6
-2 4 -3 3348.14 513.652 5
2 4 4 4236.08 669.821 2
-2 4 -4 4857.77 277.089 4
-2 4 -4 4203.03 588.355 9
2 4 4 4951.23 472.327 1
-2 4 -4 5466.59 501.153 12
-2 4 -4 4788.99 620.412 5
2 4 5 6291.44 610.050 3
-2 4 -5 8203.84 884.510 9
2 4 5 6672.42 508.295 1
-2 4 -5 7883.74 823.285 5
2 4 5 7834.72 942.923 2
-2 4 -5 7669.75 574.656 12
-2 4 -6 3035.29 582.417 9
2 4 6 2205.32 403.803 3
-2 4 -6 2586.23 488.575 5
2 4 6 2223.28 572.438 2
-2 4 -7 900.601 407.250 9
2 4 7 648.836 275.999 3
2 4 7 694.417 361.324 2
-2 4 -8 2366.34 597.350 9
2 4 8 2092.34 588.251 2
2 4 8 1615.26 425.001 3
-2 4 -9 4266.83 830.000 9
2 4 9 4397.64 899.061 2
-2 4 -10 547.301 364.928 9
2 5 -11 4018.76 787.025 4
2 5 -10 875.218 364.907 4
-2 5 10 1632.59 468.046 2
-2 5 9 4476.87 693.918 2
2 5 -9 6012.13 872.723 4
2 5 -8 9742.63 1088.01 4
-2 5 8 9754.18 937.320 2
2 5 -7 82673.8 3240.48 4
2 5 -7 83630.2 2495.89 5
-2 5 7 81861.4 2800.87 2
-2 5 7 83700.7 2483.53 5
-2 5 6 43688.8 1793.67 2
2 5 -6 50306.6 2315.56 4
2 5 -6 46885.7 1419.35 12
-2 5 6 46380.8 1763.66 5
2 5 -5 1285.59 348.560 4
2 5 -5 522.640 159.819 12
-2 5 5 1182.60 256.311 2
-2 5 5 1373.25 294.139 5
2 5 -4 31624.2 1688.87 4
-2 5 4 34165.2 1278.77 2
2 5 -4 32962.2 1345.08 12
-2 5 4 31072.9 1428.22 5
2 5 -3 35218.7 1741.74 2
-2 5 3 36413.2 1235.29 2
2 5 -3 35559.1 1738.26 4
2 5 -3 36292.1 1487.96 12
-2 5 3 34580.0 1543.93 5
2 5 -2 49687.1 2087.96 2
2 5 -2 48076.1 2031.92 4
-2 5 2 50497.5 1469.89 2
-2 5 2 49842.4 2043.26 6
-2 5 2 50298.8 1938.80 5
-2 5 1 111734. 2824.67 10
2 5 -1 108388. 3374.93 2
-2 5 1 111597. 3230.24 5
2 5 -1 114668. 3365.27 4
-2 5 1 108402. 3257.87 6
-2 5 0 31915.0 1268.88 10
2 5 0 32326.4 1663.26 2
2 5 0 34509.0 1650.46 4
2 5 0 32209.7 1282.27 9
-2 5 0 31215.5 1524.84 6
-2 5 0 34472.8 1612.93 5
-2 5 -1 208683. 4505.63 10
2 5 1 195496. 4519.45 9
2 5 1 197718. 5200.67 2
-2 5 -1 199821. 4899.25 6
-2 5 -1 201953. 5014.33 5
2 5 2 19725.8 1092.31 10
2 5 2 18902.7 1087.54 9
2 5 2 19403.1 1354.67 2
-2 5 -2 20857.7 1210.45 6
-2 5 -2 20551.7 1273.80 5
-2 5 -3 82861.4 2141.24 4
-2 5 -3 82561.6 2668.44 9
2 5 3 78136.2 3057.41 2
-2 5 -3 80590.4 2661.39 6
-2 5 -3 79528.7 2851.80 5
-2 5 -4 17450.4 752.139 4
-2 5 -4 16298.4 928.376 12
-2 5 -4 17716.4 1204.98 9
2 5 4 17760.3 1395.78 2
2 5 4 16481.8 983.249 1
-2 5 -4 15837.5 1086.88 6
-2 5 -4 12041.5 1046.01 5
-2 5 -5 13425.9 602.412 4
-2 5 -5 13763.5 810.168 12
-2 5 -5 14170.5 1159.80 9
2 5 5 13217.4 1262.35 2
-2 5 -5 14369.6 1160.08 5
-2 5 -6 12382.0 1162.30 9
-2 5 -6 10941.4 1046.15 5
2 5 6 8900.82 1102.01 2
-2 5 -7 1079.50 397.946 9
-2 5 -7 2145.33 513.148 5
2 5 7 2552.38 632.575 2
-2 5 -8 4503.44 824.844 9
2 5 8 5381.78 955.141 2
-2 5 -9 7187.31 1088.84 9
2 5 9 6292.24 1097.08 2
2 6 -10 4109.38 811.678 4
2 6 -9 7537.00 1022.09 4
-2 6 9 9354.63 1010.38 2
2 6 -8 18301.8 1523.06 4
-2 6 8 17853.8 1318.16 2
2 6 -7 9239.69 1027.23 4
-2 6 7 8969.46 782.654 5
-2 6 7 9998.81 894.555 2
2 6 -7 8113.81 750.010 5
2 6 -6 3450.18 634.584 4
-2 6 6 3434.30 491.730 5
-2 6 6 2409.87 421.044 2
2 6 -5 2876.60 555.658 4
2 6 -5 4181.06 448.793 12
2 6 -5 3857.23 206.067 6
-2 6 5 3412.56 445.200 2
-2 6 5 3222.70 483.922 5
2 6 -4 34042.9 1833.85 4
-2 6 4 33598.1 1381.46 2
-2 6 4 31237.4 1565.55 5
2 6 -4 32969.1 1438.18 12
2 6 -3 23267.1 1501.95 2
-2 6 3 22837.4 1048.75 2
2 6 -3 23124.2 1454.89 4
-2 6 3 23882.6 1365.44 5
-2 6 2 14543.4 798.326 2
2 6 -2 15802.6 1173.82 4
2 6 -2 11377.2 1017.41 2
-2 6 2 12448.8 987.517 5
-2 6 1 2110.97 301.136 10
2 6 -1 2313.01 441.137 4
2 6 -1 2153.87 297.257 9
2 6 -1 2098.97 442.308 2
-2 6 1 1846.20 416.251 6
-2 6 1 1648.16 379.009 5
-2 6 0 1992.22 296.030 10
2 6 0 1397.73 251.411 9
2 6 0 1982.18 442.587 2
-2 6 0 2011.69 420.947 6
-2 6 0 1547.80 395.003 5
-2 6 -1 11166.4 716.749 10
2 6 1 11226.9 1054.87 2
2 6 1 10465.8 717.516 9
-2 6 -1 9119.29 838.694 6
-2 6 -1 10553.5 942.170 5
2 6 2 9823.26 752.602 10
2 6 2 10502.2 791.219 9
2 6 2 9492.99 981.745 2
-2 6 -2 9687.02 861.104 6
-2 6 -2 12278.4 1044.22 5
2 6 3 23986.7 1652.51 2
-2 6 -3 23715.2 1375.06 6
-2 6 -3 25648.5 1564.48 5
-2 6 -4 10577.2 915.157 9
2 6 4 9262.19 1057.94 2
-2 6 -4 8647.89 610.329 4
-2 6 -4 9429.50 855.808 6
-2 6 -4 6686.32 817.657 5
-2 6 -5 2916.25 565.689 5
2 6 5 2323.33 586.007 2
-2 6 -5 3019.53 536.602 9
-2 6 -6 22959.9 1599.18 9
2 6 6 25316.6 1928.97 2
-2 6 -6 21805.4 1570.07 5
-2 6 -7 2369.68 564.099 9
2 6 7 2884.13 682.142 2
-2 6 -7 3129.12 610.824 5
2 6 8 2604.10 712.901 2
-2 6 -8 2965.02 675.675 9
-2 6 -9 -339.033 309.436 9
2 7 -10 379.879 296.009 4
2 7 -9 9331.46 1162.79 4
2 7 -8 5265.17 858.340 4
-2 7 8 5462.69 742.927 2
2 7 -7 9987.14 1130.09 4
-2 7 7 12358.2 1043.46 2
2 7 -7 11011.7 957.417 5
-2 7 7 13021.4 1040.88 5
2 7 -6 12138.3 1208.17 4
-2 7 6 13334.1 1013.76 2
-2 7 6 9897.49 915.968 5
2 7 -5 12866.7 1188.58 4
-2 7 5 11859.1 896.198 2
-2 7 5 12385.7 1039.54 5
-2 7 4 6415.15 625.405 2
2 7 -4 7817.05 911.938 4
-2 7 4 8917.39 863.869 5
2 7 -3 50849.1 2405.84 2
-2 7 3 47700.6 1778.30 2
2 7 -3 52270.2 2392.81 4
-2 7 3 48650.7 2162.11 5
-2 7 2 33000.6 1405.61 2
-2 7 2 31851.7 1248.41 10
2 7 -2 32179.4 1832.84 4
2 7 -2 26354.9 1699.20 2
-2 7 2 30699.7 1701.54 5
2 7 -1 27273.2 1690.09 2
-2 7 1 26998.0 1068.02 10
2 7 -1 26945.7 1657.15 4
2 7 -1 24994.0 1019.82 9
-2 7 1 25797.6 1573.64 5
-2 7 1 25324.8 1559.83 6
2 7 0 26875.3 1699.56 2
-2 7 0 26013.3 1592.60 5
2 7 0 25081.2 1046.26 9
-2 7 0 23927.0 1509.96 6
-2 7 0 26031.9 1054.31 10
2 7 1 17801.7 1420.95 2
2 7 1 16319.8 898.180 9
-2 7 -1 17863.7 1247.82 6
-2 7 -1 15836.0 1249.48 5
2 7 2 4330.75 711.444 2
-2 7 -2 3132.72 521.209 6
-2 7 -2 3990.12 635.251 5
2 7 3 13253.4 1278.05 2
-2 7 -3 13255.6 1071.12 6
-2 7 -3 14320.6 1227.52 5
-2 7 -3 13355.8 987.174 12
-2 7 -4 10447.6 770.937 4
2 7 4 12042.0 1251.74 2
-2 7 -4 10413.6 942.545 6
-2 7 -4 11851.7 1136.61 5
-2 7 -5 41321.3 2008.13 9
2 7 5 40894.7 2473.05 2
-2 7 -5 37860.1 1904.35 6
-2 7 -5 35427.7 2107.59 5
-2 7 -6 5871.61 843.183 5
-2 7 -6 7289.52 884.571 9
2 7 6 7638.52 1087.80 2
-2 7 -7 7040.28 947.205 9
2 7 7 5466.20 985.696 2
-2 7 -7 5886.16 871.734 5
-2 7 -8 15762.7 1500.57 9
-2 7 -8 13606.6 1358.39 5
2 7 8 12269.3 1546.67 2
-2 7 -9 16912.8 1681.12 9
2 8 -9 1611.89 503.089 4
2 8 -8 12626.6 1370.58 4
2 8 -7 11339.7 1253.15 4
2 8 -7 11453.2 1051.30 5
-2 8 7 8990.59 947.055 5
-2 8 6 18276.2 1255.92 2
-2 8 6 18196.2 1364.20 5
2 8 -6 16230.1 1455.65 4
2 8 -5 1764.21 515.027 4
-2 8 5 1033.76 297.140 2
-2 8 5 1168.16 359.660 5
2 8 -4 778.789 315.395 4
-2 8 4 1220.29 299.199 2
-2 8 4 532.973 248.877 5
2 8 -3 27696.8 1833.30 2
-2 8 3 25906.7 1642.78 5
2 8 -3 28718.3 1843.59 4
-2 8 3 24623.3 1324.43 2
-2 8 2 4957.56 421.151 10
-2 8 2 3615.08 615.911 5
2 8 -2 3697.73 648.385 4
-2 8 2 4631.72 555.306 2
2 8 -2 3601.64 663.376 2
2 8 -1 16088.1 1393.51 2
-2 8 1 15807.1 726.814 10
2 8 -1 16999.8 1387.86 4
-2 8 1 14996.2 1277.97 6
-2 8 1 17557.4 1379.77 5
-2 8 0 1638.40 458.591 5
2 8 0 1712.48 450.151 2
-2 8 0 2723.52 546.816 6
2 8 1 42500.8 2356.02 2
-2 8 -1 45491.3 2179.42 6
-2 8 -1 41905.6 2225.96 5
2 8 2 12664.6 1270.52 2
-2 8 -2 12201.1 1092.10 6
-2 8 -2 11146.3 1128.79 5
-2 8 -3 3550.07 582.666 6
-2 8 -3 3951.32 684.682 5
-2 8 -4 5044.69 791.575 5
-2 8 -4 4520.63 556.202 4
-2 8 -4 3993.81 611.223 6
2 8 4 5326.53 884.238 2
-2 8 -4 5768.60 641.717 12
-2 8 -5 6879.20 813.420 6
2 8 5 7104.78 1067.89 2
-2 8 -5 7245.08 966.915 5
-2 8 -6 2825.74 628.346 5
2 8 6 961.543 445.881 2
-2 8 -7 29.1692 282.179 5
2 8 7 -1.12401 241.332 2
-2 8 -8 4045.43 773.387 5
2 9 -9 482.099 374.679 4
2 9 -8 6500.25 1024.07 4
2 9 -7 1085.70 451.537 4
2 9 -7 1487.62 443.834 5
-2 9 7 2212.74 524.238 5
2 9 -6 1382.49 470.239 4
-2 9 6 943.592 348.723 5
-2 9 5 11394.7 1146.74 5
2 9 -5 12519.9 1318.37 4
-2 9 4 29102.7 1576.31 2
2 9 -4 31103.5 2066.68 4
-2 9 4 29554.6 1880.25 5
2 9 -3 10109.6 1174.56 2
-2 9 3 12136.1 967.615 2
-2 9 3 9962.24 1083.20 5
2 9 -3 11449.9 1207.58 4
2 9 -2 3562.57 698.519 4
-2 9 2 2394.94 445.436 2
2 9 -2 2424.01 600.237 2
-2 9 2 3375.86 645.636 6
-2 9 2 2304.29 533.819 5
-2 9 1 7316.81 955.716 5
2 9 -1 7018.42 958.605 4
2 9 -1 7047.20 971.823 2
-2 9 1 8787.32 1024.12 6
2 9 0 469.346 313.917 2
-2 9 0 89.7929 280.277 6
-2 9 0 804.704 337.426 5
2 9 1 18000.3 1576.50 2
-2 9 -1 17913.3 1433.59 6
-2 9 -1 18517.6 1533.81 5
-2 9 -2 3629.74 704.930 5
2 9 2 3485.38 720.822 2
-2 9 -2 5015.27 727.786 6
2 9 3 11422.3 1316.12 2
-2 9 -3 12256.2 1051.85 4
-2 9 -3 12467.8 1142.47 6
-2 9 -3 11985.9 1261.04 5
-2 9 -4 1981.91 475.220 6
2 9 4 955.620 386.279 2
-2 9 -4 1550.26 487.174 5
-2 9 -5 1730.98 440.383 6
2 9 5 1849.66 593.464 2
-2 9 -5 2214.76 581.974 5
2 9 6 11878.0 1483.65 2
-2 9 -6 10841.8 1263.74 5
-2 9 -7 9408.63 1204.61 5
2 10 -8 1282.93 509.852 4
2 10 -7 2903.74 712.871 4
-2 10 7 1729.19 498.018 5
2 10 -6 4457.13 787.525 5
2 10 -6 5591.86 941.541 4
-2 10 6 5403.94 857.776 5
2 10 -5 10243.1 1245.24 4
-2 10 5 8413.50 1068.14 5
2 10 -4 2314.85 627.119 4
-2 10 4 1981.59 549.385 5
2 10 -3 4556.48 830.554 4
2 10 -3 4170.86 818.348 2
-2 10 3 4262.74 779.867 5
2 10 -2 10694.6 1276.44 2
2 10 -2 8103.03 1078.70 4
-2 10 2 7246.61 1008.49 6
-2 10 2 9550.49 1117.22 5
2 10 -1 15346.8 1518.31 2
2 10 -1 16253.3 1546.48 4
-2 10 1 14199.1 1387.38 5
-2 10 1 14069.0 1356.75 6
2 10 0 4567.68 820.862 4
2 10 0 4817.39 856.544 2
-2 10 0 5215.27 823.985 6
-2 10 0 3362.07 704.672 5
2 10 1 20690.4 1786.17 2
-2 10 -1 20774.9 1608.45 6
-2 10 -1 18929.3 1657.19 5
-2 10 -2 8691.57 1126.40 5
2 10 2 6955.71 1058.88 2
-2 10 -2 8239.89 1004.62 6
-2 10 -3 8766.83 1150.94 5
-2 10 -3 8980.88 1027.55 6
2 10 3 9013.96 1224.81 2
2 10 4 1296.00 515.191 2
-2 10 -4 293.726 231.190 6
-2 10 -4 747.745 389.659 5
2 10 5 10034.1 1375.58 2
-2 10 -5 12269.1 1379.86 5
-2 11 6 2208.79 566.109 5
2 11 -6 1896.17 534.408 5
-2 11 5 1936.22 543.535 5
2 11 -5 1512.41 564.436 4
2 11 -4 1809.77 558.486 4
-2 11 4 1649.82 522.353 5
-2 11 3 522.497 351.280 5
2 11 -3 683.139 379.745 4
-2 11 3 1089.02 459.497 6
2 11 -2 4859.94 892.155 4
2 11 -2 5288.83 955.210 2
-2 11 2 5611.96 955.719 6
-2 11 2 4634.21 839.905 5
-2 11 1 2840.72 671.521 5
2 11 -1 3735.50 782.331 4
2 11 -1 2793.23 690.219 2
-2 11 1 3673.11 743.003 6
2 11 0 1989.89 583.382 4
2 11 0 1118.50 491.844 2
-2 11 0 1679.85 503.944 6
-2 11 0 1470.00 495.047 5
2 11 1 4949.03 903.860 2
-2 11 -1 6587.64 964.437 6
-2 11 -1 6333.40 993.250 5
2 11 2 625.333 472.404 2
-2 11 -2 -98.4461 257.589 6
-2 11 -2 -123.081 329.077 5
2 11 3 9191.13 1301.04 2
-2 11 -3 8098.69 1028.23 6
-2 12 1 11062.1 1359.55 6
-2 12 0 6137.48 978.727 6
-2 12 -1 2196.87 600.929 6
-2 12 -2 363.496 292.480 6
-3 -11 5 277.476 259.440 8
-3 -11 4 4356.77 825.480 8
3 -11 -3 5433.13 1001.84 1
-3 -11 3 3197.84 692.640 8
-3 -11 2 -730.109 355.733 8
-3 -11 0 6960.95 1005.64 11
-3 -11 -1 3344.47 713.241 7
-3 -11 -1 4102.85 831.894 11
-3 -11 -2 1507.32 495.220 11
-3 -11 -2 2393.96 632.161 7
-3 -11 -3 6299.38 1032.97 7
3 -10 -7 5443.03 933.358 1
3 -10 -6 4276.30 834.369 1
-3 -10 5 12051.1 1389.44 8
3 -10 -5 14175.5 1553.27 1
3 -10 -4 3660.09 759.832 1
-3 -10 4 5491.89 909.902 8
3 -10 -3 388.990 316.837 1
-3 -10 3 462.474 322.765 8
-3 -10 2 6104.99 890.178 8
3 -10 -2 7064.45 1077.55 1
-3 -10 1 1976.85 488.424 11
3 -10 -1 2343.98 668.018 1
-3 -10 1 2790.86 608.228 8
3 -10 0 6688.03 1064.01 1
-3 -10 0 6041.33 890.286 11
-3 -10 0 6497.03 897.652 8
-3 -10 0 6585.57 893.825 7
3 -10 1 4606.74 905.789 1
-3 -10 -1 5446.42 894.228 11
-3 -10 -1 5240.82 791.591 8
-3 -10 -1 5068.80 825.409 7
-3 -10 -2 5591.46 941.167 11
-3 -10 -2 3588.14 751.689 7
3 -10 2 5355.98 937.344 1
3 -10 3 4411.67 878.389 1
-3 -10 -3 3660.35 812.952 11
-3 -10 -3 4250.70 812.419 7
-3 -10 -4 4851.23 937.258 7
3 -10 4 4767.97 929.135 1
-3 -9 8 7799.01 1125.53 3
3 -9 -7 3936.27 756.176 1
-3 -9 7 3275.48 698.713 3
3 -9 -6 1717.39 532.221 1
-3 -9 6 1821.07 501.959 3
3 -9 -5 7115.95 1003.24 1
-3 -9 5 5842.17 929.841 8
-3 -9 5 6010.75 794.302 3
-3 -9 4 16508.6 1512.78 8
3 -9 -4 17678.5 1602.54 1
3 -9 -3 3018.88 684.128 1
-3 -9 3 3388.71 680.097 8
-3 -9 2 13933.5 1163.51 11
-3 -9 2 13292.6 1283.15 8
-3 -9 2 13960.1 1109.21 7
3 -9 -2 14390.5 1446.81 1
-3 -9 1 11776.6 1139.64 11
-3 -9 1 10218.3 1098.70 8
-3 -9 1 10655.0 1027.08 7
3 -9 -1 10641.2 1240.77 1
-3 -9 0 12964.1 1257.36 11
-3 -9 0 13969.7 1269.34 8
-3 -9 0 14110.7 1242.70 7
3 -9 0 15134.9 1498.13 1
-3 -9 -1 4424.80 758.408 11
3 -9 1 6785.09 1036.75 1
-3 -9 -1 4826.93 740.748 8
-3 -9 -1 4825.82 758.527 7
3 -9 2 3676.41 769.627 1
-3 -9 -2 3177.85 711.524 11
-3 -9 -2 2539.55 540.690 8
-3 -9 -2 2319.22 550.282 7
3 -9 3 2466.10 656.990 1
-3 -9 -3 996.506 421.290 11
-3 -9 -3 1210.54 418.583 7
-3 -9 -4 732.363 400.929 11
-3 -9 -4 731.318 342.744 7
3 -9 4 183.811 173.731 1
-3 -9 -5 7200.61 1125.43 7
3 -9 5 7806.85 1138.75 1
3 -9 6 1543.70 554.779 1
3 -8 -9 30444.0 2388.03 7
-3 -8 9 30704.5 2335.47 3
-3 -8 8 869.830 380.829 3
3 -8 -7 68.5568 169.470 1
-3 -8 7 296.940 243.568 3
3 -8 -6 423.241 299.533 1
-3 -8 6 288.419 205.726 3
-3 -8 5 15537.0 1244.85 3
3 -8 -5 12165.3 1256.97 1
-3 -8 4 24241.3 1767.56 8
-3 -8 4 23149.6 1417.31 3
3 -8 -4 20286.7 1652.14 1
-3 -8 3 26349.0 1324.39 10
-3 -8 3 28424.7 1869.06 8
-3 -8 3 24792.1 1297.50 7
-3 -8 3 24240.5 1338.69 3
3 -8 -3 27233.7 1903.81 1
-3 -8 3 25236.3 1414.13 11
-3 -8 2 2119.05 443.646 11
-3 -8 2 1983.41 354.543 10
3 -8 -2 2662.54 605.502 1
-3 -8 2 1045.69 355.817 8
-3 -8 2 2445.65 431.865 7
-3 -8 1 21993.1 1137.31 10
-3 -8 1 21097.4 1546.60 8
-3 -8 1 21494.2 1378.93 7
3 -8 -1 22495.4 1732.78 1
-3 -8 1 20836.9 1445.09 11
-3 -8 0 31100.9 1868.37 11
-3 -8 0 31683.0 1401.00 10
-3 -8 0 27424.7 1761.75 8
-3 -8 0 26666.6 1647.58 7
3 -8 0 29348.9 1990.10 1
-3 -8 -1 38978.7 2246.38 11
-3 -8 -1 44052.7 2226.23 8
-3 -8 -1 40214.3 2143.25 7
3 -8 1 40012.0 2373.49 1
-3 -8 -2 8009.59 1032.69 11
3 -8 2 8245.50 1063.37 1
-3 -8 -2 9460.96 1012.23 8
-3 -8 -2 8737.45 1007.95 7
-3 -8 -3 4092.38 795.136 11
3 -8 3 3125.07 650.022 1
-3 -8 -3 2346.70 563.907 7
3 -8 4 1630.54 508.410 1
-3 -8 -4 1593.86 548.796 11
-3 -8 -4 1205.78 439.454 7
3 -8 5 3339.93 759.594 3
-3 -8 -5 3264.30 719.860 7
-3 -8 -5 4129.98 843.704 11
3 -8 5 3153.15 699.435 1
-3 -8 -6 3316.46 776.241 7
3 -8 6 2010.73 544.460 1
3 -7 -10 2177.11 645.632 7
-3 -7 10 1787.60 603.783 3
3 -7 -9 3247.23 738.525 7
-3 -7 9 1819.22 568.718 3
3 -7 -8 611.214 313.146 1
-3 -7 8 499.594 326.831 3
3 -7 -7 1505.30 468.390 1
-3 -7 7 2037.27 519.281 3
-3 -7 6 18903.4 1445.91 3
3 -7 -6 16740.4 1402.48 1
-3 -7 5 13784.4 1136.78 3
3 -7 -5 12269.8 1198.69 1
-3 -7 4 2432.56 574.967 8
3 -7 -4 2645.21 563.563 1
-3 -7 4 2461.52 449.415 3
-3 -7 4 2370.22 363.373 11
-3 -7 3 17535.6 1090.03 10
-3 -7 3 16517.9 1389.54 8
-3 -7 3 17069.8 956.588 7
-3 -7 3 17228.8 1059.20 3
-3 -7 3 15525.4 1038.36 11
3 -7 -3 18251.2 1454.75 1
-3 -7 2 1788.31 383.094 11
-3 -7 2 2957.72 430.595 10
-3 -7 2 3129.29 565.707 8
-3 -7 2 2717.22 357.673 3
-3 -7 2 2882.86 430.325 7
3 -7 -2 2283.86 531.165 1
-3 -7 1 29111.7 1651.37 11
-3 -7 1 29050.9 1756.77 8
-3 -7 1 28141.7 1484.53 7
-3 -7 1 30871.0 1089.33 3
3 -7 -1 28103.2 1849.72 1
-3 -7 1 29882.4 1395.38 10
-3 -7 0 74959.7 2967.72 11
-3 -7 0 82674.8 2549.03 10
-3 -7 0 74178.2 2955.00 8
-3 -7 0 74039.7 2761.84 7
3 -7 0 75583.1 3188.16 1
-3 -7 -1 31423.8 1806.97 8
-3 -7 -1 29020.2 1697.46 7
3 -7 1 29166.2 1897.56 1
-3 -7 -1 30113.4 1849.40 11
-3 -7 -2 5296.88 801.591 11
3 -7 2 5564.39 821.217 1
-3 -7 -2 4285.86 672.254 8
-3 -7 -2 6201.41 823.807 7
-3 -7 -3 835.934 398.022 11
3 -7 3 1163.20 382.308 1
-3 -7 -3 1038.05 399.409 7
-3 -7 -4 1964.42 542.878 11
3 -7 4 2257.00 550.415 1
-3 -7 -4 1403.41 464.429 7
3 -7 5 3357.17 659.657 1
3 -7 5 5139.46 900.729 3
-3 -7 -5 3511.16 736.912 11
-3 -7 -5 3076.35 685.577 7
3 -7 6 1311.31 499.094 3
-3 -7 -6 2516.81 683.218 11
-3 -7 -6 2022.76 525.015 9
-3 -7 -6 1654.95 521.376 7
3 -7 6 1296.03 451.864 1
3 -7 7 1926.00 628.849 3
-3 -7 -7 1162.88 437.085 9
-3 -7 -8 -179.364 266.345 9
3 -6 -11 2327.44 668.076 7
3 -6 -10 4839.03 888.694 7
-3 -6 10 6490.76 1083.83 3
3 -6 -9 1224.79 444.622 7
-3 -6 9 440.992 344.509 3
3 -6 -8 3733.42 612.261 1
-3 -6 8 3834.35 734.681 3
-3 -6 7 21644.1 1627.98 3
3 -6 -7 21348.5 1510.40 1
-3 -6 6 796.283 317.026 3
3 -6 -6 154.008 216.578 1
3 -6 -5 19692.3 1450.22 1
-3 -6 5 20808.0 1358.29 3
-3 -6 4 7072.92 419.490 7
-3 -6 4 8691.85 783.050 3
3 -6 -4 5553.87 768.399 1
-3 -6 4 7475.02 599.592 11
-3 -6 3 37750.1 2022.38 8
-3 -6 3 33480.2 1249.84 7
-3 -6 3 36501.4 1526.56 3
3 -6 -3 39383.4 2060.01 1
-3 -6 3 33291.5 1495.83 11
-3 -6 2 3571.68 501.468 11
-3 -6 2 3354.71 476.009 10
3 -6 -2 3649.76 318.742 2
-3 -6 2 3052.75 548.653 8
-3 -6 2 3012.38 394.814 7
-3 -6 2 3535.78 386.945 3
3 -6 -2 3655.02 626.810 1
-3 -6 1 30483.4 1599.13 11
-3 -6 1 28661.5 1397.66 10
3 -6 -1 30420.2 1152.54 2
-3 -6 1 30003.7 1729.10 8
3 -6 -1 31544.1 1145.37 8
-3 -6 1 29679.0 1418.17 7
-3 -6 1 30323.1 981.246 3
3 -6 -1 28106.5 1759.64 1
-3 -6 0 27302.9 1374.98 10
3 -6 0 28343.4 1223.11 2
-3 -6 0 30143.3 1661.82 11
3 -6 0 27936.2 1232.12 8
-3 -6 0 29627.8 1699.37 8
-3 -6 0 24822.4 1410.73 7
3 -6 0 26790.5 1720.02 1
-3 -6 -1 6062.76 780.123 11
-3 -6 -1 4063.33 530.993 10
-3 -6 -1 4521.72 656.993 8
-3 -6 -1 4223.96 611.422 7
3 -6 1 3798.51 628.624 1
3 -6 1 4505.45 530.091 2
-3 -6 -2 19027.8 1454.89 11
-3 -6 -2 17394.7 1309.26 7
-3 -6 -2 18362.8 1345.92 8
3 -6 2 18493.1 1409.54 1
-3 -6 -3 72612.3 3126.26 11
-3 -6 -3 70571.4 2957.04 7
3 -6 3 71176.0 2972.92 1
-3 -6 -4 13342.5 1312.54 11
-3 -6 -4 13944.7 1301.14 7
3 -6 4 13128.1 1198.34 1
-3 -6 -5 10725.6 1236.83 11
3 -6 5 10020.4 1176.86 3
-3 -6 -5 9196.63 1047.22 9
-3 -6 -5 10657.8 1203.15 7
3 -6 5 9152.04 1011.08 1
-3 -6 -6 4647.65 853.453 11
3 -6 6 4976.50 767.636 1
-3 -6 -6 5157.42 847.306 9
-3 -6 -6 5802.48 936.858 7
3 -6 6 7105.62 1031.60 3
-3 -6 -7 2029.01 635.108 11
-3 -6 -7 1946.79 565.419 9
-3 -6 -7 1974.36 611.746 7
3 -6 7 1762.69 552.762 3
-3 -6 -8 4209.54 845.962 9
3 -5 -11 5039.26 873.920 7
3 -5 -10 3958.95 752.323 7
-3 -5 10 4014.10 852.767 3
3 -5 -9 19342.3 1588.95 7
-3 -5 9 17146.6 1628.02 3
-3 -5 8 13551.8 1338.90 3
3 -5 -8 10392.9 994.146 1
-3 -5 7 10223.4 1086.34 3
3 -5 -7 7948.75 859.988 1
-3 -5 6 25275.8 1604.00 3
3 -5 -6 26217.9 1598.20 1
3 -5 -5 13614.9 1134.78 1
-3 -5 5 12090.9 1006.86 3
3 -5 -4 3649.40 593.803 1
-3 -5 4 2501.00 417.750 3
3 -5 -3 11831.7 1050.47 1
-3 -5 3 11469.7 1058.18 8
-3 -5 3 12881.7 611.626 7
-3 -5 3 14851.4 887.324 3
-3 -5 3 13156.4 848.948 11
-3 -5 2 4149.02 515.202 10
3 -5 -2 4161.88 622.944 1
-3 -5 2 4076.99 504.446 11
3 -5 -2 3604.71 222.948 2
-3 -5 2 3662.23 602.493 8
-3 -5 2 4678.13 431.283 7
-3 -5 2 4171.34 398.591 3
-3 -5 1 90467.9 2779.39 10
3 -5 -1 87363.6 2096.60 2
-3 -5 1 90612.5 3130.33 8
3 -5 -1 86989.7 2353.41 8
-3 -5 1 92338.2 2610.66 7
-3 -5 1 89026.6 1905.92 3
-3 -5 1 89075.3 2854.12 11
3 -5 -1 85649.3 3115.48 1
3 -5 0 2152.90 451.509 1
-3 -5 0 2440.56 466.349 11
-3 -5 0 1759.07 361.123 10
3 -5 0 2912.68 388.218 8
-3 -5 0 2297.02 452.243 8
-3 -5 0 3101.23 456.928 7
3 -5 0 2624.02 320.266 2
-3 -5 -1 35389.1 1852.03 11
3 -5 1 41171.1 1575.16 2
-3 -5 -1 36774.8 1688.51 10
-3 -5 -1 37745.5 1905.89 8
-3 -5 -1 39284.5 1802.94 7
3 -5 1 38882.2 1974.41 1
-3 -5 -2 29367.2 1754.63 11
-3 -5 -2 29753.5 1545.79 10
-3 -5 -2 30041.7 1702.38 8
-3 -5 -2 28439.5 1618.54 7
3 -5 2 29469.7 1701.10 1
-3 -5 -3 12196.8 1102.57 7
-3 -5 -3 12522.7 1184.42 11
3 -5 3 11767.6 1072.83 1
-3 -5 -4 13639.3 1283.17 11
-3 -5 -4 15768.4 1273.34 9
-3 -5 -4 14510.6 1281.46 7
3 -5 4 11924.2 1086.42 1
3 -5 5 115.989 167.073 3
-3 -5 -5 296.276 321.351 11
3 -5 5 101.028 140.771 1
-3 -5 -5 115.700 158.339 9
-3 -5 -5 -161.240 287.387 7
3 -5 6 3509.70 598.589 1
-3 -5 -6 3442.44 696.080 11
-3 -5 -6 3838.11 721.403 9
-3 -5 -6 3455.34 717.466 7
3 -5 6 5162.51 868.593 3
-3 -5 -7 46.0836 262.836 11
-3 -5 -7 663.711 387.904 9
-3 -5 -7 56.0122 211.249 7
3 -5 7 -231.707 288.691 3
-3 -5 -8 4728.50 892.209 11
3 -5 8 3660.64 792.274 3
-3 -5 -8 4197.31 855.492 7
-3 -5 -8 5292.01 953.381 9
-3 -4 11 1747.56 627.374 3
3 -4 -10 6989.00 928.488 7
-3 -4 10 5346.37 964.389 3
3 -4 -9 5616.07 703.052 1
3 -4 -9 4030.36 699.584 7
-3 -4 9 5777.28 928.572 3
3 -4 -8 9913.38 933.811 1
3 -4 -8 11158.5 1087.37 7
-3 -4 8 11146.4 1204.57 3
3 -4 -7 11710.4 1022.86 1
-3 -4 7 12167.4 1177.57 3
3 -4 -6 346.737 228.704 1
-3 -4 6 40.8203 132.400 3
3 -4 -5 21716.2 1388.17 1
-3 -4 5 21706.3 1329.00 3
3 -4 -4 2468.18 460.809 1
-3 -4 4 1165.99 292.834 3
3 -4 -3 16917.0 1209.30 1
-3 -4 3 18986.0 1300.86 8
-3 -4 3 19143.7 996.432 3
-3 -4 3 18380.6 986.030 11
3 -4 -2 13769.1 1077.12 1
-3 -4 2 12949.4 870.078 11
-3 -4 2 13824.3 1077.67 8
-3 -4 2 13752.9 682.274 7
-3 -4 2 13873.8 706.529 3
3 -4 -1 54467.3 2279.59 1
-3 -4 1 58030.2 2104.79 10
3 -4 -1 57049.7 1342.39 2
-3 -4 1 53751.0 2255.44 8
3 -4 -1 56148.9 1807.69 8
-3 -4 1 56709.4 1809.62 7
-3 -4 1 54400.3 2055.16 11
-3 -4 0 8595.42 794.966 11
3 -4 0 8294.64 818.503 1
3 -4 0 9013.30 543.022 2
-3 -4 0 9163.74 784.723 10
3 -4 0 8832.38 687.387 8
-3 -4 0 8244.15 818.868 8
-3 -4 0 8106.79 676.859 7
-3 -4 -1 2687.73 430.568 10
3 -4 1 1956.48 411.086 1
-3 -4 -1 2526.06 450.001 11
-3 -4 -1 2110.76 430.364 8
-3 -4 -1 1982.68 370.008 7
-3 -4 -2 13256.2 1091.96 11
-3 -4 -2 11808.5 950.999 10
-3 -4 -2 13538.4 1103.57 8
-3 -4 -2 12036.6 981.935 7
3 -4 2 12116.6 1005.81 1
-3 -4 -3 11426.0 1069.93 11
-3 -4 -3 14801.3 1167.81 7
3 -4 3 12464.1 1034.17 1
-3 -4 -4 15660.4 1309.63 11
-3 -4 -4 11708.1 1091.06 9
-3 -4 -4 11801.1 1109.76 7
3 -4 4 13310.2 1077.10 1
-3 -4 -5 77253.3 3287.48 11
-3 -4 -5 85069.7 3358.91 9
-3 -4 -5 82506.1 3361.84 7
3 -4 5 81239.0 2916.56 1
3 -4 5 82173.2 3291.70 3
3 -4 6 462.626 249.173 1
-3 -4 -6 65.6410 206.698 11
3 -4 6 122.058 235.573 3
-3 -4 -6 254.019 256.134 9
-3 -4 -6 149.193 226.674 7
-3 -4 -7 6763.79 982.743 11
-3 -4 -7 7367.97 1050.25 9
-3 -4 -7 6218.86 968.302 7
3 -4 7 6445.10 966.360 3
-3 -4 -8 14041.3 1533.99 7
-3 -4 -8 16338.0 1658.56 9
3 -4 8 15781.4 1600.72 3
-3 -4 -8 16510.3 1612.83 11
-3 -4 -9 4301.13 856.262 11
3 -4 9 3881.87 838.829 3
-3 -3 11 3068.83 764.018 3
3 -3 -10 7236.56 877.062 7
-3 -3 10 8442.59 1180.74 3
3 -3 -9 20487.6 1322.27 1
3 -3 -9 18122.9 1358.02 7
-3 -3 9 17405.5 1613.09 3
3 -3 -8 8651.92 1083.63 4
3 -3 -8 10809.6 954.255 1
3 -3 -8 10603.8 993.159 7
-3 -3 8 9477.03 1091.82 3
3 -3 -7 2137.23 537.292 4
3 -3 -7 1783.46 387.251 1
-3 -3 7 1502.58 429.214 3
3 -3 -6 48525.6 2393.80 4
-3 -3 6 50906.2 2274.67 3
3 -3 -6 44266.0 2027.72 1
3 -3 -5 7367.81 854.861 4
3 -3 -5 8690.00 834.012 1
-3 -3 5 8748.50 824.219 3
3 -3 -4 3664.05 571.909 4
3 -3 -4 2854.66 465.393 1
-3 -3 4 2959.54 435.278 3
3 -3 -3 47785.0 2022.06 4
3 -3 -3 44309.3 1977.44 1
-3 -3 3 47850.0 2080.66 8
-3 -3 3 47150.8 1660.42 3
3 -3 -3 42440.8 1641.53 5
3 -3 -2 34282.3 1698.60 1
-3 -3 2 36184.2 1735.71 8
-3 -3 2 37181.0 1241.15 3
3 -3 -2 35684.2 1623.56 4
-3 -3 2 35109.9 1474.83 11
-3 -3 1 63643.4 2257.93 10
3 -3 -1 61355.7 2355.22 1
-3 -3 1 63656.8 2400.00 8
3 -3 -1 62842.9 2010.57 8
3 -3 -1 64241.2 1355.79 2
3 -3 -1 64651.4 1372.07 2
-3 -3 1 65785.2 1884.96 7
-3 -3 1 63171.4 2166.37 11
-3 -3 0 42634.5 1762.14 10
3 -3 0 38808.1 1799.99 1
-3 -3 0 40369.1 1853.50 8
3 -3 0 39918.1 1600.39 8
-3 -3 0 38520.8 1518.34 7
-3 -3 0 39956.4 1732.75 11
3 -3 1 97630.7 3139.49 1
-3 -3 -1 109753. 3188.50 10
-3 -3 -1 102167. 3287.17 8
-3 -3 -1 100659. 2986.71 7
-3 -3 -1 109746. 3282.11 11
-3 -3 -2 39621.9 1916.58 11
3 -3 2 40016.2 1801.48 1
-3 -3 -2 43474.8 1908.98 10
-3 -3 -2 42325.9 1966.32 8
-3 -3 -2 38172.4 1780.52 7
-3 -3 -3 21794.7 1447.31 11
3 -3 3 21113.6 1270.68 1
-3 -3 -3 21825.9 1420.59 9
-3 -3 -3 21307.6 1371.44 7
-3 -3 -4 38197.5 2025.86 11
-3 -3 -4 37693.4 1980.50 7
3 -3 4 39824.1 1971.66 3
3 -3 4 35974.1 1707.36 1
-3 -3 -4 37641.9 2005.85 9
-3 -3 -5 5634.62 796.294 11
-3 -3 -5 4914.17 749.698 9
3 -3 5 5045.75 614.663 1
-3 -3 -5 4850.71 761.498 7
3 -3 5 6057.34 784.561 3
-3 -3 -6 18996.4 1537.98 11
-3 -3 -6 15346.8 1433.32 9
-3 -3 -6 17395.5 1480.71 7
3 -3 6 15425.1 1068.00 1
3 -3 6 15691.4 1357.69 3
-3 -3 -7 3348.56 707.980 9
-3 -3 -7 2589.46 626.445 7
-3 -3 -7 2462.38 599.426 11
3 -3 7 2925.45 636.742 3
-3 -3 -8 3787.62 743.381 11
-3 -3 -8 4737.76 897.984 9
-3 -3 -8 4854.51 884.590 7
3 -3 8 3956.04 765.765 3
-3 -3 -9 8918.56 1297.18 9
3 -3 9 10572.3 1332.50 3
-3 -3 -9 11764.9 1350.88 11
-3 -2 11 429.260 329.754 3
3 -2 -10 555.615 351.598 4
-3 -2 10 816.933 372.243 3
3 -2 -9 41573.5 2478.19 4
3 -2 -9 38938.8 1867.07 1
3 -2 -9 39875.1 1903.71 7
-3 -2 9 37064.2 2375.53 3
3 -2 -8 15839.1 1431.68 4
-3 -2 8 15176.5 1394.74 3
3 -2 -8 17007.6 1151.91 7
-3 -2 8 15760.9 928.152 12
3 -2 -7 55345.7 2673.10 4
-3 -2 7 56652.1 2621.45 3
3 -2 -7 62675.1 2286.20 7
-3 -2 7 61068.7 2033.44 12
3 -2 -6 1907.94 442.505 4
-3 -2 6 1056.95 339.326 3
-3 -2 6 1858.96 325.038 12
3 -2 -5 23757.2 1511.94 4
-3 -2 5 28861.1 1319.94 12
-3 -2 5 25655.8 1444.09 3
-3 -2 4 3231.61 424.480 12
3 -2 -4 2981.82 486.362 4
3 -2 -4 3611.93 377.150 5
-3 -2 4 3113.27 459.550 3
3 -2 -3 26515.1 1432.39 4
-3 -2 3 29749.5 1346.16 2
-3 -2 3 24873.4 1413.51 8
-3 -2 3 30631.1 1300.14 3
3 -2 -3 30026.3 1233.75 5
-3 -2 3 27205.6 1324.42 12
3 -2 -2 43749.2 1755.09 4
-3 -2 2 45369.2 1691.29 2
-3 -2 2 43269.3 1870.36 8
3 -2 -2 43291.6 1617.02 5
-3 -2 2 44288.4 1769.70 12
3 -2 -1 33106.7 1395.39 4
-3 -2 1 34727.7 1566.65 10
3 -2 -1 33989.8 906.951 2
-3 -2 1 31872.5 1569.95 8
3 -2 -1 36112.0 1456.21 8
-3 -2 1 33869.3 1457.97 2
-3 -2 1 34500.2 1474.58 11
-3 -2 0 3145.57 459.509 10
3 -2 0 3060.11 357.953 4
-3 -2 0 3225.31 460.422 11
-3 -2 0 2348.13 422.566 8
3 -2 0 2776.52 399.254 8
3 -2 0 2581.84 284.953 2
-3 -2 -1 22057.4 1262.15 10
3 -2 1 21148.6 1228.12 1
-3 -2 -1 24175.9 1368.18 8
-3 -2 -1 21927.8 1164.52 7
-3 -2 -1 22039.4 1271.31 11
-3 -2 -2 12897.5 1005.92 10
3 -2 2 11893.6 894.296 1
-3 -2 -2 13351.8 964.510 7
-3 -2 -2 13255.3 1020.41 11
3 -2 3 25717.9 1336.74 1
-3 -2 -3 27858.2 1560.40 10
-3 -2 -3 25871.6 1548.52 9
-3 -2 -3 25662.7 1520.08 11
-3 -2 -3 25928.2 1494.42 7
-3 -2 -4 7384.15 877.756 9
3 -2 4 7691.66 705.301 1
-3 -2 -4 6665.91 789.024 7
3 -2 4 9571.82 878.600 3
-3 -2 -4 7531.59 839.972 11
-3 -2 -5 81155.0 3254.19 9
-3 -2 -5 74973.6 3068.57 7
3 -2 5 75307.4 2893.36 3
3 -2 5 76055.7 2487.27 1
-3 -2 -5 77929.9 3059.23 11
-3 -2 -6 53768.7 2745.42 9
-3 -2 -6 52688.6 2633.65 7
3 -2 6 51136.2 1926.87 1
3 -2 6 51913.1 2452.59 3
-3 -2 -6 57323.1 2662.79 11
-3 -2 -7 4469.33 822.143 9
-3 -2 -7 3841.95 742.016 7
3 -2 7 4729.72 750.336 3
-3 -2 -7 6246.50 864.980 11
-3 -2 -8 24027.5 1997.82 9
3 -2 8 19004.1 1639.12 3
-3 -2 -8 19244.9 1631.26 11
3 -2 9 16903.1 1638.14 3
-3 -2 -9 17312.9 1600.50 11
-3 -2 -10 2216.99 614.290 11
3 -2 10 2268.27 675.065 3
3 -1 -12 3392.64 796.363 4
3 -1 -11 5354.93 959.219 4
-3 -1 11 3249.43 781.159 3
3 -1 -10 1901.67 571.743 4
-3 -1 10 2256.47 643.158 3
3 -1 -9 182.516 208.650 4
3 -1 -9 828.387 264.623 7
-3 -1 9 959.678 423.151 3
3 -1 -8 30159.6 1986.08 4
-3 -1 8 32089.3 2048.94 3
3 -1 -8 29828.3 1423.17 7
-3 -1 8 31825.6 1032.56 6
-3 -1 8 34986.5 1516.41 12
3 -1 -7 31950.4 1943.04 4
-3 -1 7 35842.3 2016.41 3
3 -1 -7 32252.3 1444.56 7
-3 -1 7 34789.0 1110.10 6
-3 -1 7 35629.5 1532.78 12
3 -1 -6 3388.85 579.013 4
-3 -1 6 2849.90 289.261 6
-3 -1 6 2112.28 475.142 3
-3 -1 6 2978.17 427.712 12
-3 -1 5 3958.24 466.008 2
3 -1 -5 3756.09 578.925 4
-3 -1 5 3260.37 323.851 6
-3 -1 5 2945.11 497.649 3
3 -1 -5 2972.87 278.133 5
-3 -1 5 3322.49 441.956 12
3 -1 -4 60871.1 2348.10 4
-3 -1 4 61763.9 1945.51 2
-3 -1 4 60063.1 2197.12 3
-3 -1 4 60473.8 1743.10 6
3 -1 -4 62338.7 1726.06 5
-3 -1 4 58207.8 2068.69 12
3 -1 -3 282939. 6242.16 4
-3 -1 3 272565. 5657.05 2
-3 -1 3 260496. 6144.81 8
-3 -1 3 269694. 5880.55 3
3 -1 -3 278059. 6192.29 3
3 -1 -3 268542. 5836.71 6
3 -1 -3 282813. 5612.93 5
-3 -1 3 284114. 6046.60 12
3 -1 -2 40328.4 1640.76 4
-3 -1 2 39214.7 1415.90 2
-3 -1 2 37889.5 1678.05 8
3 -1 -2 39351.1 1633.92 3
3 -1 -2 40850.1 1605.35 6
3 -1 -2 40016.9 1494.84 5
3 -1 -2 40946.2 1015.00 2
-3 -1 1 3803.95 428.372 4
3 -1 -1 3571.92 294.287 2
3 -1 -1 3817.72 433.097 4
-3 -1 1 3373.88 395.544 2
-3 -1 1 3398.29 471.169 8
3 -1 -1 3288.73 437.239 8
3 -1 -1 3412.82 449.615 6
3 -1 -1 3815.09 456.940 5
3 -1 0 43758.2 1468.60 4
-3 -1 0 43513.2 1520.59 4
-3 -1 0 39029.8 1730.35 8
3 -1 0 43524.7 1398.47 2
-3 -1 0 43565.4 1616.26 2
-3 -1 0 39360.1 1668.63 11
-3 -1 -1 709.302 234.358 11
3 -1 1 725.935 158.517 4
-3 -1 -1 594.403 250.353 8
3 -1 1 627.945 184.404 2
3 -1 2 34082.9 910.194 4
3 -1 2 32298.8 1473.53 2
-3 -1 -2 28641.7 1517.80 11
3 -1 3 3501.40 464.208 3
-3 -1 -3 4061.35 571.027 11
-3 -1 -3 4578.72 622.070 10
-3 -1 -3 4262.43 618.407 9
3 -1 3 3727.22 470.126 1
3 -1 4 35526.0 1506.16 1
-3 -1 -4 38543.6 2021.72 9
3 -1 4 33275.4 1612.96 3
-3 -1 -4 34602.5 1815.34 11
-3 -1 -5 52026.9 2537.48 9
3 -1 5 47517.8 1759.23 1
3 -1 5 47360.9 2105.30 3
-3 -1 -5 51640.8 2332.51 11
-3 -1 -6 3701.64 639.181 11
-3 -1 -6 4612.18 781.900 9
3 -1 6 2561.83 503.138 3
3 -1 6 3064.76 399.600 1
-3 -1 -7 5275.31 786.783 11
3 -1 7 5715.57 808.032 3
-3 -1 -7 5854.67 945.321 9
-3 -1 -8 3415.98 663.147 11
3 -1 8 3787.57 709.058 3
-3 -1 -8 2827.93 679.551 9
-3 -1 -9 1888.31 515.539 11
-3 -1 -9 2053.12 677.230 9
3 -1 9 853.689 387.514 3
3 -1 10 6687.59 1083.58 3
-3 -1 -10 8343.33 1113.29 11
3 0 -12 -23.0761 241.367 4
3 0 -11 125.423 172.291 4
-3 0 11 495.526 353.853 3
3 0 -10 726.759 391.620 4
-3 0 10 539.935 336.589 3
3 0 -9 86739.0 3669.45 4
-3 0 9 82606.4 3709.36 3
-3 0 9 90238.9 2853.00 12
3 0 -8 45744.8 2420.44 4
-3 0 8 43018.6 2400.03 3
3 0 -8 44016.7 1571.74 7
-3 0 8 39954.0 1478.85 6
-3 0 8 45440.0 1869.69 12
3 0 -7 99682.6 3645.84 4
-3 0 7 101634. 3699.64 3
3 0 -7 106946. 2611.50 7
-3 0 7 96025.7 2602.77 6
-3 0 7 104368. 3083.87 12
-3 0 6 12265.5 844.052 2
3 0 -6 14036.6 1168.14 4
-3 0 6 13587.5 1148.95 3
3 0 -6 14751.6 741.743 7
-3 0 6 14385.4 788.623 6
-3 0 6 14260.3 974.745 12
3 0 -5 47921.9 2165.03 4
-3 0 5 50838.3 1681.95 2
-3 0 5 50625.7 2170.08 3
-3 0 5 47694.6 1597.53 6
3 0 -5 49870.2 1318.21 5
-3 0 5 51504.6 1932.89 12
-3 0 4 145689. 3802.88 3
-3 0 4 135969. 3194.97 6
3 0 -4 135508. 2967.46 5
-3 0 4 136398. 3569.80 12
3 0 -4 132431. 3812.86 4
-3 0 3 5612.20 428.475 2
3 0 -3 6464.39 649.261 4
-3 0 3 6561.34 636.106 8
3 0 -3 6866.62 634.363 3
-3 0 3 6217.05 528.051 6
3 0 -3 5879.81 524.197 6
-3 0 3 5919.65 601.058 12
3 0 -3 6657.91 511.451 5
3 0 -2 26294.2 962.705 2
-3 0 2 26658.0 1318.20 8
-3 0 2 27489.9 999.808 2
3 0 -2 27247.8 1316.57 4
3 0 -2 29813.9 1280.86 3
-3 0 2 30079.3 1242.01 6
3 0 -2 27944.0 1231.79 6
-3 0 2 28645.1 1317.01 4
3 0 -2 29895.7 1224.74 5
-3 0 1 5631.54 506.264 4
3 0 -1 4561.99 398.269 2
3 0 -1 3963.21 446.020 4
-3 0 1 4233.94 509.875 8
-3 0 1 4979.07 412.637 2
3 0 -1 5637.59 541.280 6
3 0 -1 5524.71 528.073 5
3 0 0 88861.2 2432.49 4
-3 0 0 94174.1 2408.13 4
-3 0 0 88384.1 2772.68 8
3 0 0 93003.1 2468.62 2
3 0 0 100629. 2679.04 7
3 0 1 30124.2 1124.46 4
-3 0 -1 31241.3 1102.89 4
-3 0 -1 33474.6 1559.40 8
3 0 1 32715.5 1383.57 2
3 0 2 43790.1 1266.45 4
3 0 2 44026.1 1810.40 2
-3 0 -2 43578.2 1877.59 11
-3 0 -3 3908.79 572.282 11
3 0 3 4051.84 578.527 2
3 0 3 3381.54 253.608 4
-3 0 -3 4037.10 593.336 10
-3 0 -3 4308.42 628.356 9
3 0 3 3690.86 448.312 3
3 0 4 8421.05 664.079 1
-3 0 -4 8419.96 927.030 9
3 0 4 7992.82 875.544 2
3 0 4 10121.3 790.293 3
-3 0 -4 8773.47 862.019 11
3 0 5 11117.4 729.294 1
-3 0 -5 12309.1 1184.04 9
3 0 5 10616.9 1079.66 2
3 0 5 11902.1 949.079 3
-3 0 -5 11246.1 1025.69 11
-3 0 -6 19860.4 1603.89 9
3 0 6 17190.9 1476.64 2
3 0 6 15097.5 1164.59 3
-3 0 -6 17237.3 1323.38 11
-3 0 -7 1359.98 424.453 11
3 0 7 818.211 353.796 2
-3 0 -7 1238.67 475.226 9
3 0 7 1385.55 397.003 3
-3 0 -8 17011.1 1680.38 9
3 0 8 16351.4 1648.32 2
3 0 8 15763.4 1374.96 3
-3 0 -8 16572.7 1418.42 11
-3 0 -9 20307.5 1954.04 9
3 0 9 22759.6 2062.24 2
3 0 9 23059.9 1803.76 3
-3 0 -9 24065.4 1773.28 11
3 1 -12 4054.27 849.507 4
3 1 -11 4664.66 903.466 4
-3 1 11 3427.19 828.445 3
3 1 -10 2925.99 686.130 4
-3 1 10 3118.98 752.978 3
3 1 -9 308.989 263.864 4
-3 1 9 806.633 293.238 12
-3 1 9 871.651 411.944 3
-3 1 9 522.231 199.733 6
-3 1 8 31040.7 1629.04 12
3 1 -8 29437.5 1942.67 4
3 1 -8 36469.9 1187.62 7
-3 1 8 30456.3 2048.33 3
-3 1 8 34423.9 1490.83 6
3 1 -7 35521.2 1046.15 7
-3 1 7 33862.6 2030.61 3
-3 1 7 32417.6 1424.37 6
-3 1 7 33375.1 1650.94 12
3 1 -7 34795.0 2004.20 4
-3 1 6 2296.95 409.337 12
3 1 -6 2399.43 498.035 4
3 1 -6 2539.13 198.330 7
-3 1 6 2791.38 546.084 3
-3 1 6 2371.75 357.552 6
3 1 -6 2528.46 174.020 5
-3 1 5 3557.04 356.215 2
3 1 -5 3790.87 580.622 4
3 1 -5 3224.68 194.107 7
-3 1 5 3167.86 400.890 6
3 1 -5 3478.48 298.768 5
-3 1 5 3680.91 523.003 12
3 1 -4 62253.0 2384.95 4
-3 1 4 63993.1 1604.74 2
-3 1 4 61616.5 2148.21 8
3 1 -4 59510.0 2149.90 3
3 1 -4 68369.2 2046.66 11
-3 1 4 59093.6 1966.38 6
3 1 -4 59523.5 1780.46 6
-3 1 4 61184.0 2224.80 12
3 1 -3 276238. 5682.61 2
3 1 -3 269212. 6259.50 4
3 1 -3 280700. 5911.87 11
-3 1 3 284613. 5100.39 2
-3 1 3 273660. 5999.85 8
-3 1 3 281217. 6227.31 12
3 1 -3 280332. 5178.41 7
3 1 -3 275739. 5933.56 3
-3 1 3 280128. 5898.18 6
3 1 -3 284336. 5705.63 6
3 1 -2 37052.8 1608.61 4
-3 1 2 41436.1 1626.98 4
3 1 -2 40947.7 1422.48 2
-3 1 2 40307.7 1588.13 8
3 1 -2 42054.6 1272.13 7
3 1 -2 40265.3 1427.60 3
-3 1 2 38471.6 1536.37 6
3 1 -2 41705.6 1498.70 6
3 1 -2 42162.4 1607.34 11
3 1 -1 4481.48 446.271 2
3 1 -1 2937.00 408.014 4
-3 1 1 3017.53 372.936 4
-3 1 1 3056.78 421.741 8
3 1 -1 3922.57 391.504 7
3 1 -1 3369.93 338.061 3
-3 1 1 3821.97 464.068 6
3 1 -1 3434.89 419.329 6
3 1 0 43086.4 1552.02 4
-3 1 0 43411.6 1417.05 4
3 1 0 42363.3 1601.18 2
-3 1 0 42186.1 1702.54 8
3 1 0 43058.3 1585.87 7
-3 1 0 44693.6 1726.54 6
3 1 1 580.469 180.991 2
3 1 1 273.230 131.004 4
-3 1 -1 768.659 151.871 4
3 1 2 32753.0 1181.49 4
3 1 2 30725.5 1554.42 2
3 1 2 34305.6 1151.85 3
3 1 3 3278.02 535.748 2
-3 1 -3 4345.79 603.571 10
-3 1 -3 4696.75 647.070 9
3 1 3 3800.98 396.307 3
3 1 3 3919.70 359.696 4
3 1 4 35733.7 1186.47 4
-3 1 -4 37696.3 1994.47 9
3 1 4 34282.0 1877.75 2
3 1 4 35876.8 1481.94 3
-3 1 -4 39501.6 1872.42 11
3 1 5 50042.4 1424.02 4
3 1 5 48831.8 1642.79 1
-3 1 -5 52623.6 2551.84 9
3 1 5 48032.2 2416.41 2
3 1 5 48545.4 1942.34 3
-3 1 -5 51153.2 2252.23 11
-3 1 -6 3414.07 573.389 11
3 1 6 3222.96 660.080 2
-3 1 -6 3251.32 643.242 9
3 1 6 3790.61 561.910 3
-3 1 -7 5411.63 767.005 11
3 1 7 5386.83 888.485 2
-3 1 -7 6570.87 984.789 9
3 1 7 5553.49 732.881 3
3 1 8 2894.73 697.884 2
-3 1 -8 3499.09 780.028 9
3 1 8 3117.07 591.235 3
-3 1 -8 3276.91 613.573 11
-3 1 -9 577.996 341.690 9
3 1 9 2517.49 683.229 2
3 2 -12 2605.74 678.640 4
3 2 -11 1051.61 508.996 4
-3 2 11 645.027 416.028 3
3 2 -10 659.039 366.266 4
-3 2 10 259.697 276.208 3
3 2 -9 37848.7 2321.41 4
-3 2 9 35311.1 2358.72 3
-3 2 9 37786.0 1774.32 6
3 2 -8 17450.6 1472.97 4
-3 2 8 16819.0 1521.72 3
-3 2 8 17955.3 1149.67 6
3 2 -7 57578.3 1692.85 11
3 2 -7 56106.1 2622.31 4
-3 2 7 56545.1 2123.87 6
3 2 -6 1400.34 236.862 11
3 2 -6 2084.16 464.601 4
-3 2 6 2515.31 403.567 6
-3 2 5 27081.1 960.187 2
3 2 -5 27063.0 1597.00 4
-3 2 5 24930.9 1284.98 6
3 2 -5 26556.8 1116.08 11
-3 2 4 3816.14 227.173 2
3 2 -4 2723.61 402.785 3
-3 2 4 3559.41 503.872 12
3 2 -4 3879.96 560.807 4
-3 2 4 3982.72 462.270 8
3 2 -4 3561.38 339.584 6
-3 2 4 3404.59 452.362 6
-3 2 4 3555.60 371.139 5
3 2 -4 3714.30 471.398 12
3 2 -4 3573.84 403.819 11
3 2 -3 28080.7 1287.04 2
3 2 -3 28122.4 1482.68 4
-3 2 3 27901.9 1249.32 8
3 2 -3 28001.9 775.892 7
3 2 -3 28123.0 1211.83 3
3 2 -3 28327.2 1119.06 6
-3 2 3 31587.0 1402.03 6
-3 2 3 30245.3 1233.22 5
3 2 -3 29106.8 1260.76 11
3 2 -2 42309.0 1601.67 2
3 2 -2 44128.6 1783.86 4
-3 2 2 42271.4 1565.17 8
3 2 -2 40744.6 1251.59 7
3 2 -2 43352.0 1388.11 3
3 2 -2 43256.3 1511.19 6
-3 2 2 39817.3 1669.18 6
-3 2 2 41175.2 1576.45 5
3 2 -2 40959.7 1616.71 11
-3 2 1 34677.8 1390.08 4
3 2 -1 33104.2 1467.98 4
3 2 -1 34664.7 1467.84 2
-3 2 1 35021.4 1434.07 8
3 2 -1 34971.9 1282.23 7
3 2 -1 34424.0 1035.68 3
3 2 -1 35757.6 1427.90 6
-3 2 1 35188.4 1517.88 6
-3 2 1 32125.5 1440.07 5
-3 2 0 2760.37 327.191 4
3 2 0 3290.28 413.370 4
3 2 0 3223.79 208.610 3
3 2 0 2770.32 378.848 7
-3 2 0 2499.25 401.881 6
3 2 0 2204.10 376.070 2
-3 2 0 2856.64 420.288 5
-3 2 -1 22198.5 834.316 4
3 2 1 21974.9 1079.56 4
3 2 1 21510.9 1242.26 2
-3 2 -1 22086.2 1240.67 6
3 2 1 22007.7 592.934 3
-3 2 -2 13574.0 1019.87 10
3 2 2 12576.2 776.943 4
-3 2 -2 12852.0 415.916 4
3 2 2 12047.7 977.526 2
3 2 2 12852.4 531.886 3
-3 2 -3 27349.7 1543.06 10
3 2 3 26107.4 1151.06 4
-3 2 -3 27082.0 1584.35 9
3 2 3 23230.9 1477.46 2
3 2 3 26347.0 990.317 3
3 2 4 6272.75 817.981 2
3 2 4 7233.00 577.820 4
-3 2 -4 7872.81 885.829 9
3 2 4 7013.21 570.334 3
3 2 5 74114.2 2206.83 4
-3 2 -5 79883.4 3221.14 9
3 2 5 74235.2 3155.49 2
3 2 5 78003.0 2446.68 3
-3 2 -6 51292.6 2663.65 9
3 2 6 47534.7 2617.94 2
3 2 6 51933.0 2090.73 3
3 2 7 5930.92 961.493 2
-3 2 -7 7568.65 1055.55 9
3 2 7 6130.97 754.581 3
-3 2 -8 21406.3 1894.54 9
3 2 8 22098.2 1961.48 2
-3 2 -9 22924.1 2068.82 9
3 2 9 19359.1 1930.78 2
3 3 -12 3038.83 788.019 4
3 3 -11 1657.39 558.841 4
3 3 -10 6141.61 986.366 4
3 3 -9 17535.0 1563.50 4
3 3 -8 12140.3 1252.43 4
-3 3 7 1948.37 330.956 2
3 3 -7 2540.67 549.879 4
-3 3 7 1931.52 413.271 6
-3 3 7 1411.36 194.790 5
3 3 -6 48795.2 1449.00 11
3 3 -6 43973.2 2230.90 4
-3 3 6 46984.2 1546.84 2
-3 3 6 44942.0 1967.92 6
-3 3 6 49050.0 1487.84 5
3 3 -5 7478.62 542.925 11
3 3 -5 6338.25 769.786 4
-3 3 5 6376.67 582.560 8
-3 3 5 7628.24 434.778 2
-3 3 5 6077.56 662.027 6
-3 3 5 7618.28 560.969 5
3 3 -5 7868.16 671.348 12
3 3 -4 3397.16 393.543 11
3 3 -4 3727.67 571.135 4
-3 3 4 2909.17 369.852 5
-3 3 4 3114.07 377.277 8
3 3 -4 3963.60 340.265 6
-3 3 4 3642.42 506.258 6
3 3 -4 3524.79 451.392 3
3 3 -3 44572.1 1657.86 11
3 3 -3 45280.4 1835.36 2
3 3 -3 45906.6 1994.78 4
-3 3 3 44872.5 1558.48 8
3 3 -3 47976.7 1500.34 6
3 3 -3 46876.3 1615.40 3
-3 3 3 44495.3 1857.86 6
-3 3 3 46874.3 1698.81 5
-3 3 2 33854.4 1325.21 8
3 3 -2 34684.0 1568.96 2
3 3 -2 36326.6 1396.23 6
-3 3 2 35016.9 1608.53 6
3 3 -2 37137.6 1197.21 3
-3 3 2 35517.9 1506.54 5
3 3 -2 36229.6 1667.05 4
-3 3 1 64930.4 2114.95 4
3 3 -1 59286.4 2202.88 2
3 3 -1 60021.1 1905.54 7
-3 3 1 63956.2 2271.17 6
3 3 -1 63979.6 1419.56 3
-3 3 1 63424.3 2208.78 5
3 3 -1 63051.5 2246.03 4
-3 3 0 39124.0 1435.82 4
3 3 0 39129.5 1654.29 4
3 3 0 39105.2 1768.86 2
3 3 0 39490.6 1588.80 7
-3 3 0 38035.3 1698.13 6
-3 3 0 36948.5 1676.28 5
-3 3 0 40993.8 1770.74 12
-3 3 -1 105022. 2487.40 4
-3 3 -1 110335. 3224.77 10
3 3 1 100713. 2949.69 4
3 3 1 105428. 3291.85 2
-3 3 -1 102331. 3137.41 6
-3 3 -1 103769. 3199.74 5
-3 3 -2 42730.1 1071.15 4
-3 3 -2 42428.7 1894.75 10
3 3 2 43879.0 1716.03 4
3 3 2 39497.0 1929.43 2
-3 3 -2 40028.6 1832.23 6
-3 3 -2 41819.5 1910.27 5
3 3 3 19647.5 1114.21 4
3 3 3 19867.0 1413.91 2
3 3 3 21891.1 750.983 3
-3 3 -4 38534.9 2036.45 9
3 3 4 36169.7 2060.91 2
3 3 4 39043.8 1333.21 3
-3 3 -4 38902.8 1704.72 12
-3 3 -5 5769.20 813.190 9
3 3 5 5077.97 794.065 2
3 3 5 5220.58 528.896 3
-3 3 -6 16808.3 1484.55 9
3 3 6 16283.1 1538.80 2
3 3 6 17478.4 1107.60 3
3 3 7 3296.79 752.515 2
-3 3 -7 2329.80 600.558 9
3 3 8 4664.98 928.692 2
-3 3 -8 5716.84 970.279 9
-3 3 -9 12332.6 1524.85 9
3 4 -11 1929.01 637.198 4
3 4 -10 6676.15 1038.59 4
3 4 -9 4669.55 838.065 4
3 4 -8 10430.2 1175.94 4
-3 4 8 11077.1 880.988 2
3 4 -7 12095.4 1196.54 4
-3 4 7 13022.6 844.221 2
-3 4 7 11605.7 696.941 5
3 4 -6 403.645 119.590 11
3 4 -6 -62.6530 111.988 12
3 4 -6 -166.728 252.777 4
-3 4 6 -109.718 172.546 6
-3 4 6 49.8406 70.2583 2
-3 4 6 41.0311 88.8408 5
3 4 -5 22080.0 972.979 11
3 4 -5 23071.2 1539.99 4
-3 4 5 24540.4 819.548 2
-3 4 5 23480.7 1043.50 8
3 4 -5 22526.5 676.464 6
-3 4 5 24137.4 1446.40 6
-3 4 5 24236.6 1159.30 5
3 4 -4 1097.91 246.110 11
3 4 -4 1407.47 362.942 4
-3 4 4 1356.80 226.656 8
3 4 -4 1893.60 398.302 2
3 4 -4 1701.31 223.872 6
-3 4 4 1690.89 369.261 6
-3 4 4 1683.74 310.684 5
3 4 -4 1639.35 323.718 3
3 4 -3 18104.7 1023.99 11
3 4 -3 19603.0 1244.04 2
3 4 -3 18006.0 1248.74 4
-3 4 3 19199.4 858.382 8
3 4 -3 19464.6 913.682 6
-3 4 3 20631.0 1274.29 6
3 4 -3 18851.1 960.605 3
-3 4 3 20771.4 1141.67 5
3 4 -2 12858.0 994.529 2
3 4 -2 14605.2 1075.22 4
-3 4 2 13997.5 1027.94 6
-3 4 2 13337.9 945.529 5
3 4 -1 56385.9 2251.04 2
3 4 -1 54327.5 2193.65 4
-3 4 1 60914.2 2293.83 6
-3 4 1 53928.6 2123.43 5
-3 4 1 59760.2 2304.79 12
-3 4 0 8303.70 661.169 4
3 4 0 8789.53 802.659 4
3 4 0 7507.83 790.532 2
-3 4 0 7854.61 765.630 6
-3 4 0 9402.87 833.757 5
-3 4 0 9329.41 824.999 12
-3 4 -1 2541.66 441.334 10
-3 4 -1 1730.65 362.056 12
-3 4 -1 2484.96 330.131 4
-3 4 -1 2052.82 406.947 5
3 4 1 1411.98 309.681 4
-3 4 -1 2603.72 449.704 6
3 4 1 2263.40 469.460 2
-3 4 -2 12850.5 630.466 4
-3 4 -2 14636.6 1056.20 10
3 4 2 12531.8 954.295 4
3 4 2 12004.4 1083.46 2
-3 4 -2 13514.1 1041.58 6
-3 4 -2 12250.5 1037.58 5
-3 4 -2 14642.0 1022.29 12
3 4 3 12687.2 1171.17 2
-3 4 -3 13356.2 1063.73 6
-3 4 -3 11916.7 1055.62 5
-3 4 -3 14070.0 988.862 12
-3 4 -4 12759.3 1133.94 9
3 4 4 11593.5 1193.70 2
-3 4 -4 13782.6 978.185 12
-3 4 -4 13461.5 1157.87 5
-3 4 -5 88854.8 2802.40 12
-3 4 -5 92683.0 3517.47 9
3 4 5 80687.3 3522.16 2
-3 4 -6 322.403 285.136 9
3 4 6 558.212 309.951 2
-3 4 -7 8106.42 1096.03 9
3 4 7 9283.55 1242.62 2
-3 4 -8 16897.2 1681.41 9
3 4 8 15237.2 1691.74 2
3 5 -11 3862.25 832.452 4
3 5 -10 4041.61 822.853 4
3 5 -9 19957.6 1734.43 4
3 5 -8 12001.2 1290.45 4
-3 5 7 10366.3 749.893 2
3 5 -7 8530.11 1045.82 4
-3 5 7 8529.90 683.085 5
3 5 -6 25942.1 1750.44 4
-3 5 6 25714.6 1063.43 2
-3 5 6 24017.7 1028.41 8
-3 5 6 24375.1 1248.36 5
3 5 -5 12877.8 726.822 11
-3 5 5 12533.4 590.434 2
-3 5 5 13573.6 649.491 8
3 5 -5 13567.3 1212.78 4
3 5 -5 12829.4 476.586 6
-3 5 5 11840.9 1074.54 6
-3 5 5 13158.8 920.705 5
-3 5 4 3033.00 457.710 5
3 5 -4 3052.58 395.183 11
-3 5 4 3058.95 267.981 8
3 5 -4 3402.54 587.379 4
3 5 -4 2693.92 507.409 2
3 5 -4 2896.70 314.991 6
-3 5 4 3666.58 591.864 6
3 5 -3 12949.7 1104.49 4
-3 5 3 12082.8 1047.37 6
-3 5 3 14804.1 1031.61 5
3 5 -3 11948.5 1042.49 2
3 5 -2 4591.95 635.457 4
3 5 -2 2974.68 522.823 2
-3 5 2 3924.18 587.505 6
-3 5 2 3309.98 501.277 5
3 5 -1 85695.3 3056.86 2
3 5 -1 82125.5 2948.35 4
-3 5 1 87703.2 3008.73 6
-3 5 1 86724.0 2928.71 5
3 5 0 2519.27 471.178 4
3 5 0 3038.81 529.124 2
-3 5 0 2935.42 512.211 6
-3 5 0 2679.86 475.847 12
-3 5 0 2532.69 488.629 5
-3 5 -1 39230.0 1557.16 4
-3 5 -1 40117.0 1779.10 10
3 5 1 40895.6 1928.72 4
3 5 1 40528.7 2095.45 2
-3 5 -1 42347.3 1959.64 6
-3 5 -1 34752.2 1855.48 5
-3 5 -1 42284.5 1912.17 12
-3 5 -2 30240.4 1186.37 4
-3 5 -2 28992.3 1532.00 10
3 5 2 27375.7 1564.13 4
3 5 2 27399.7 1743.16 2
-3 5 -2 27858.2 1592.60 6
-3 5 -2 27426.5 1651.68 5
-3 5 -2 30855.5 1578.47 12
-3 5 -3 12709.3 568.691 4
3 5 3 10514.3 1111.42 2
-3 5 -3 11645.6 1020.95 6
-3 5 -3 11574.7 1080.07 5
-3 5 -3 13121.7 990.774 12
3 5 4 13907.1 1342.90 2
-3 5 -4 14466.3 1251.94 5
-3 5 -4 15594.3 1063.54 12
-3 5 -5 85.7296 128.398 12
-3 5 -5 452.370 248.042 9
-3 5 -5 201.370 250.865 5
3 5 5 73.9174 295.513 2
-3 5 -6 3925.63 716.134 9
3 5 6 4566.40 850.994 2
-3 5 -7 293.149 335.173 9
3 5 7 435.193 296.827 2
-3 5 -8 5681.37 976.660 9
3 5 8 5653.92 1074.44 2
3 6 -11 2103.65 690.112 4
3 6 -10 5938.57 1005.71 4
3 6 -9 812.620 432.200 4
3 6 -8 4233.60 803.906 4
3 6 -7 22123.7 1733.83 4
-3 6 7 21023.5 1225.03 5
3 6 -6 1165.24 460.675 4
-3 6 6 624.940 241.987 5
-3 6 5 20842.0 857.980 2
3 6 -5 19989.8 1534.64 4
-3 6 5 18921.4 1448.04 6
-3 6 5 21295.3 1295.44 5
-3 6 4 7877.46 433.898 2
3 6 -4 7335.99 884.498 2
3 6 -4 8485.24 959.804 4
-3 6 4 6375.64 827.128 6
-3 6 4 7202.71 752.805 5
3 6 -3 37331.2 1997.54 2
3 6 -3 37433.7 2026.98 4
-3 6 3 32955.7 1876.88 6
-3 6 3 34912.7 1764.33 5
3 6 -2 4214.55 648.082 4
3 6 -2 3675.33 618.743 2
-3 6 2 3838.31 602.408 6
-3 6 2 4212.35 602.128 5
3 6 -1 28241.1 1733.47 2
3 6 -1 28623.0 1719.19 4
-3 6 1 29025.3 1689.97 6
-3 6 1 30050.0 1674.51 5
3 6 0 28144.3 1772.37 2
3 6 0 28525.5 1704.17 4
-3 6 0 27845.2 1659.53 6
-3 6 0 29558.0 1698.92 5
-3 6 -1 4244.79 540.414 10
-3 6 -1 3914.12 576.018 12
3 6 1 4690.91 684.601 4
3 6 1 5489.70 793.383 2
-3 6 -1 4641.89 670.302 6
-3 6 -1 4653.85 692.429 5
3 6 2 17569.6 1327.42 4
3 6 2 16355.9 1420.71 2
-3 6 -2 20632.6 1399.31 6
-3 6 -2 20229.9 1454.61 5
-3 6 -2 19178.3 1288.51 12
3 6 3 71639.4 3196.73 2
-3 6 -3 69496.6 2794.96 6
-3 6 -3 69630.7 2963.40 5
-3 6 -3 73691.8 2665.14 12
3 6 4 13630.5 1390.95 2
-3 6 -4 14850.3 1070.28 12
-3 6 -4 14669.7 1207.57 6
-3 6 -4 13824.2 1277.41 5
-3 6 -5 9215.08 1062.63 5
3 6 5 9893.19 1233.54 2
-3 6 -6 4722.12 798.041 9
3 6 6 5194.57 947.473 2
-3 6 -6 3608.30 689.148 5
-3 6 -7 1751.72 541.739 9
3 6 7 1856.13 596.793 2
-3 6 -8 3531.30 776.540 9
3 7 -10 2032.26 621.468 4
3 7 -9 2783.91 694.038 4
3 7 -8 740.461 409.879 4
3 7 -7 1597.73 494.098 4
-3 7 7 1407.53 351.373 5
3 7 -6 19404.1 1635.29 4
-3 7 6 18264.4 1274.84 5
3 7 -5 12681.9 1268.06 4
-3 7 5 13287.9 1274.49 6
-3 7 5 12238.6 1045.37 5
3 7 -4 2678.66 601.477 4
3 7 -4 3617.60 679.527 2
-3 7 4 2607.91 564.874 6
-3 7 4 3329.65 566.730 5
3 7 -3 18414.4 1471.58 4
3 7 -3 17058.8 1412.86 2
-3 7 3 17326.4 1395.74 6
-3 7 3 18182.8 1329.63 5
3 7 -2 2671.29 571.021 4
3 7 -2 2360.01 522.677 2
-3 7 2 3371.53 651.940 6
-3 7 2 2539.50 505.368 5
3 7 -1 31322.6 1938.03 2
3 7 -1 31400.9 1901.60 4
-3 7 1 31050.1 1843.20 6
-3 7 1 29608.8 1782.44 5
3 7 0 75608.8 3243.26 2
3 7 0 80696.6 3196.31 4
-3 7 0 77573.0 3064.56 6
-3 7 0 76849.3 3066.03 5
-3 7 -1 31586.3 1507.18 10
3 7 1 27604.0 1899.66 2
3 7 1 29241.8 1842.61 4
-3 7 -1 29872.3 1789.13 6
-3 7 -1 30095.4 1849.90 5
3 7 2 4783.96 742.490 4
-3 7 -2 4620.97 689.855 6
3 7 2 5283.15 845.720 2
-3 7 -2 5891.19 737.503 12
-3 7 -2 4977.08 756.675 5
-3 7 -3 1151.02 427.955 5
-3 7 -3 1363.63 364.029 12
-3 7 -3 1233.45 369.853 6
3 7 3 972.070 403.174 2
-3 7 -4 2397.96 452.155 12
-3 7 -4 829.340 331.274 6
3 7 4 1563.87 525.444 2
-3 7 -4 1348.30 438.679 5
3 7 5 4377.14 861.914 2
-3 7 -5 4923.80 814.963 5
-3 7 -6 1256.64 448.383 5
3 7 6 1455.80 517.503 2
-3 7 -7 1821.00 556.566 9
-3 7 -7 797.362 407.552 5
-3 7 -8 84.1757 408.285 9
3 8 -9 30006.9 2332.83 4
3 8 -8 1313.05 472.547 4
3 8 -7 -27.4422 227.367 4
-3 8 6 680.996 302.723 5
3 8 -6 822.230 383.753 4
3 8 -5 13377.1 1371.59 4
-3 8 5 13658.8 1368.85 6
-3 8 5 13709.7 1205.45 5
3 8 -4 22976.2 1795.45 2
3 8 -4 23477.8 1796.70 4
-3 8 4 24102.3 1778.58 6
-3 8 4 24089.2 1622.25 5
3 8 -3 25344.0 1848.83 2
3 8 -3 27637.7 1913.46 4
-3 8 3 26298.4 1840.79 6
-3 8 3 24764.3 1673.47 5
3 8 -2 2973.50 624.321 4
3 8 -2 1727.40 485.834 2
-3 8 2 2884.18 607.122 6
-3 8 2 2746.06 563.120 5
3 8 -1 19199.9 1605.28 2
3 8 -1 21755.6 1660.76 4
-3 8 1 20812.1 1583.49 6
-3 8 1 22046.5 1610.73 5
3 8 0 27074.8 1947.75 2
3 8 0 29549.7 1961.62 4
-3 8 0 29344.9 1874.36 6
-3 8 0 31120.0 1955.98 5
3 8 1 41496.3 2469.00 2
3 8 1 40659.0 2326.41 4
-3 8 -1 38143.2 2158.80 6
-3 8 -1 42551.4 2360.36 5
3 8 2 7975.66 1019.09 4
3 8 2 9426.18 1178.97 2
-3 8 -2 8370.61 975.106 6
-3 8 -2 8984.75 965.941 12
-3 8 -2 7628.73 1005.75 5
-3 8 -3 3586.53 591.444 12
-3 8 -3 2856.14 651.036 5
-3 8 -3 2160.21 503.180 6
3 8 3 2278.64 621.953 2
-3 8 -4 1631.36 439.234 6
3 8 4 2296.12 650.962 2
-3 8 -4 622.237 334.204 5
-3 8 -5 3886.01 696.879 6
-3 8 -5 4411.14 798.483 5
3 8 5 4160.11 885.630 2
-3 8 -6 4789.82 859.760 5
3 9 -8 5327.23 992.570 4
3 9 -7 3254.92 738.001 4
3 9 -6 1516.58 520.942 4
-3 9 6 2021.11 504.270 5
3 9 -5 6435.98 999.135 4
-3 9 5 7512.35 1055.49 6
-3 9 5 5497.94 827.626 5
3 9 -4 18894.6 1702.89 2
3 9 -4 17365.6 1619.27 4
-3 9 4 15216.5 1518.67 6
-3 9 4 21455.1 1616.22 5
3 9 -3 4053.76 782.006 4
3 9 -3 3638.88 756.300 2
-3 9 3 3553.29 729.184 6
-3 9 3 4452.16 758.326 5
3 9 -2 15790.6 1529.02 2
3 9 -2 12440.8 1336.75 4
-3 9 2 13985.2 1375.25 6
-3 9 2 16755.5 1460.04 5
3 9 -1 11964.9 1306.77 4
3 9 -1 10727.1 1270.41 2
-3 9 1 11352.7 1219.53 6
-3 9 1 10817.4 1191.07 5
3 9 0 19217.1 1705.73 2
3 9 0 14112.8 1434.77 4
-3 9 0 15197.8 1406.28 6
-3 9 0 16395.0 1486.96 5
-3 9 -1 3935.04 744.403 5
3 9 1 5862.17 907.728 4
3 9 1 6127.31 969.001 2
-3 9 -1 5245.68 803.270 6
-3 9 -2 3335.38 608.059 12
3 9 2 3497.51 740.840 4
3 9 2 3614.09 787.685 2
-3 9 -2 3956.86 696.908 6
-3 9 -2 3028.25 657.532 5
-3 9 -3 1135.76 341.702 12
3 9 3 2479.22 683.716 2
-3 9 -3 2353.50 567.757 6
-3 9 -3 2392.36 608.739 5
-3 9 -4 -63.1401 206.498 5
-3 9 -4 349.623 269.295 6
3 9 4 317.504 334.338 2
-3 9 -5 7266.28 961.656 6
-3 9 -5 7607.81 1115.16 5
3 10 -6 4594.54 921.220 4
-3 10 6 5440.33 844.040 5
3 10 -5 11754.3 1413.97 4
-3 10 5 12195.2 1423.13 6
-3 10 5 11178.8 1246.14 5
3 10 -4 5946.18 996.557 4
-3 10 4 3344.49 746.214 6
-3 10 4 4147.50 776.238 5
3 10 -3 67.8036 318.060 4
3 10 -3 242.602 278.043 2
-3 10 3 92.4135 165.531 6
-3 10 3 205.048 270.426 5
3 10 -2 6994.32 1052.40 4
3 10 -2 5545.17 966.127 2
-3 10 2 7526.07 1070.57 6
-3 10 2 6455.75 963.182 5
3 10 -1 2186.87 616.529 4
3 10 -1 3611.56 807.233 2
-3 10 1 1780.07 524.231 6
-3 10 1 1610.88 495.574 5
3 10 0 6777.87 1023.99 4
3 10 0 6139.48 1021.83 2
-3 10 0 6752.51 983.139 6
-3 10 0 5591.34 930.450 5
3 10 1 4019.12 805.868 4
3 10 1 4539.32 898.957 2
-3 10 -1 5111.22 854.814 6
-3 10 -1 5314.86 898.026 5
3 10 2 5215.12 921.773 4
3 10 2 3503.57 845.161 2
-3 10 -2 5081.32 835.336 6
-3 10 -2 6005.41 872.070 12
-3 10 -2 5777.82 963.550 5
-3 10 -3 3992.77 811.354 5
3 10 3 3498.22 840.861 2
-3 10 -3 3833.74 727.142 6
-3 10 -4 5883.45 882.659 6
-3 11 6 2114.40 615.956 5
-3 11 5 64.8204 260.016 5
-3 11 4 5052.75 888.266 5
-3 11 3 4524.76 843.201 5
-3 11 2 27.3970 274.520 6
-3 11 2 113.659 226.682 5
-3 11 1 351.508 309.732 6
-3 11 1 555.811 338.347 5
-3 11 0 9085.76 1200.85 6
-3 11 -1 5124.41 893.091 6
-3 11 -2 2489.70 631.576 6
-3 11 -3 6929.05 1015.29 6
-4 -11 3 1329.86 557.553 8
-4 -11 2 6167.65 1024.67 8
-4 -11 0 478.397 397.993 11
-4 -10 5 5805.91 1037.71 8
-4 -10 4 549.349 345.037 8
-4 -10 3 7693.91 1129.04 8
-4 -10 2 250.451 265.366 8
-4 -10 1 8951.71 1092.96 11
-4 -10 1 10230.8 1248.39 8
-4 -10 0 8039.51 1085.80 11
-4 -10 0 7251.14 1049.97 8
-4 -10 -1 2740.22 679.100 11
-4 -10 -1 2126.63 583.827 8
-4 -10 -2 11246.7 1300.59 7
-4 -10 -3 1806.42 586.659 7
4 -9 -7 3434.91 758.618 1
4 -9 -6 7076.93 1075.16 1
-4 -9 6 7709.47 1191.91 8
-4 -9 5 16963.3 1690.37 8
4 -9 -5 15193.0 1587.28 1
-4 -9 4 324.754 287.149 8
4 -9 -4 213.364 279.537 1
-4 -9 3 255.000 250.102 8
4 -9 -3 676.275 452.315 1
-4 -9 2 658.655 315.758 11
4 -9 -2 1530.36 554.000 1
-4 -9 2 537.141 316.660 8
-4 -9 1 345.921 256.036 11
4 -9 -1 49.5342 358.954 1
-4 -9 1 -10.4140 211.706 8
-4 -9 0 2409.13 583.530 11
4 -9 0 2946.10 690.466 1
-4 -9 0 3157.62 682.305 8
-4 -9 -1 1993.30 576.601 11
4 -9 1 3798.85 822.196 1
-4 -9 -1 1886.46 539.056 8
-4 -9 -1 2918.70 602.451 7
-4 -9 -2 1192.92 495.308 11
4 -9 2 1258.23 528.494 1
-4 -9 -2 1011.37 421.536 8
-4 -9 -2 1205.80 447.457 7
-4 -9 -3 9831.35 1304.20 11
4 -9 3 10958.0 1378.97 1
-4 -9 -3 9630.71 1206.03 7
4 -9 4 1057.88 478.347 1
-4 -9 -4 167.053 226.195 7
4 -8 -8 2102.92 561.082 1
4 -8 -7 235.443 294.153 1
-4 -8 6 2831.59 716.719 8
4 -8 -6 3956.30 783.986 1
-4 -8 5 7751.03 1101.36 8
4 -8 -5 10176.2 1230.23 1
-4 -8 4 13047.5 1413.08 8
4 -8 -4 13097.5 1409.60 1
-4 -8 3 7226.53 1009.73 8
4 -8 -3 8586.41 1134.56 1
-4 -8 3 7563.11 837.745 11
-4 -8 2 8795.54 1095.52 8
4 -8 -2 8697.50 1136.40 1
-4 -8 2 7526.27 882.643 11
-4 -8 1 3601.29 633.607 11
-4 -8 1 2412.83 580.911 8
4 -8 -1 2718.09 667.246 1
-4 -8 1 3425.41 548.958 7
-4 -8 0 2878.51 652.690 8
4 -8 0 3177.69 705.085 1
-4 -8 0 2589.71 515.508 7
-4 -8 0 1606.11 462.223 11
-4 -8 -1 917.787 410.512 11
4 -8 1 1133.19 478.479 1
-4 -8 -1 925.931 371.602 8
-4 -8 -1 1288.41 405.790 7
-4 -8 -2 2173.68 606.570 11
4 -8 2 2243.00 592.310 1
-4 -8 -2 2905.51 664.855 8
-4 -8 -2 1806.05 537.181 7
-4 -8 -3 2374.31 652.815 11
4 -8 3 1665.09 569.733 1
-4 -8 -3 1705.90 512.990 7
-4 -8 -4 1488.75 547.566 11
4 -8 4 719.950 373.995 1
-4 -8 -4 1074.41 456.107 7
4 -8 5 416.890 324.596 1
4 -7 -10 4730.40 945.365 7
-4 -7 9 3383.93 753.266 3
-4 -7 8 15235.1 1470.82 3
4 -7 -8 15053.0 1453.98 1
4 -7 -7 2773.97 653.753 1
-4 -7 7 3592.98 686.442 3
-4 -7 6 7145.88 1043.39 8
-4 -7 6 7465.37 890.526 3
4 -7 -6 8143.76 1054.12 1
4 -7 -5 2628.74 612.928 1
-4 -7 5 4934.66 849.149 8
-4 -7 4 2962.74 473.438 11
-4 -7 4 3079.77 666.028 8
4 -7 -4 3340.55 684.754 1
-4 -7 3 1446.18 379.246 10
-4 -7 3 610.273 254.968 11
-4 -7 3 1514.12 491.705 8
4 -7 -3 1078.39 415.485 1
-4 -7 2 7529.10 799.844 10
-4 -7 2 5578.13 871.098 8
4 -7 -2 5564.72 879.860 1
-4 -7 2 6597.23 794.917 11
-4 -7 1 31187.2 1684.69 10
-4 -7 1 31434.4 2016.61 8
-4 -7 1 30188.0 1566.47 7
4 -7 -1 31420.9 2108.91 1
-4 -7 1 30053.5 1821.26 11
-4 -7 0 4626.90 732.789 11
-4 -7 0 3916.67 591.500 10
-4 -7 0 3360.15 633.145 8
-4 -7 0 3400.14 552.761 7
4 -7 0 4940.19 825.622 1
-4 -7 -1 2551.49 501.321 10
-4 -7 -1 1472.24 470.954 11
-4 -7 -1 1063.75 384.133 8
4 -7 1 1707.80 550.206 1
-4 -7 -1 2215.79 497.104 7
-4 -7 -2 27112.4 1944.78 11
-4 -7 -2 25011.4 1826.36 8
-4 -7 -2 23708.9 1686.77 7
4 -7 2 25772.7 1915.39 1
-4 -7 -3 2633.46 666.471 11
4 -7 3 2018.12 549.218 1
-4 -7 -3 2085.79 549.811 7
-4 -7 -4 14397.2 1509.10 11
-4 -7 -4 14639.8 1452.53 7
4 -7 4 13978.9 1416.43 1
4 -7 5 1632.10 571.143 3
-4 -7 -5 1739.58 592.335 11
4 -7 5 1474.24 518.973 1
-4 -7 -5 1051.86 405.443 7
-4 -6 10 6860.79 1126.78 3
-4 -6 9 10359.3 1308.52 3
4 -6 -9 12086.4 1244.96 1
4 -6 -8 1802.94 511.389 1
-4 -6 8 2368.81 573.563 3
4 -6 -7 5827.10 863.130 1
-4 -6 7 4594.52 750.421 3
4 -6 -6 4064.27 713.844 1
-4 -6 6 4087.35 646.542 3
4 -6 -5 8454.83 1025.70 1
-4 -6 5 7633.84 1036.48 8
-4 -6 5 8663.10 854.128 3
4 -6 -4 1547.11 464.645 1
-4 -6 4 1793.85 512.929 8
-4 -6 4 1860.98 347.110 3
-4 -6 3 6066.36 736.955 10
4 -6 -3 5096.66 803.648 1
-4 -6 3 5498.20 834.008 8
-4 -6 3 5733.95 524.272 3
-4 -6 3 4922.22 629.063 11
-4 -6 2 3014.18 538.569 11
4 -6 -2 3537.30 659.011 1
-4 -6 2 2750.45 500.753 10
-4 -6 2 2344.22 548.840 8
-4 -6 2 3408.76 427.894 7
-4 -6 1 18572.8 1297.87 10
-4 -6 1 19191.5 1520.31 8
-4 -6 1 18373.1 1133.87 7
4 -6 -1 18008.0 1496.91 1
-4 -6 1 19019.3 1368.25 11
-4 -6 0 1345.66 405.987 11
4 -6 0 788.220 333.510 1
-4 -6 0 1420.77 372.492 10
-4 -6 0 1021.50 372.404 8
-4 -6 0 1422.25 348.459 7
-4 -6 -1 21698.4 1449.72 10
-4 -6 -1 20435.7 1581.57 8
-4 -6 -1 21207.0 1435.19 7
4 -6 1 19459.1 1580.76 1
-4 -6 -1 22815.7 1640.09 11
-4 -6 -2 7993.94 1004.92 11
-4 -6 -2 8877.78 943.261 10
-4 -6 -2 7248.07 951.343 8
-4 -6 -2 9038.54 989.188 7
4 -6 2 9380.47 1083.09 1
-4 -6 -3 10045.5 1179.20 11
-4 -6 -3 11475.2 1189.05 7
4 -6 3 9365.17 1106.28 1
-4 -6 -4 4848.51 879.911 11
4 -6 4 5131.85 815.752 1
-4 -6 -4 6624.69 952.844 7
4 -6 5 6249.56 986.752 3
-4 -6 -5 5254.67 911.514 11
4 -6 5 6306.18 909.450 1
-4 -6 -5 6162.13 972.464 7
-4 -6 -6 5607.79 966.051 7
4 -6 6 4250.88 857.116 3
-4 -5 10 9554.74 1295.17 3
4 -5 -9 16264.0 1409.62 1
-4 -5 9 16393.3 1600.54 3
4 -5 -8 12398.3 1214.50 1
-4 -5 8 13375.2 1344.92 3
4 -5 -7 11675.3 1189.00 1
-4 -5 7 12666.4 1229.28 3
4 -5 -6 2894.06 589.852 1
-4 -5 6 3496.00 604.326 3
4 -5 -5 35041.9 2068.15 1
-4 -5 5 36812.1 2202.94 8
-4 -5 5 33829.0 1740.21 3
-4 -5 4 4830.73 778.707 8
-4 -5 4 4496.78 546.961 3
4 -5 -4 4988.35 778.654 1
4 -5 -3 19789.2 1515.29 1
-4 -5 3 21166.3 1575.52 8
-4 -5 3 20255.8 1007.84 3
-4 -5 3 17117.3 1155.96 11
-4 -5 2 3744.52 548.627 11
-4 -5 2 5320.48 688.226 10
-4 -5 2 4426.61 708.038 8
-4 -5 2 4264.36 452.867 7
4 -5 -2 4560.25 717.274 1
4 -5 -1 55518.0 2632.79 1
-4 -5 1 57719.5 2394.77 10
-4 -5 1 59889.9 2694.67 8
4 -5 -1 55334.8 1259.58 2
-4 -5 1 57275.0 2034.82 7
-4 -5 1 52054.6 2327.92 11
-4 -5 0 33714.2 1788.31 10
-4 -5 0 30629.7 1891.02 8
-4 -5 0 30780.5 1571.06 7
4 -5 0 30126.5 1874.72 1
-4 -5 0 32011.9 1822.80 11
-4 -5 -1 11318.7 1036.28 10
-4 -5 -1 10575.8 1093.89 8
4 -5 1 9425.52 1023.36 1
-4 -5 -1 11536.8 1002.83 7
-4 -5 -1 11067.7 1094.37 11
-4 -5 -2 20259.0 1442.86 10
-4 -5 -2 19844.6 1549.84 8
-4 -5 -2 18624.2 1389.23 7
4 -5 2 20373.6 1536.41 1
-4 -5 -2 18950.9 1501.24 11
-4 -5 -3 31486.0 1933.17 7
4 -5 3 33774.1 2024.95 1
-4 -5 -3 31507.0 2061.25 11
-4 -5 -4 9740.26 1120.19 7
4 -5 4 11736.5 1162.06 1
-4 -5 -4 12678.4 1341.30 11
4 -5 5 1596.07 487.178 3
-4 -5 -5 3941.95 804.552 11
4 -5 5 2498.51 566.016 1
-4 -5 -5 3832.89 749.067 7
-4 -5 -6 3382.78 748.102 11
-4 -5 -6 4430.50 857.915 7
4 -5 6 2931.45 675.243 3
-4 -5 -7 2402.98 651.299 9
4 -5 7 3274.45 764.031 3
-4 -4 10 12056.5 1448.08 3
4 -4 -9 4968.21 763.287 1
4 -4 -9 4180.21 692.871 7
-4 -4 9 5004.14 881.556 3
4 -4 -8 19207.8 1499.55 1
-4 -4 8 16535.9 1490.64 3
4 -4 -7 16247.9 1366.05 1
-4 -4 7 14252.0 1286.47 3
4 -4 -6 14725.1 1287.08 1
-4 -4 6 14343.9 1203.29 3
-4 -4 5 3801.47 674.438 8
-4 -4 5 4409.60 606.527 3
4 -4 -5 4319.41 699.996 1
4 -4 -4 57330.8 2633.65 1
-4 -4 4 56167.7 2670.00 8
-4 -4 4 61689.8 2198.44 3
4 -4 -3 20728.2 1498.66 1
-4 -4 3 19214.5 1457.06 8
-4 -4 3 18787.6 982.720 3
-4 -4 2 4094.82 564.446 11
-4 -4 2 3806.62 577.948 10
-4 -4 2 3781.67 643.650 8
4 -4 -2 4117.48 667.811 1
4 -4 -1 63125.1 1349.01 2
-4 -4 1 63144.5 2561.97 10
4 -4 -1 65705.6 2764.13 1
4 -4 -1 63515.0 1353.59 2
-4 -4 1 64003.6 2762.98 8
-4 -4 1 62057.7 2474.36 11
4 -4 0 24449.2 1619.55 1
-4 -4 0 26672.5 1580.21 10
-4 -4 0 23940.1 1616.30 8
-4 -4 0 23221.3 1310.32 7
4 -4 0 24980.9 1020.31 2
-4 -4 0 26431.1 1598.51 11
4 -4 1 8835.01 949.414 1
-4 -4 -1 10706.8 1004.03 10
-4 -4 -1 9554.07 1020.74 8
-4 -4 -1 9992.51 900.683 7
-4 -4 -1 9458.22 978.067 11
-4 -4 -2 3864.95 626.805 10
4 -4 2 3610.00 623.216 1
-4 -4 -2 2685.56 561.170 8
-4 -4 -2 2938.32 520.703 7
-4 -4 -2 3559.39 623.096 11
-4 -4 -3 10585.1 1066.11 7
4 -4 3 9098.39 970.813 1
-4 -4 -3 10145.4 1110.28 11
-4 -4 -4 3474.06 692.262 11
-4 -4 -4 2335.64 574.977 7
4 -4 4 2605.44 531.513 1
4 -4 5 8821.01 1078.49 3
-4 -4 -5 8088.81 1069.48 11
-4 -4 -5 10109.5 1176.89 7
4 -4 5 9517.53 1001.42 1
-4 -4 -6 17450.5 1649.85 9
-4 -4 -6 17673.1 1657.47 7
4 -4 6 19071.1 1649.22 3
-4 -4 -6 21811.3 1832.44 11
-4 -4 -7 45.5244 247.656 11
-4 -4 -7 1047.44 491.678 9
-4 -4 -7 526.778 401.873 7
4 -4 7 12.2872 240.330 3
4 -4 8 16501.7 1683.30 3
-4 -3 11 4096.77 883.342 3
-4 -3 10 19625.4 1839.12 3
4 -3 -9 2249.22 608.947 4
4 -3 -9 2596.35 560.228 1
-4 -3 9 1439.04 490.873 3
4 -3 -8 28929.7 2104.68 4
4 -3 -8 25131.6 1707.09 1
-4 -3 8 26171.7 1892.39 3
4 -3 -7 15634.0 1474.57 4
4 -3 -7 16178.1 1329.84 1
-4 -3 7 17520.7 1425.27 3
4 -3 -6 18374.3 1514.20 4
-4 -3 6 18034.1 1351.68 3
4 -3 -5 5161.63 770.253 4
-4 -3 5 4425.48 700.658 8
-4 -3 5 4993.12 649.526 3
4 -3 -4 19366.9 1408.51 4
-4 -3 4 19217.3 1438.12 8
-4 -3 4 18401.2 1128.00 3
4 -3 -3 16123.3 1206.14 4
-4 -3 3 17518.2 1336.01 8
4 -3 -3 14401.4 1228.53 1
4 -3 -2 20188.1 1277.07 4
-4 -3 2 21890.2 1416.17 10
4 -3 -2 21192.2 1462.22 1
-4 -3 2 19339.2 1390.10 8
-4 -3 1 77272.9 2844.00 10
4 -3 -1 75281.4 1672.44 2
4 -3 -1 71907.3 2870.74 1
-4 -3 1 72984.9 2906.68 8
-4 -3 1 76340.2 2724.31 11
4 -3 -1 72789.9 2496.93 4
-4 -3 0 7242.34 813.827 10
-4 -3 0 6283.94 805.674 8
4 -3 0 6813.78 514.348 2
4 -3 0 6010.16 765.479 1
-4 -3 0 7243.18 805.480 11
-4 -3 -1 16455.7 1256.96 10
4 -3 1 14894.8 1196.28 1
-4 -3 -1 15908.6 1285.02 8
4 -3 1 15257.9 927.865 2
-4 -3 -1 13236.4 1139.16 11
-4 -3 -2 1633.90 421.304 11
-4 -3 -2 2155.07 468.958 10
4 -3 2 1045.61 328.042 1
-4 -3 -3 19668.9 1475.85 10
-4 -3 -3 18964.6 1416.13 7
-4 -3 -3 19897.1 1510.04 11
4 -3 3 19499.2 1374.24 1
-4 -3 -4 73925.1 3130.84 7
4 -3 4 68681.3 2905.13 3
4 -3 4 76771.4 2879.56 1
-4 -3 -4 70024.1 3130.78 11
-4 -3 -5 6470.66 924.589 11
4 -3 5 6478.55 781.626 1
4 -3 5 6842.72 894.041 3
-4 -3 -6 3275.22 712.040 11
-4 -3 -6 3826.00 789.196 9
4 -3 6 2664.00 595.377 3
-4 -3 -7 8442.43 1159.78 11
-4 -3 -7 7888.88 1162.66 9
4 -3 7 7114.51 1009.74 3
4 -3 8 3942.93 807.373 3
4 -2 -11 300.322 377.447 4
-4 -2 11 621.386 402.101 3
4 -2 -10 29750.2 2314.66 4
-4 -2 10 33503.4 2422.67 3
4 -2 -9 10998.3 1337.73 4
-4 -2 9 12181.4 1373.88 3
4 -2 -8 19760.3 1706.27 4
-4 -2 8 20178.2 1660.21 3
4 -2 -8 19664.8 1242.14 7
-4 -2 8 20722.5 1274.53 12
4 -2 -7 1405.76 451.482 4
-4 -2 7 2034.48 515.758 3
-4 -2 7 2340.20 433.085 12
4 -2 -6 13208.0 1267.71 4
-4 -2 6 12461.4 1131.23 3
-4 -2 6 15923.6 1127.10 12
4 -2 -5 13683.3 1213.38 4
-4 -2 5 11793.9 1108.63 8
-4 -2 5 13782.0 1080.00 3
4 -2 -5 13389.7 840.530 5
-4 -2 5 13395.4 1038.77 12
4 -2 -4 34028.6 1862.99 4
-4 -2 4 31454.4 1804.40 8
-4 -2 4 36867.3 1792.20 12
4 -2 -3 13511.4 1081.56 4
-4 -2 3 11840.4 1061.65 8
-4 -2 3 15586.3 1132.82 12
4 -2 -2 59228.8 2285.09 4
-4 -2 2 61029.6 2504.26 10
-4 -2 2 57997.4 2487.51 8
-4 -2 2 57663.8 2371.37 12
4 -2 -1 27972.6 1388.18 4
-4 -2 1 29406.8 1656.63 10
4 -2 -1 28271.2 969.304 2
-4 -2 1 26920.5 1623.08 8
4 -2 0 14814.0 907.330 4
-4 -2 0 15074.4 1175.42 10
-4 -2 0 14690.0 1194.03 8
4 -2 0 15658.4 833.466 2
-4 -2 0 16359.7 1194.57 11
-4 -2 -1 5437.67 702.439 11
-4 -2 -1 7251.94 828.968 10
4 -2 1 5623.96 708.307 1
-4 -2 -1 6542.81 809.137 8
4 -2 1 6204.81 600.540 2
4 -2 1 5973.04 485.620 4
-4 -2 -2 23848.0 1579.21 10
4 -2 2 23605.1 1489.97 1
4 -2 2 26430.3 1410.94 2
-4 -2 -2 24096.0 1570.48 11
4 -2 3 17080.1 1229.03 1
-4 -2 -3 14720.1 1283.65 10
4 -2 3 18113.8 1264.99 2
-4 -2 -3 15538.6 1304.41 11
4 -2 4 13969.3 1150.55 3
-4 -2 -4 14672.8 1311.28 11
4 -2 4 12709.2 1048.73 1
-4 -2 -5 1845.62 507.502 11
-4 -2 -5 2243.61 557.265 9
4 -2 5 2379.14 456.233 1
4 -2 5 1782.48 438.446 3
-4 -2 -6 15856.8 1578.64 9
4 -2 6 16332.4 1377.21 3
-4 -2 -6 15192.2 1442.16 11
-4 -2 -7 10550.6 1356.56 9
4 -2 7 12665.6 1291.24 3
-4 -2 -7 11503.1 1319.55 11
-4 -2 -8 5707.53 966.934 11
4 -2 8 5513.77 1023.05 2
4 -2 8 4399.40 813.745 3
4 -1 -11 7022.90 1160.04 4
-4 -1 11 7229.15 1194.54 3
4 -1 -10 1406.86 495.638 4
-4 -1 10 1849.81 587.985 3
4 -1 -9 2646.44 667.994 4
-4 -1 9 1892.24 560.986 3
-4 -1 9 3229.17 533.702 12
4 -1 -8 9930.78 1189.04 4
-4 -1 8 6967.57 980.443 3
-4 -1 8 6849.47 759.713 12
4 -1 -7 56.7393 255.610 4
-4 -1 7 41.3824 70.7880 6
-4 -1 7 -151.404 185.948 3
-4 -1 7 197.786 177.558 12
4 -1 -6 29570.3 1889.00 4
-4 -1 6 29290.1 1773.42 3
-4 -1 6 29234.6 1241.34 6
4 -1 -6 29233.8 1113.63 5
-4 -1 6 32932.1 1689.42 12
4 -1 -5 3769.56 629.034 4
-4 -1 5 4634.99 656.725 8
4 -1 -5 4821.21 474.337 5
-4 -1 5 4950.97 635.346 12
4 -1 -4 24109.5 1530.20 4
-4 -1 4 24074.8 1427.83 12
-4 -1 4 20630.3 1100.26 2
-4 -1 4 24464.8 1525.10 8
4 -1 -4 25615.6 1214.70 5
4 -1 -3 34408.7 1746.38 4
-4 -1 3 33309.7 1397.34 2
-4 -1 3 31021.0 1710.48 8
-4 -1 3 32778.8 1688.90 12
4 -1 -2 4309.08 337.239 2
4 -1 -2 4753.93 587.354 4
-4 -1 2 4013.86 597.283 8
-4 -1 2 4027.90 592.193 12
-4 -1 2 3836.71 453.806 2
4 -1 -1 39088.0 1659.82 4
-4 -1 1 40847.9 1973.37 10
-4 -1 1 40893.5 1937.51 12
4 -1 -1 37155.3 1310.88 2
-4 -1 1 36544.2 1869.42 8
-4 -1 1 39576.2 1614.40 2
4 -1 0 7981.58 650.954 4
-4 -1 0 8750.09 882.322 10
-4 -1 0 8009.01 850.220 8
4 -1 0 7495.98 608.124 2
-4 -1 0 8586.93 865.354 12
4 -1 1 10389.1 675.035 4
-4 -1 -1 10706.6 1004.68 10
-4 -1 -1 10607.0 1007.59 8
4 -1 1 10360.8 809.811 2
-4 -1 -1 10259.0 967.284 11
4 -1 2 2645.11 275.769 4
4 -1 2 3140.07 489.139 2
-4 -1 -2 3204.76 558.587 11
-4 -1 -2 1585.76 429.833 10
4 -1 3 685.881 232.322 3
-4 -1 -3 1002.90 341.441 11
4 -1 3 215.777 194.838 2
-4 -1 -3 997.718 358.680 10
4 -1 3 869.570 287.451 1
4 -1 4 8612.25 826.831 1
4 -1 4 9063.43 995.121 2
4 -1 4 8728.13 844.918 3
-4 -1 -4 7998.87 955.376 11
-4 -1 -5 13083.5 1350.37 9
4 -1 5 13661.8 1310.62 2
4 -1 5 12776.6 1091.16 3
4 -1 5 14441.8 1040.61 1
-4 -1 -5 13674.3 1295.41 11
4 -1 6 9732.35 1165.83 2
-4 -1 -6 11241.3 1321.16 9
4 -1 6 9819.61 1019.37 3
-4 -1 -6 9614.09 1126.76 11
-4 -1 -7 922.708 386.330 11
4 -1 7 483.523 429.285 2
-4 -1 -7 1212.43 511.770 9
4 -1 7 684.644 288.513 3
-4 -1 -8 1914.48 548.652 11
4 -1 8 1217.37 513.337 2
4 0 -11 5470.32 1008.58 4
-4 0 11 2723.97 773.492 3
4 0 -10 1329.02 467.706 4
-4 0 10 1554.61 535.157 3
4 0 -9 21690.3 1853.10 4
-4 0 9 22385.3 1865.64 3
-4 0 9 20843.9 1403.41 12
4 0 -8 55240.6 2868.70 4
-4 0 8 52752.1 2807.62 3
-4 0 8 54828.7 1877.54 6
-4 0 8 57152.3 2388.06 12
4 0 -7 1979.53 522.641 4
4 0 -7 2241.01 284.428 7
-4 0 7 1685.96 304.033 6
-4 0 7 1542.63 436.213 3
-4 0 7 2902.53 503.389 12
-4 0 6 5577.63 550.078 2
4 0 -6 5466.25 800.526 4
-4 0 6 6016.09 572.399 6
4 0 -6 5772.95 442.890 5
-4 0 6 4815.41 643.219 12
4 0 -5 -136.552 192.442 4
-4 0 5 175.785 196.149 8
-4 0 5 27.7017 112.432 6
-4 0 5 237.371 120.850 2
4 0 -5 54.0163 106.406 5
-4 0 5 168.674 204.849 12
-4 0 4 57126.0 1750.34 2
-4 0 4 59665.0 2408.13 8
4 0 -4 58219.5 2475.82 4
-4 0 4 54785.0 2011.35 6
4 0 -4 59762.3 1984.80 5
-4 0 4 59581.8 2374.25 12
4 0 -3 49146.2 1529.03 2
4 0 -3 47552.0 2118.56 4
-4 0 3 50848.2 2158.03 8
-4 0 3 48277.3 1551.80 2
-4 0 3 49968.0 1924.37 6
-4 0 3 50669.8 2159.82 12
4 0 -2 71066.6 2545.39 4
4 0 -2 73874.6 2052.07 2
-4 0 2 73631.3 2674.32 8
-4 0 2 72716.1 2069.44 2
4 0 -2 77539.5 2483.24 3
-4 0 2 71867.8 2687.10 12
4 0 -1 13386.0 937.608 4
-4 0 1 11004.5 987.957 10
4 0 -1 10932.4 736.082 2
-4 0 1 10341.2 941.208 8
4 0 -1 12951.2 864.391 3
-4 0 1 12817.8 1035.71 12
4 0 0 14278.8 908.435 4
-4 0 0 12847.6 1091.77 10
-4 0 0 12833.9 822.438 4
4 0 0 12516.8 853.061 2
-4 0 0 11359.8 1001.67 8
-4 0 0 13164.5 1068.82 12
4 0 1 4597.55 470.439 4
-4 0 -1 6724.06 788.402 10
4 0 1 4900.84 574.865 2
-4 0 -1 5492.18 687.490 12
4 0 2 53320.1 1647.07 4
-4 0 -2 58609.2 2544.81 10
4 0 2 52750.1 2212.71 2
4 0 3 3486.68 572.053 2
4 0 3 5086.46 357.528 4
-4 0 -3 5462.87 774.283 10
4 0 3 5681.01 584.476 3
4 0 4 1783.64 471.925 2
-4 0 -4 895.423 351.314 11
4 0 4 1034.49 293.365 3
4 0 4 1690.54 372.404 1
4 0 5 1396.79 433.751 2
-4 0 -5 1484.37 430.671 11
-4 0 -5 2945.75 651.046 9
4 0 5 2089.94 397.934 1
4 0 5 1151.29 309.834 3
-4 0 -6 7309.51 973.778 11
4 0 6 7235.56 1030.52 2
-4 0 -6 8462.92 1152.27 9
4 0 6 8096.50 884.353 3
-4 0 -7 18255.4 1587.90 11
-4 0 -7 18221.8 1771.93 9
4 0 7 17661.5 1706.39 2
4 0 8 19085.0 1895.00 2
-4 0 -8 16057.6 1548.65 11
4 1 -11 7055.57 1155.68 4
-4 1 11 7774.33 1250.64 3
4 1 -10 668.409 413.407 4
-4 1 10 1812.44 645.812 3
4 1 -9 2919.56 686.043 4
-4 1 9 2128.80 460.571 12
4 1 -8 5765.15 920.676 4
-4 1 8 8276.26 737.488 6
-4 1 8 7948.05 879.167 12
-4 1 7 197.191 194.333 12
4 1 -7 272.242 300.998 4
-4 1 7 316.341 183.515 6
4 1 -6 31513.4 1940.37 4
-4 1 6 29976.7 1190.70 2
-4 1 6 26273.8 1594.51 8
-4 1 6 31168.6 1474.47 6
4 1 -6 31029.6 1148.45 5
-4 1 6 32110.8 1747.99 12
-4 1 5 4871.04 393.260 2
4 1 -5 4212.14 680.989 4
-4 1 5 4926.36 643.578 8
4 1 -5 5169.31 299.958 7
-4 1 5 4564.74 557.714 6
4 1 -5 6003.45 526.400 5
-4 1 5 4673.54 639.354 12
4 1 -4 23537.2 1513.33 4
-4 1 4 23518.4 810.269 2
-4 1 4 22041.7 1347.10 8
4 1 -4 22903.4 862.912 7
-4 1 4 23625.0 1283.65 6
4 1 -4 22785.7 1160.93 5
-4 1 4 22744.8 1432.71 12
4 1 -3 31199.9 1322.72 2
4 1 -3 30620.7 1675.82 4
-4 1 3 32596.0 1638.16 8
4 1 -3 32219.1 1199.23 7
4 1 -3 32478.4 1475.32 3
-4 1 3 32092.9 1541.53 6
-4 1 3 34321.1 1759.15 12
4 1 -2 3996.88 458.778 2
-4 1 2 5370.45 676.829 12
4 1 -2 4060.96 562.206 4
-4 1 2 3560.18 515.088 8
4 1 -2 5570.63 512.119 7
4 1 -2 4168.06 464.758 3
-4 1 2 4079.05 539.845 6
4 1 -1 38022.8 1719.64 4
-4 1 1 40703.3 1985.32 10
4 1 -1 36998.8 1577.17 2
-4 1 1 35947.1 1772.59 8
4 1 -1 41417.1 1489.72 3
-4 1 1 40915.6 1823.94 6
-4 1 1 41342.8 1953.55 12
4 1 0 8368.41 712.857 4
-4 1 0 8892.89 902.391 10
-4 1 0 7477.74 603.549 4
4 1 0 7592.33 702.507 2
-4 1 0 8500.56 847.382 8
4 1 0 8257.37 582.492 3
-4 1 0 7792.95 823.047 12
4 1 1 11363.2 788.165 4
-4 1 -1 10864.0 1022.73 10
-4 1 -1 10481.6 647.000 4
4 1 1 9639.13 860.833 2
-4 1 -1 12282.4 1039.41 12
-4 1 -2 3334.76 584.427 10
4 1 2 2301.21 329.666 4
4 1 2 3876.35 602.196 2
-4 1 -2 2239.69 478.569 12
4 1 2 2646.68 324.164 3
-4 1 -3 1223.76 367.416 10
4 1 3 901.219 210.331 4
4 1 3 775.524 204.269 3
4 1 3 665.951 271.751 2
4 1 4 9374.41 1027.98 2
4 1 4 8530.57 702.801 3
4 1 5 14321.9 981.394 1
-4 1 -5 11517.5 1269.53 9
4 1 5 12801.4 1301.52 2
4 1 5 15313.0 1036.67 3
4 1 6 10699.7 1263.31 2
-4 1 -6 12116.8 1366.10 9
4 1 7 909.995 473.412 2
-4 1 -7 764.276 425.567 9
4 1 8 1715.45 598.172 2
4 2 -11 84.6131 281.372 4
4 2 -10 33700.5 2426.57 4
-4 2 10 34482.9 2029.39 12
4 2 -9 9823.24 1242.23 4
-4 2 9 10961.2 947.563 6
-4 2 9 12958.6 1195.83 12
4 2 -8 22976.1 1812.93 4
-4 2 8 17546.0 1206.63 6
-4 2 8 21087.3 1506.23 12
-4 2 7 2536.02 525.258 12
4 2 -7 2460.85 603.361 4
-4 2 7 2885.30 468.174 6
4 2 -6 14042.2 1299.31 4
-4 2 6 14750.2 1112.03 8
-4 2 6 13444.6 1022.76 6
-4 2 6 17059.6 1292.77 12
4 2 -5 12511.4 1165.35 4
-4 2 5 12317.2 980.137 8
-4 2 5 13160.7 994.484 6
4 2 -5 12014.6 768.526 6
-4 2 5 11815.6 1068.05 12
4 2 -4 33273.8 1533.18 2
4 2 -4 34366.7 1882.92 4
-4 2 4 32706.3 1581.00 8
4 2 -4 31843.4 891.428 7
-4 2 4 34404.3 1659.43 6
4 2 -4 33409.8 1414.32 6
-4 2 4 38244.0 1928.53 12
4 2 -3 12586.5 890.160 2
4 2 -3 12940.5 1086.40 4
-4 2 3 14806.6 1021.76 8
4 2 -3 12839.4 668.993 7
4 2 -3 13100.9 858.865 3
-4 2 3 14433.0 1041.23 6
-4 2 3 15560.3 1188.56 12
-4 2 2 60517.1 2472.86 10
4 2 -2 58784.0 2349.67 4
4 2 -2 57664.2 2114.32 2
-4 2 2 59095.3 2222.85 8
4 2 -2 59104.9 1882.25 7
4 2 -2 61979.5 1850.07 3
-4 2 2 56497.4 2252.03 6
-4 2 2 62971.5 2508.01 12
4 2 -1 27471.7 1464.16 4
-4 2 1 29976.9 1672.88 10
4 2 -1 28345.1 1451.17 2
-4 2 1 26106.9 1433.30 8
4 2 -1 27036.5 1017.08 3
-4 2 1 25929.3 1477.52 6
-4 2 1 30074.1 1661.13 12
4 2 0 15234.9 1030.63 4
-4 2 0 15653.5 1205.17 10
-4 2 0 13949.2 839.477 4
4 2 0 15899.9 1110.68 2
4 2 0 15510.9 637.580 3
-4 2 0 14780.9 1123.05 6
-4 2 0 18038.9 1260.83 12
4 2 1 6138.07 625.542 4
-4 2 -1 7708.44 848.906 10
-4 2 -1 5988.28 463.738 4
4 2 1 6302.66 730.499 2
4 2 1 6555.48 386.408 3
4 2 1 6584.82 354.750 3
-4 2 -1 6025.43 732.503 12
4 2 2 24464.1 1234.76 4
-4 2 -2 27447.8 1683.28 10
4 2 2 24442.6 1549.16 2
4 2 2 24791.1 844.454 3
-4 2 -2 24836.1 1519.94 12
4 2 3 15589.4 942.400 4
-4 2 -3 14065.7 1243.78 10
4 2 3 17819.1 1386.27 2
4 2 3 17102.9 778.108 3
-4 2 -3 16318.5 1223.51 12
4 2 4 13789.1 841.832 4
4 2 4 11780.3 1206.14 2
-4 2 -5 3094.25 699.972 9
4 2 5 1782.66 505.976 2
-4 2 -6 14806.8 1528.55 9
4 2 6 15597.9 1559.20 2
-4 2 -7 11752.2 1451.11 9
4 2 7 9039.77 1254.19 2
4 3 -11 4139.12 911.755 4
4 3 -10 17606.5 1756.59 4
-4 3 10 18454.2 1528.65 12
4 3 -9 997.961 420.605 4
-4 3 9 2869.56 599.284 12
-4 3 9 2486.89 503.634 6
4 3 -8 25849.9 1968.27 4
-4 3 8 28363.2 1665.41 6
-4 3 8 30540.6 1900.02 12
4 3 -7 17404.2 1522.79 4
-4 3 7 17641.1 1206.89 8
-4 3 7 17169.0 1257.65 6
-4 3 7 17778.1 1416.58 12
4 3 -6 16749.0 1435.08 4
-4 3 6 16607.6 1127.35 8
-4 3 6 16906.4 1224.23 6
-4 3 6 17321.3 1367.70 12
4 3 -5 4971.21 752.255 4
-4 3 5 4254.52 532.329 8
4 3 -5 4966.74 457.551 6
-4 3 5 3947.11 575.596 6
-4 3 5 3990.72 644.842 12
4 3 -4 17408.5 1172.10 2
4 3 -4 16492.9 1322.79 4
-4 3 4 17075.6 1079.07 8
-4 3 4 20337.1 1312.78 6
4 3 -4 20096.2 1034.44 6
-4 3 4 20221.1 1423.60 12
4 3 -3 15982.0 1098.18 2
4 3 -3 17006.7 1281.45 4
-4 3 3 15281.4 1000.15 8
4 3 -3 15950.1 895.007 3
-4 3 3 15494.9 1145.17 6
-4 3 3 16063.6 1063.14 5
-4 3 3 14315.7 1179.12 12
-4 3 2 18984.3 1328.79 10
4 3 -2 20652.3 1361.40 4
4 3 -2 17852.0 1190.78 2
-4 3 2 19661.8 1158.66 8
4 3 -2 19382.1 974.738 7
-4 3 2 20721.5 1325.75 6
4 3 -2 18410.9 831.278 3
-4 3 2 19503.4 1228.04 5
-4 3 2 18565.1 1329.62 12
-4 3 1 82936.7 2946.46 10
4 3 -1 72384.6 2692.53 4
4 3 -1 76333.9 2737.71 2
-4 3 1 75464.3 2767.58 6
4 3 -1 76528.2 1649.21 3
-4 3 1 75752.1 2878.40 12
-4 3 0 7800.82 629.021 4
4 3 0 6959.58 734.054 4
-4 3 0 6722.04 782.107 10
-4 3 0 5842.48 733.116 12
-4 3 0 5902.05 722.274 6
4 3 0 6252.24 741.109 2
-4 3 -1 15966.9 794.929 4
-4 3 -1 16912.6 1274.27 10
4 3 1 14776.4 1045.95 4
4 3 1 13474.9 1137.96 2
-4 3 -1 14480.8 1160.14 6
-4 3 -1 16169.0 1219.83 12
-4 3 -2 1869.71 435.045 10
4 3 2 1479.75 338.019 4
4 3 2 1896.42 468.077 2
-4 3 -2 1946.42 429.027 12
-4 3 -3 20546.9 1506.57 10
4 3 3 22679.2 1254.53 4
4 3 3 19533.6 1516.94 2
-4 3 -3 21139.1 1408.42 12
4 3 4 79690.1 2586.68 4
4 3 4 78797.4 3416.27 2
-4 3 -4 82683.2 3011.69 12
4 3 5 7364.09 1037.76 2
-4 3 -6 3391.28 748.357 9
4 3 6 3061.54 707.237 2
-4 3 -7 7691.43 1158.32 9
4 3 7 6775.67 1116.45 2
4 4 -10 10938.9 1399.82 4
4 4 -9 5373.32 970.144 4
-4 4 9 4446.96 721.900 6
4 4 -8 16562.6 1594.70 4
-4 4 8 17429.7 1368.04 6
4 4 -7 14572.3 1440.33 4
-4 4 7 15836.1 1072.84 8
-4 4 7 13511.3 1179.94 6
4 4 -6 11889.9 1243.74 4
-4 4 6 12509.1 908.167 8
-4 4 6 14072.2 1180.54 6
-4 4 6 13531.4 893.860 5
-4 4 5 5216.43 771.819 12
-4 4 5 3930.31 507.542 5
4 4 -5 5097.82 784.636 4
-4 4 5 3558.93 468.082 8
-4 4 5 4350.48 655.521 6
4 4 -4 54942.5 2368.35 2
4 4 -4 53348.2 2541.54 4
-4 4 4 53885.6 1939.62 8
4 4 -4 57482.7 1892.26 6
-4 4 4 56668.1 2439.53 6
4 4 -4 55206.6 2022.58 3
-4 4 4 58905.5 2207.16 5
-4 4 4 61771.4 2704.13 12
4 4 -3 18843.5 1296.18 2
4 4 -3 17717.8 1354.54 4
-4 4 3 19518.1 1074.54 8
-4 4 3 17257.0 1275.79 6
4 4 -3 18707.3 938.760 3
-4 4 3 18750.1 1213.58 5
-4 4 3 18598.3 1388.56 12
-4 4 2 4224.72 611.457 10
4 4 -2 3838.96 613.920 4
4 4 -2 4769.17 645.859 2
-4 4 2 4298.65 632.837 6
-4 4 2 3376.47 530.482 5
-4 4 2 3459.83 587.285 12
-4 4 1 70387.4 2693.39 10
4 4 -1 64395.9 2589.57 4
4 4 -1 61484.2 2573.51 2
-4 4 1 63127.6 2610.32 6
-4 4 1 63711.2 2548.07 5
-4 4 1 64904.0 2699.97 12
-4 4 0 23773.2 1220.15 4
-4 4 0 25984.7 1573.64 10
4 4 0 24692.5 1491.99 4
4 4 0 24931.9 1602.03 2
-4 4 0 23762.7 1520.37 6
-4 4 0 24615.4 1560.96 5
-4 4 0 24841.2 1570.47 12
-4 4 -1 9341.69 644.981 4
-4 4 -1 10362.4 998.473 10
4 4 1 10528.9 941.296 4
4 4 1 10673.1 1067.50 2
-4 4 -1 9562.17 966.679 6
-4 4 -1 11010.9 1052.51 5
-4 4 -1 10973.3 1019.91 12
-4 4 -2 3726.34 608.715 10
4 4 2 3552.88 546.445 4
-4 4 -2 3587.89 621.421 6
4 4 2 4212.40 703.893 2
-4 4 -2 3132.47 544.256 12
-4 4 -3 9031.20 985.939 10
4 4 3 9767.73 888.229 4
4 4 3 7095.47 959.752 2
-4 4 -3 10762.1 992.464 12
4 4 4 2770.50 491.526 4
4 4 4 3002.76 650.959 2
-4 4 -4 3097.91 544.554 12
4 4 5 6433.74 1004.84 2
4 4 6 16940.6 1713.71 2
-4 4 -7 -45.1688 203.831 9
4 4 7 -93.4894 256.977 2
4 5 -10 8310.63 1231.11 4
-4 5 10 8351.29 1041.96 6
4 5 -9 17031.0 1708.24 4
-4 5 9 13988.3 1338.69 6
4 5 -8 14537.2 1523.34 4
-4 5 8 12599.3 1235.03 6
4 5 -7 11713.7 1313.96 4
-4 5 7 10422.1 1100.92 6
4 5 -6 3434.48 688.924 4
-4 5 6 2439.42 553.711 6
-4 5 6 2827.24 443.114 5
4 5 -5 36636.7 2187.54 4
-4 5 5 35420.9 1382.00 8
-4 5 5 34915.0 1999.93 6
-4 5 5 35947.1 1714.07 5
-4 5 4 4492.59 448.540 8
4 5 -4 4996.03 771.682 4
-4 5 4 5453.71 664.789 5
4 5 -4 4812.10 700.293 2
-4 5 4 4643.82 701.747 6
4 5 -3 17371.5 1328.49 2
4 5 -3 20197.3 1504.57 4
-4 5 3 19638.2 1440.34 6
-4 5 3 19838.8 1317.79 5
-4 5 3 18760.7 1470.84 12
-4 5 2 4181.29 618.611 5
-4 5 2 4118.84 614.871 10
4 5 -2 4682.98 711.202 4
4 5 -2 4448.09 673.792 2
-4 5 2 3974.63 629.452 6
-4 5 2 5504.03 785.004 12
-4 5 1 58019.5 2441.53 10
4 5 -1 53994.7 2514.58 2
4 5 -1 56079.0 2508.08 4
-4 5 1 51492.9 2426.43 6
-4 5 1 54400.9 2423.31 5
-4 5 1 62489.9 2668.78 12
-4 5 0 34522.1 1819.10 10
4 5 0 32355.8 1828.56 4
4 5 0 28067.9 1810.96 2
-4 5 0 28717.6 1754.15 6
-4 5 0 32449.6 1862.34 5
-4 5 0 34075.8 1912.68 12
-4 5 -1 12723.4 1099.01 10
4 5 1 10252.2 996.507 4
4 5 1 10497.0 1116.83 2
-4 5 -1 10805.4 1063.97 6
-4 5 -1 12504.2 1167.33 5
-4 5 -1 10995.3 1062.83 12
-4 5 -2 19378.7 1421.46 10
4 5 2 19877.7 1387.89 4
4 5 2 18734.4 1546.26 2
-4 5 -2 21815.8 1538.78 6
-4 5 -2 19716.0 1525.28 5
-4 5 -2 19156.2 1395.16 12
4 5 3 31950.0 1799.53 4
4 5 3 36532.1 2266.15 2
-4 5 -3 32142.1 2031.74 5
-4 5 -3 34640.7 1882.31 12
4 5 4 11311.3 1045.91 4
4 5 4 9911.08 1222.57 2
-4 5 -4 12700.1 1101.63 12
4 5 5 2680.09 700.759 2
-4 5 -5 3143.38 533.179 12
4 5 6 2090.98 639.947 2
-4 6 10 7508.83 1054.28 6
4 6 -9 8885.85 1245.94 4
-4 6 9 10300.5 1197.78 6
4 6 -8 3834.25 818.276 4
-4 6 8 2589.42 603.037 6
4 6 -7 3177.94 700.446 4
-4 6 7 3964.41 734.146 6
-4 6 6 3580.08 535.193 5
4 6 -6 3054.46 689.204 4
-4 6 6 3009.49 633.244 6
4 6 -5 7563.33 1028.79 4
-4 6 5 9106.42 1042.49 6
-4 6 5 7827.86 838.351 5
4 6 -4 2842.68 618.860 4
4 6 -4 2610.33 560.766 2
-4 6 4 2298.67 537.360 6
-4 6 4 1644.47 400.995 5
-4 6 3 6923.96 809.778 10
4 6 -3 6378.62 892.651 4
4 6 -3 4830.67 752.597 2
-4 6 3 6315.51 855.661 6
-4 6 3 7414.93 837.356 5
-4 6 2 2440.55 472.197 10
4 6 -2 3193.01 649.280 4
4 6 -2 3228.37 622.851 2
-4 6 2 3244.53 601.275 6
-4 6 2 2794.50 578.071 12
-4 6 2 2715.12 535.241 5
-4 6 1 18750.9 1319.76 10
4 6 -1 16628.5 1411.26 2
4 6 -1 18671.2 1461.94 4
-4 6 1 15747.5 1344.45 6
-4 6 1 18770.4 1427.39 5
-4 6 1 21997.2 1597.73 12
-4 6 0 1665.16 383.301 10
-4 6 0 441.113 252.685 5
4 6 0 804.215 322.621 4
4 6 0 1329.21 446.166 2
-4 6 0 1468.47 429.678 6
-4 6 0 1630.90 441.666 12
-4 6 -1 21246.2 1443.66 10
4 6 1 20478.0 1507.09 4
4 6 1 20145.4 1646.88 2
-4 6 -1 19452.6 1493.31 6
-4 6 -1 18780.7 1510.86 5
-4 6 -1 18914.2 1437.26 12
-4 6 -2 10005.5 1003.55 10
4 6 2 9350.86 1017.41 4
-4 6 -2 8495.57 990.513 6
4 6 2 7777.34 1044.83 2
-4 6 -2 9280.45 990.576 12
-4 6 -2 8887.26 1064.88 5
4 6 3 9040.05 1005.22 4
4 6 3 11729.1 1336.71 2
-4 6 -3 9950.44 1092.36 6
-4 6 -3 9619.50 988.853 12
-4 6 -3 9505.80 1117.61 5
4 6 4 5491.04 785.993 4
4 6 4 4358.17 859.668 2
-4 6 -4 4667.67 812.331 5
-4 6 -4 4612.92 669.733 12
4 6 5 5352.26 771.412 4
4 6 5 4845.33 924.468 2
-4 7 9 3646.50 771.288 6
4 7 -8 15825.9 1669.89 4
-4 7 8 14250.1 1479.19 6
4 7 -7 2350.35 638.884 4
-4 7 7 2537.41 620.667 6
4 7 -6 7262.84 1082.60 4
-4 7 6 8450.23 1080.19 6
-4 7 6 8873.59 924.213 5
4 7 -5 2401.55 623.339 4
-4 7 5 3022.59 646.194 6
-4 7 5 2715.76 529.846 5
4 7 -4 3435.61 702.037 4
4 7 -4 3135.39 642.824 2
-4 7 4 2831.61 619.484 6
-4 7 4 2944.45 547.625 5
-4 7 3 1038.65 348.377 10
-4 7 3 551.662 282.199 5
4 7 -3 898.588 371.668 4
4 7 -3 521.475 287.920 2
-4 7 3 1905.88 523.946 6
-4 7 2 7753.56 835.398 10
4 7 -2 6285.18 901.018 4
4 7 -2 5606.12 868.081 2
-4 7 2 6554.36 891.795 6
-4 7 2 4849.22 741.420 5
4 7 -1 31772.9 2082.89 2
-4 7 1 28634.0 1657.91 10
4 7 -1 34462.5 2109.30 4
-4 7 1 30180.0 1967.83 6
-4 7 1 33067.3 2018.47 5
-4 7 1 31267.9 2012.13 12
-4 7 0 4225.30 620.048 10
4 7 0 3722.92 678.647 4
4 7 0 4268.55 776.446 2
-4 7 0 4019.21 688.035 6
-4 7 0 4797.42 759.078 12
-4 7 0 4200.05 725.002 5
-4 7 -1 2551.33 498.803 10
-4 7 -1 2821.37 619.519 5
4 7 1 2674.23 591.017 4
4 7 1 1654.25 509.080 2
-4 7 -1 1799.92 472.873 6
-4 7 -1 933.175 356.843 12
4 7 2 26487.3 1844.44 4
4 7 2 27433.9 2081.06 2
-4 7 -2 28140.7 1889.89 6
-4 7 -2 28281.2 1977.08 5
-4 7 -2 27476.0 1797.11 12
-4 7 -3 2415.95 527.963 12
4 7 3 2117.06 541.002 4
-4 7 -3 2607.88 597.365 6
4 7 3 2594.83 660.787 2
-4 7 -3 1372.28 460.334 5
4 7 4 11487.0 1223.61 4
4 7 4 15072.7 1629.33 2
-4 7 -4 12543.7 1380.16 5
4 7 5 1004.24 388.127 4
4 7 5 1668.86 589.920 2
-4 8 8 2020.86 623.564 6
4 8 -7 207.151 299.805 4
-4 8 7 582.774 372.333 6
4 8 -6 3874.96 855.811 4
-4 8 6 4040.06 787.768 6
-4 8 6 4870.23 733.466 5
4 8 -5 8453.53 1178.48 4
-4 8 5 9071.21 1162.11 6
-4 8 5 10470.2 1088.21 5
4 8 -4 13400.1 1425.53 2
-4 8 4 14540.8 1195.01 10
4 8 -4 16973.9 1612.65 4
-4 8 4 12500.9 1351.61 6
-4 8 4 15483.5 1352.23 5
-4 8 3 7644.76 839.135 10
4 8 -3 6484.73 992.273 4
4 8 -3 6462.86 977.799 2
-4 8 3 6246.24 953.785 6
-4 8 3 7962.93 988.864 5
-4 8 2 8692.88 875.646 10
4 8 -2 9243.66 1146.06 4
4 8 -2 7372.98 1035.79 2
-4 8 2 8696.81 1098.41 6
-4 8 2 10242.6 1128.35 5
-4 8 1 3097.24 524.221 10
4 8 -1 3463.98 703.641 4
4 8 -1 3449.70 730.686 2
-4 8 1 2487.09 609.895 6
-4 8 1 2660.00 599.346 12
-4 8 1 2519.26 592.568 5
-4 8 0 2292.55 480.543 10
-4 8 0 3054.02 680.393 5
-4 8 0 2031.45 536.537 12
4 8 0 1897.62 522.868 4
4 8 0 2488.95 634.737 2
-4 8 0 2248.90 571.512 6
-4 8 -1 962.413 355.143 12
4 8 1 1522.70 484.439 4
4 8 1 705.248 388.952 2
-4 8 -1 887.859 419.106 6
-4 8 -1 1727.58 511.381 5
4 8 2 2132.56 578.151 4
4 8 2 3481.03 785.150 2
-4 8 -2 2191.12 544.491 6
-4 8 -2 3094.45 700.694 5
-4 8 -2 2890.75 609.641 12
4 8 3 1335.97 447.117 4
-4 8 -3 1262.29 465.245 6
4 8 3 2775.21 713.174 2
-4 8 -3 1907.68 569.464 5
-4 8 -3 1842.58 479.983 12
4 8 4 1003.49 425.530 4
-4 8 -4 1014.32 397.468 6
4 8 4 1666.92 618.570 2
-4 8 -4 1300.18 484.371 5
4 8 5 420.671 326.185 4
-4 9 6 6842.60 935.519 5
4 9 -5 19546.8 1853.50 4
-4 9 5 15664.4 1628.95 6
-4 9 5 16404.9 1454.13 5
4 9 -4 630.720 431.633 4
4 9 -4 411.483 298.883 2
-4 9 4 489.600 359.340 6
-4 9 4 551.625 340.803 5
4 9 -3 1302.53 472.983 4
4 9 -3 380.631 272.577 2
-4 9 3 723.438 371.762 6
-4 9 3 625.677 370.715 5
4 9 -2 974.449 446.831 4
4 9 -2 1240.16 470.371 2
-4 9 2 923.976 398.450 6
-4 9 2 814.117 371.425 5
4 9 -1 -206.297 354.721 4
4 9 -1 247.250 310.248 2
-4 9 1 44.0394 192.612 6
-4 9 1 150.246 266.538 5
4 9 0 2088.98 571.051 4
4 9 0 2870.38 671.423 2
-4 9 0 3281.39 693.949 6
-4 9 0 3246.27 710.264 5
4 9 1 3838.44 791.864 4
4 9 1 2575.86 686.110 2
-4 9 -1 3110.91 680.342 6
-4 9 -1 3694.54 718.813 12
-4 9 -1 1530.30 515.773 5
4 9 2 2023.94 594.238 4
4 9 2 856.031 454.782 2
-4 9 -2 481.807 288.455 6
-4 9 -2 1203.56 450.176 5
-4 9 -2 1579.92 512.923 12
4 9 3 8513.69 1178.09 4
-4 9 -3 10409.0 1241.64 6
4 9 4 889.745 423.414 4
-4 9 -4 1498.96 472.777 6
-4 10 5 7211.78 1028.96 5
-4 10 4 842.990 431.663 5
-4 10 3 8712.13 1155.21 5
4 10 -2 1015.61 508.072 2
-4 10 2 363.530 275.820 6
-4 10 2 739.268 391.391 5
4 10 -1 9821.67 1309.84 4
-4 10 1 10223.0 1287.43 6
-4 10 1 8687.85 1192.32 5
4 10 0 9417.09 1290.58 4
-4 10 0 8440.44 1160.09 6
-4 10 0 10048.7 1239.28 12
-4 10 -1 3284.76 720.200 6
-4 10 -1 3114.13 708.456 12
-4 11 0 1416.55 528.461 12
-4 11 -1 1953.31 594.171 12
-5 -9 3 9303.79 1308.41 8
-5 -9 2 5066.67 944.645 8
-5 -9 1 1103.18 431.545 11
-5 -9 1 754.623 433.920 8
-5 -9 0 1842.68 553.618 11
-5 -9 0 2865.55 747.957 8
-5 -9 -1 4125.56 867.513 8
5 -8 -6 4901.43 938.174 1
-5 -8 5 7726.75 1185.65 8
5 -8 -5 8124.72 1185.29 1
-5 -8 4 1314.92 519.033 8
5 -8 -4 2138.33 637.019 1
-5 -8 3 1287.14 509.810 8
5 -8 -3 1260.06 549.103 1
-5 -8 2 9227.51 1223.96 8
5 -8 -2 11995.9 1456.33 1
-5 -8 2 13343.4 1274.68 11
-5 -8 1 1626.82 505.770 11
-5 -8 1 2308.14 640.794 8
5 -8 -1 2313.80 648.916 1
-5 -8 0 4575.49 809.013 11
-5 -8 0 4692.91 877.836 8
5 -8 0 5487.96 998.400 1
-5 -8 -1 9201.30 1195.35 11
-5 -8 -1 10311.4 1311.35 8
5 -8 1 9132.17 1283.85 1
5 -8 2 9949.51 1332.96 1
-5 -8 -2 10870.6 1222.68 7
-5 -8 -3 3211.03 736.987 7
5 -7 -8 304.478 327.064 1
5 -7 -7 -420.171 391.223 1
5 -7 -6 507.069 302.429 1
-5 -7 6 1096.30 462.640 8
5 -7 -5 464.571 333.621 1
-5 -7 5 956.170 388.541 10
-5 -7 5 1622.11 537.547 8
5 -7 -4 1309.82 495.794 1
-5 -7 4 946.041 387.722 10
-5 -7 4 1077.27 476.539 8
5 -7 -3 3262.67 746.711 1
-5 -7 3 3857.43 651.371 11
-5 -7 3 4503.70 731.069 10
-5 -7 3 4554.47 848.935 8
-5 -7 2 3835.58 672.323 11
-5 -7 2 5291.65 778.007 10
-5 -7 2 2978.34 716.347 8
5 -7 -2 4711.88 874.283 1
-5 -7 1 23181.1 1641.82 10
-5 -7 1 26164.1 2002.53 8
5 -7 -1 22864.0 1938.20 1
-5 -7 1 21550.6 1666.60 11
-5 -7 0 475.799 352.539 11
-5 -7 0 809.297 360.678 10
-5 -7 0 675.160 370.976 8
5 -7 0 889.570 420.835 1
-5 -7 -1 3677.18 759.018 11
-5 -7 -1 4783.32 768.865 10
-5 -7 -1 4612.60 884.125 8
-5 -7 -1 3918.22 684.755 7
5 -7 1 6070.54 1002.59 1
-5 -7 -2 13360.8 1320.26 7
5 -7 2 11981.7 1406.97 1
5 -7 3 1268.76 503.235 1
-5 -7 -3 1079.59 459.502 7
5 -7 4 2750.41 687.883 1
-5 -7 -4 2120.12 626.496 7
5 -6 -9 1639.59 575.219 1
5 -6 -8 938.949 404.423 1
-5 -6 7 9864.26 1314.80 8
5 -6 -7 7227.76 1050.45 1
-5 -6 6 554.386 383.040 8
5 -6 -6 328.361 302.527 1
-5 -6 5 1605.22 529.323 8
5 -6 -5 2086.47 576.390 1
-5 -6 4 845.644 338.700 10
-5 -6 4 1062.96 394.351 8
5 -6 -4 1691.81 549.055 1
-5 -6 3 6293.76 854.334 10
-5 -6 3 5497.14 911.662 8
5 -6 -3 4771.98 844.812 1
-5 -6 2 435.572 224.971 11
-5 -6 2 222.243 204.165 10
5 -6 -2 774.602 402.143 1
-5 -6 2 748.981 369.570 8
-5 -6 1 25780.1 1750.82 10
-5 -6 1 23499.2 1861.26 8
5 -6 -1 24463.5 1917.37 1
-5 -6 1 22262.0 1657.38 11
-5 -6 0 28344.4 1842.93 10
-5 -6 0 24392.4 1915.14 8
-5 -6 0 24970.5 1548.54 7
5 -6 0 24698.9 1926.71 1
-5 -6 0 20663.0 1668.44 11
-5 -6 -1 1438.79 473.652 11
-5 -6 -1 1674.82 497.225 10
-5 -6 -1 1221.43 457.365 8
-5 -6 -1 2449.40 528.743 7
5 -6 1 1937.52 600.629 1
-5 -6 -2 23264.3 1737.40 10
-5 -6 -2 19663.3 1569.08 7
5 -6 2 20354.9 1761.18 1
-5 -6 -2 19966.7 1744.99 11
-5 -6 -3 2234.90 657.198 11
-5 -6 -3 1522.19 502.096 7
5 -6 3 792.168 392.498 1
5 -6 4 7149.10 1042.37 1
-5 -6 -4 6524.39 1011.52 7
5 -6 5 1508.79 562.106 3
-5 -5 10 8395.80 1288.71 3
5 -5 -9 4241.99 814.645 1
-5 -5 9 3914.03 805.236 3
5 -5 -8 2935.60 684.146 1
-5 -5 8 2496.65 709.801 8
-5 -5 8 3238.85 705.201 3
5 -5 -7 18996.9 1669.96 1
-5 -5 7 21518.1 1898.16 8
-5 -5 7 22906.5 1664.60 3
5 -5 -6 8602.37 1124.91 1
-5 -5 6 8750.30 1185.20 8
5 -5 -5 5088.69 851.941 1
-5 -5 5 5282.34 908.629 8
5 -5 -4 7529.54 1035.98 1
-5 -5 4 6840.97 919.231 10
-5 -5 4 6940.24 1001.12 8
-5 -5 3 1643.22 471.263 10
-5 -5 3 1704.05 516.172 8
5 -5 -3 1198.21 422.858 1
-5 -5 2 6799.03 858.032 11
-5 -5 2 5730.79 823.749 10
-5 -5 2 6443.73 955.294 8
5 -5 -2 6262.55 942.169 1
-5 -5 1 2528.60 549.653 11
-5 -5 1 3514.76 643.556 10
-5 -5 1 2794.75 612.339 8
5 -5 -1 2064.05 573.778 1
-5 -5 0 10343.3 1108.00 10
-5 -5 0 8231.35 1061.45 8
5 -5 0 9188.99 1116.37 1
-5 -5 0 9920.74 1102.36 11
-5 -5 -1 2987.59 641.750 11
5 -5 1 4173.16 756.463 1
-5 -5 -1 3958.72 723.986 10
-5 -5 -1 3880.20 756.182 8
5 -5 2 6315.46 946.527 1
-5 -5 -2 7032.69 1011.70 11
-5 -5 -2 6643.72 925.075 10
5 -5 3 34185.3 2207.28 1
-5 -5 -3 31407.0 2224.55 11
-5 -5 -4 3066.51 709.871 11
5 -5 4 3001.58 639.963 1
5 -5 5 -29.7409 208.525 3
5 -5 6 6987.87 1108.04 3
-5 -4 10 12235.7 1489.66 3
5 -4 -9 3324.52 709.738 1
-5 -4 9 3101.26 735.170 3
-5 -4 8 2206.76 626.114 8
5 -4 -8 3757.03 746.297 1
-5 -4 8 4539.93 816.484 3
-5 -4 7 4700.57 873.700 8
-5 -4 7 7412.89 938.827 3
5 -4 -7 5427.04 876.244 1
5 -4 -6 10351.4 1242.27 4
5 -4 -6 11719.4 1282.39 1
-5 -4 6 12256.3 1365.64 8
-5 -4 6 11381.6 1077.42 3
5 -4 -5 7896.34 1019.47 4
5 -4 -5 10038.0 1163.49 1
-5 -4 5 7494.77 1046.45 8
5 -4 -4 6546.15 950.309 1
-5 -4 4 5682.33 892.280 8
-5 -4 3 19326.7 1533.56 10
5 -4 -3 22385.7 1728.58 1
-5 -4 3 23524.1 1769.07 8
-5 -4 2 26864.8 1790.41 10
5 -4 -2 25975.3 1865.92 1
-5 -4 2 27313.8 1902.00 8
-5 -4 1 24415.9 1701.45 10
5 -4 -1 24560.0 1795.11 1
-5 -4 1 22909.2 1747.83 8
-5 -4 1 22038.9 1578.77 11
5 -4 0 7663.26 985.804 1
-5 -4 0 7440.06 932.134 11
-5 -4 0 5743.21 826.921 10
-5 -4 0 5462.06 855.200 8
-5 -4 -1 8474.45 1019.49 11
-5 -4 -1 8983.81 1042.64 10
-5 -4 -1 9750.90 1151.17 8
5 -4 1 8512.96 1045.17 1
-5 -4 -2 7851.49 1034.86 11
-5 -4 -2 5417.45 839.233 10
5 -4 2 5978.80 884.259 1
-5 -4 -3 624.272 329.281 11
5 -4 3 120.310 198.593 1
-5 -4 -3 -0.82934 172.998 10
5 -4 4 265.387 227.363 3
-5 -4 -4 245.078 312.652 11
5 -4 4 180.398 241.947 1
-5 -4 -5 4022.27 819.414 11
5 -4 5 3743.48 736.900 2
5 -4 5 3481.27 715.424 3
5 -4 6 4062.32 833.937 2
5 -4 6 3759.88 769.787 3
5 -3 -10 27829.2 2026.26 1
-5 -3 10 26608.8 2211.82 3
5 -3 -9 556.320 303.864 1
5 -3 -9 1094.64 527.434 4
-5 -3 9 1242.46 490.638 3
5 -3 -8 3157.59 756.213 4
-5 -3 8 2050.16 575.638 8
-5 -3 8 2205.62 602.199 3
5 -3 -8 3521.47 720.733 1
5 -3 -7 1825.08 533.475 4
-5 -3 7 1671.53 561.553 8
-5 -3 7 2340.75 535.705 3
5 -3 -6 529.690 284.411 4
-5 -3 6 448.742 268.987 8
5 -3 -5 12312.2 1253.34 4
-5 -3 5 13443.7 1326.11 8
5 -3 -4 2747.74 574.422 4
-5 -3 4 3454.61 672.196 8
-5 -3 3 -241.993 220.909 10
5 -3 -3 243.406 231.737 4
-5 -3 3 387.966 251.940 8
5 -3 -3 240.193 267.756 1
5 -3 -2 35137.0 1859.55 4
-5 -3 2 37838.2 2143.89 10
5 -3 -2 38078.5 2218.70 1
-5 -3 2 38134.0 2213.38 8
-5 -3 1 23143.2 1645.13 10
5 -3 -1 19499.3 1560.32 1
-5 -3 1 22750.1 1690.42 8
5 -3 -1 20810.1 1317.37 4
-5 -3 0 38246.6 2162.76 10
5 -3 0 34399.2 2083.22 1
-5 -3 0 31885.6 2059.31 8
-5 -3 0 33367.0 2000.78 11
-5 -3 -1 -427.543 265.117 11
-5 -3 -1 58.7228 184.752 10
-5 -3 -1 -227.015 244.604 8
5 -3 1 -73.7053 170.290 1
5 -3 1 231.928 184.171 2
-5 -3 -2 5402.53 846.850 11
5 -3 2 9000.77 1030.10 1
-5 -3 -2 8084.51 1020.30 10
5 -3 2 8327.86 824.430 2
5 -3 3 853.487 327.832 2
-5 -3 -3 355.932 242.709 11
-5 -3 -3 853.579 401.007 10
5 -3 3 310.283 253.927 1
5 -3 4 1078.77 373.471 3
-5 -3 -4 1621.81 484.616 11
5 -3 4 827.606 347.029 2
5 -3 4 755.548 390.920 1
-5 -3 -5 516.510 303.447 11
5 -3 5 149.865 232.035 2
5 -3 5 -33.6542 195.926 3
5 -3 6 6092.23 986.490 2
5 -3 7 212.635 334.165 2
-5 -2 10 59.5933 223.160 3
5 -2 -9 350.414 253.989 4
-5 -2 9 1484.31 516.775 3
5 -2 -8 4869.75 891.651 4
-5 -2 8 5491.94 905.397 8
-5 -2 8 5143.03 855.040 3
-5 -2 8 4419.47 687.239 12
5 -2 -7 11824.7 1347.20 4
-5 -2 7 12400.1 1322.80 8
-5 -2 7 14216.2 1223.86 12
5 -2 -6 1645.35 509.916 4
-5 -2 6 1380.01 470.686 8
-5 -2 6 2267.40 493.336 12
5 -2 -5 4887.88 793.781 4
-5 -2 5 3280.58 646.851 8
-5 -2 5 4549.93 723.613 12
5 -2 -4 58504.9 2711.94 4
-5 -2 4 56646.7 2754.06 8
-5 -2 4 61766.6 2695.04 12
5 -2 -3 31432.4 1829.83 4
-5 -2 3 28278.7 1871.37 10
-5 -2 3 33220.2 2013.96 8
-5 -2 3 31759.5 1889.52 12
5 -2 -2 15074.2 1173.04 4
-5 -2 2 15484.2 1338.38 10
-5 -2 2 14167.2 1299.09 8
-5 -2 1 1513.26 456.793 10
5 -2 -1 1907.69 405.080 4
-5 -2 1 1214.65 404.347 8
5 -2 -1 1077.28 208.970 2
5 -2 0 6621.96 662.584 4
-5 -2 0 6854.48 895.495 10
5 -2 0 6589.20 871.223 1
5 -2 0 6756.95 603.992 2
-5 -2 0 6237.64 893.969 8
-5 -2 -1 7162.83 942.940 10
5 -2 1 6991.14 692.504 2
-5 -2 -1 6107.57 889.932 8
5 -2 1 7468.51 923.412 1
-5 -2 -2 45875.2 2474.63 10
5 -2 2 40544.1 2214.66 1
5 -2 2 44141.7 2033.33 2
-5 -2 -2 37220.7 2239.58 11
5 -2 3 13249.5 1226.27 1
-5 -2 -3 13519.6 1364.52 10
5 -2 3 13771.6 1194.25 2
-5 -2 -3 13620.9 1373.45 11
5 -2 4 1520.05 459.466 3
5 -2 4 2243.00 543.332 2
-5 -2 -4 1525.88 523.417 11
5 -2 4 1607.68 433.631 1
5 -2 5 22909.5 1795.73 2
5 -2 5 18407.6 1474.94 3
-5 -2 -5 19052.6 1735.74 11
5 -2 6 690.049 444.049 2
-5 -2 -6 1168.59 478.490 11
5 -2 7 7249.87 1151.63 2
5 -1 -10 2056.43 709.095 4
-5 -1 10 1347.30 524.696 3
5 -1 -9 7433.40 1141.40 4
-5 -1 9 8691.28 967.442 12
5 -1 -8 2595.06 650.585 4
-5 -1 8 2396.57 623.213 8
-5 -1 8 2987.61 570.437 12
5 -1 -7 17188.0 1607.06 4
-5 -1 7 18698.7 1587.56 8
-5 -1 7 17745.6 1386.79 12
5 -1 -6 402.879 312.587 4
-5 -1 6 -236.463 298.283 8
-5 -1 6 10.9153 152.842 12
5 -1 -5 1309.03 431.946 4
-5 -1 5 2271.40 537.330 8
-5 -1 5 2271.41 512.967 12
5 -1 -4 29933.2 1860.07 4
-5 -1 4 27632.5 1818.22 8
-5 -1 4 30672.1 1837.76 12
5 -1 -3 83444.2 3117.53 4
-5 -1 3 80231.1 3286.91 10
-5 -1 3 74098.5 3106.41 8
-5 -1 3 82705.8 3207.48 12
5 -1 -2 30659.6 1714.23 4
5 -1 -2 33525.6 1195.41 2
-5 -1 2 33647.9 2025.27 10
-5 -1 2 35280.6 2031.30 8
-5 -1 2 32928.8 1932.97 12
5 -1 -1 15971.7 1132.37 4
-5 -1 1 16238.5 1383.79 10
5 -1 -1 15865.5 902.713 2
-5 -1 1 17997.8 1433.31 8
-5 -1 1 15432.6 1332.50 12
5 -1 0 18665.7 1152.69 4
-5 -1 0 21443.7 1606.10 10
5 -1 0 21167.6 1172.10 2
-5 -1 0 19178.8 1522.90 8
5 -1 1 8733.39 694.036 4
-5 -1 -1 9197.17 1053.22 10
5 -1 1 8031.07 791.836 2
-5 -1 -2 11462.2 1217.94 10
5 -1 2 10729.3 1089.68 1
5 -1 2 12316.9 1059.04 2
5 -1 3 685.414 261.362 3
-5 -1 -3 293.073 282.940 10
5 -1 3 691.381 313.049 1
5 -1 3 719.393 284.169 2
5 -1 4 4876.80 775.194 2
5 -1 4 5554.87 760.464 1
5 -1 4 5192.73 684.859 3
5 -1 5 9080.27 1133.39 2
-5 -1 -5 9140.88 1180.14 11
5 -1 6 7531.92 1105.18 2
-5 -1 -6 5477.63 961.018 11
5 -1 7 1610.61 564.551 2
5 0 -10 1125.76 513.334 4
5 0 -9 196.501 329.783 4
-5 0 9 84.4518 201.714 12
5 0 -8 37452.3 2481.71 4
-5 0 8 32244.6 2120.48 8
-5 0 8 36020.4 2062.72 12
5 0 -7 47889.1 2705.53 4
-5 0 7 39012.5 2291.47 8
-5 0 7 42402.2 1842.51 6
-5 0 7 47656.3 2390.46 12
5 0 -6 230.152 218.015 4
-5 0 6 892.203 370.236 8
-5 0 6 675.701 236.423 6
-5 0 6 23.1356 142.484 12
5 0 -5 -96.2534 192.011 4
-5 0 5 239.274 206.866 8
-5 0 5 2.29127 136.575 6
-5 0 5 132.651 165.249 12
5 0 -4 38.3342 163.062 4
-5 0 4 560.553 332.094 8
-5 0 4 591.311 315.405 12
5 0 -3 7999.45 592.813 2
5 0 -3 7649.81 894.435 4
-5 0 3 6482.38 838.850 8
-5 0 3 9448.21 1010.29 12
5 0 -2 15493.5 1208.23 4
-5 0 2 16726.6 1395.84 10
5 0 -2 16497.0 930.634 2
-5 0 2 14154.4 1245.90 8
-5 0 2 16040.1 1333.53 12
5 0 -1 10008.7 906.958 4
-5 0 1 10219.7 1092.95 10
5 0 -1 11127.6 827.766 2
-5 0 1 11158.7 1096.98 8
-5 0 1 11985.8 1137.29 12
5 0 0 9936.66 856.606 4
-5 0 0 10162.5 1090.00 10
5 0 0 9504.85 827.584 2
-5 0 0 11028.8 1122.10 8
-5 0 0 10416.0 1079.61 12
-5 0 -1 1808.98 499.942 10
5 0 1 1406.49 294.309 4
5 0 1 1249.73 334.584 2
-5 0 -1 2418.35 543.745 12
-5 0 -2 21960.7 1688.02 10
5 0 2 20135.9 1422.95 2
-5 0 -3 2700.33 627.745 10
5 0 3 3324.99 614.162 2
5 0 4 312.019 253.492 1
5 0 4 691.822 363.602 2
5 0 5 192.356 242.708 2
5 0 6 1277.00 491.740 2
5 1 -10 2278.44 637.192 4
5 1 -9 6708.18 1087.93 4
-5 1 9 6537.82 941.749 8
-5 1 9 7235.03 935.884 12
5 1 -8 2288.74 626.965 4
-5 1 8 2116.83 535.200 8
-5 1 8 2293.92 548.754 12
5 1 -7 18053.9 1637.76 4
-5 1 7 17772.0 1443.49 8
-5 1 7 17309.0 1191.68 6
-5 1 7 19634.6 1521.71 12
5 1 -6 961.538 372.998 4
-5 1 6 259.587 212.504 8
-5 1 6 195.988 166.799 6
-5 1 6 594.706 312.817 12
5 1 -5 1043.85 356.148 4
-5 1 5 1556.50 427.738 8
-5 1 5 1196.66 330.450 6
-5 1 5 1377.15 434.569 12
5 1 -4 27287.1 1798.66 4
-5 1 4 26256.0 1666.94 8
-5 1 4 29149.9 1622.23 6
-5 1 4 31849.3 1912.58 12
5 1 -3 82308.1 2542.22 2
5 1 -3 79845.3 3143.73 4
-5 1 3 75167.0 3003.55 8
-5 1 3 82072.9 2954.95 6
-5 1 3 85640.8 3291.10 12
5 1 -2 31025.4 1781.65 4
-5 1 2 33666.0 2023.92 10
5 1 -2 32872.3 1519.83 2
-5 1 2 31434.8 1829.69 8
5 1 -2 35945.8 1580.05 3
-5 1 2 33018.8 1949.94 12
5 1 -1 15856.9 1177.56 4
-5 1 1 18700.4 1488.21 10
5 1 -1 15174.1 1065.87 2
-5 1 1 16358.1 1308.49 8
-5 1 1 16067.5 1339.47 12
5 1 0 19000.8 1244.52 4
-5 1 0 22382.5 1637.41 10
5 1 0 20784.1 1326.15 2
-5 1 0 22642.0 1601.14 12
5 1 1 9080.29 795.934 4
-5 1 -1 8084.12 988.961 10
5 1 1 8279.19 869.984 2
-5 1 -1 10193.4 1069.15 12
5 1 2 11426.7 828.634 4
-5 1 -2 12546.4 1270.02 10
5 1 2 13184.3 1176.39 2
-5 1 -2 12190.8 1191.34 12
-5 1 -3 547.942 295.604 10
5 1 3 349.509 253.281 2
5 1 4 4855.20 824.566 2
5 1 5 9466.19 1210.56 2
5 1 6 6035.07 1020.86 2
-5 2 10 800.613 340.255 12
5 2 -9 1466.80 520.100 4
-5 2 9 1230.23 451.123 8
-5 2 9 1227.62 428.967 12
5 2 -8 4791.27 937.135 4
-5 2 8 4917.19 756.968 8
-5 2 8 5745.60 717.686 6
-5 2 8 6202.54 892.615 12
5 2 -7 12045.7 1367.07 4
-5 2 7 14476.4 1240.67 8
-5 2 7 11713.8 1055.40 6
-5 2 7 13777.4 1308.31 12
5 2 -6 1588.05 492.883 4
-5 2 6 1515.95 417.025 8
-5 2 6 1989.69 424.745 6
-5 2 6 1440.47 466.575 12
5 2 -5 3404.65 680.197 4
-5 2 5 3610.61 607.939 8
-5 2 5 4081.08 597.582 6
-5 2 5 4279.46 710.792 12
5 2 -4 61603.7 2306.63 2
5 2 -4 61756.3 2845.71 4
-5 2 4 59444.3 2511.46 8
-5 2 4 63083.7 2574.53 6
-5 2 4 64529.6 2868.21 12
5 2 -3 28980.5 1504.94 2
5 2 -3 32007.3 1899.26 4
-5 2 3 31893.4 1985.73 10
-5 2 3 28473.3 1673.90 8
-5 2 3 31350.8 1761.13 6
-5 2 3 29469.9 1872.65 12
5 2 -2 15388.7 1251.35 4
-5 2 2 16182.1 1381.46 10
5 2 -2 14567.4 1076.83 2
-5 2 2 14161.0 1166.89 8
-5 2 2 15502.8 1246.24 6
-5 2 2 19784.1 1485.93 12
-5 2 1 2117.13 510.804 10
5 2 -1 1653.19 399.709 4
-5 2 1 1216.46 361.963 8
-5 2 1 1557.61 415.395 6
5 2 -1 747.855 261.169 2
-5 2 1 2259.49 517.381 12
-5 2 0 7859.71 954.879 10
5 2 0 5981.26 723.971 4
5 2 0 6038.91 762.164 2
-5 2 0 8212.15 970.721 12
5 2 1 6628.09 718.359 4
-5 2 -1 6996.68 913.684 10
5 2 1 6127.59 796.454 2
-5 2 -1 6774.87 884.720 12
5 2 2 40060.0 1783.14 4
-5 2 -2 41976.7 2368.98 10
5 2 2 37848.0 2147.17 2
-5 2 -2 39732.2 2215.96 12
-5 2 -3 17131.7 1526.10 10
5 2 3 14255.2 1357.87 2
-5 2 -3 15708.8 1361.21 12
5 2 4 1104.33 378.351 2
5 2 5 17247.2 1650.62 2
5 2 6 1250.16 537.200 2
-5 3 10 30528.4 2131.76 12
5 3 -9 1274.37 496.236 4
-5 3 9 1549.70 494.945 12
5 3 -8 2963.33 719.754 4
-5 3 8 2894.30 574.934 6
-5 3 8 3155.70 666.538 12
5 3 -7 1551.04 536.680 4
-5 3 7 2039.72 459.016 8
-5 3 7 1702.46 433.096 6
-5 3 7 2158.07 569.144 12
5 3 -6 440.029 333.842 4
-5 3 6 1236.55 358.074 8
-5 3 6 1369.20 385.147 6
-5 3 6 884.134 394.735 12
5 3 -5 14034.7 1359.80 4
-5 3 5 12691.4 1061.92 8
-5 3 5 13551.4 1175.09 6
-5 3 5 13418.6 1307.84 12
5 3 -4 2348.77 572.251 4
-5 3 4 2847.98 504.601 8
5 3 -4 3758.67 571.750 2
-5 3 4 2802.33 549.369 6
-5 3 4 4047.81 705.127 12
-5 3 3 653.191 334.912 10
5 3 -3 1055.92 371.388 4
-5 3 3 606.938 289.479 8
5 3 -3 133.478 148.110 2
-5 3 3 48.5008 203.799 6
-5 3 3 -84.5704 207.566 12
5 3 -2 33984.3 1960.11 4
-5 3 2 38913.9 2184.56 10
5 3 -2 40467.0 1954.40 2
-5 3 2 36096.8 1870.34 8
-5 3 2 36808.3 2009.17 6
-5 3 2 34165.6 2055.74 12
5 3 -1 21441.2 1480.30 4
-5 3 1 21846.5 1618.65 10
5 3 -1 21987.4 1471.16 2
-5 3 1 22820.8 1580.06 6
-5 3 1 22520.8 1640.72 12
5 3 0 32346.3 1796.10 4
-5 3 0 38818.4 2197.38 10
5 3 0 34089.1 1939.67 2
-5 3 0 34166.4 1989.91 6
-5 3 0 33205.0 2013.35 12
-5 3 -1 402.488 323.540 10
5 3 1 264.022 187.611 4
5 3 1 254.685 266.693 2
-5 3 -1 227.293 243.827 12
5 3 2 7223.46 775.744 4
-5 3 -2 6912.07 944.158 10
5 3 2 5559.63 834.070 2
-5 3 -2 9308.57 1041.81 12
-5 3 -3 880.574 406.606 10
5 3 3 645.335 403.396 2
-5 3 -3 1255.85 421.788 12
5 3 4 912.825 388.839 2
5 3 5 465.672 350.916 2
5 3 6 9434.67 1348.40 2
-5 4 10 9871.78 1248.48 12
5 4 -9 2431.56 734.289 4
-5 4 9 3653.18 661.738 6
-5 4 9 3365.66 737.354 12
5 4 -8 3131.36 760.160 4
-5 4 8 3421.85 643.438 6
-5 4 8 4531.74 828.609 12
5 4 -7 6446.01 1015.00 4
-5 4 7 4840.45 748.571 6
-5 4 7 5557.55 896.045 12
5 4 -6 10556.9 1251.61 4
-5 4 6 13058.9 1222.63 6
-5 4 6 9853.66 1166.12 12
5 4 -5 8363.17 1080.30 4
-5 4 5 8406.12 805.770 8
-5 4 5 8898.40 1010.09 6
-5 4 5 8490.00 1068.93 12
-5 4 4 7226.80 753.462 8
5 4 -4 6187.09 898.302 4
5 4 -4 7136.66 849.970 2
-5 4 4 7240.84 911.278 6
-5 4 4 5552.07 871.271 12
5 4 -3 19762.0 1416.97 2
-5 4 3 20985.1 1593.22 10
5 4 -3 20359.6 1582.35 4
-5 4 3 20848.7 1304.25 8
-5 4 3 19215.2 1481.47 6
-5 4 3 18877.0 1556.70 12
-5 4 2 25016.1 1741.72 10
5 4 -2 27276.4 1789.64 4
5 4 -2 23883.0 1601.00 2
-5 4 2 26131.0 1734.16 6
-5 4 2 28954.4 1913.03 12
-5 4 1 27227.3 1804.30 10
5 4 -1 22628.6 1593.90 4
5 4 -1 24680.9 1670.74 2
-5 4 1 25071.0 1708.60 6
-5 4 1 25922.9 1797.96 12
-5 4 0 6394.15 872.215 10
5 4 0 6806.98 842.632 4
-5 4 0 6559.46 877.851 6
5 4 0 6957.33 895.154 2
-5 4 0 8032.29 994.680 12
5 4 1 8677.43 926.420 4
-5 4 -1 9296.35 1066.48 10
-5 4 -1 9113.80 1049.39 6
5 4 1 8338.49 1049.27 2
-5 4 -1 9306.66 1055.54 12
-5 4 -2 7963.52 1016.93 10
5 4 2 5576.35 729.410 4
5 4 2 5545.26 881.146 2
-5 4 -2 6447.19 888.511 12
-5 4 -3 241.449 269.132 10
5 4 3 397.894 279.792 2
-5 4 -3 284.394 249.313 12
5 4 4 95.3095 275.655 2
-5 4 -4 994.605 411.090 12
5 4 5 3276.36 771.442 2
-5 5 9 3837.12 720.647 6
-5 5 9 3071.64 695.067 12
5 5 -8 2564.33 710.771 4
-5 5 8 2597.00 601.787 6
-5 5 8 2641.58 676.207 12
5 5 -7 18698.6 1791.27 4
-5 5 7 20189.9 1626.56 6
-5 5 7 23123.3 1899.80 12
5 5 -6 8138.17 1144.02 4
-5 5 6 7603.59 984.889 6
-5 5 6 9953.21 1219.81 12
5 5 -5 5363.02 896.012 4
-5 5 5 5097.07 808.098 6
-5 5 5 4528.35 635.078 5
-5 5 5 6174.08 963.045 12
5 5 -4 8423.12 1076.47 4
5 5 -4 7117.75 907.382 2
-5 5 4 6426.76 901.090 6
-5 5 4 7774.22 868.763 5
-5 5 4 9315.17 1124.98 12
-5 5 3 1731.24 442.011 10
5 5 -3 857.811 369.124 4
5 5 -3 1607.86 455.616 2
-5 5 3 1433.65 443.460 6
-5 5 3 1963.86 468.760 5
-5 5 3 1667.71 478.487 12
-5 5 2 7356.52 940.887 10
5 5 -2 6282.10 896.287 4
5 5 -2 4657.19 741.796 2
-5 5 2 4524.91 762.155 6
-5 5 2 6172.97 833.283 5
-5 5 2 7470.67 997.482 12
-5 5 1 3020.45 619.772 10
5 5 -1 2785.88 596.164 4
5 5 -1 2228.50 532.026 2
-5 5 1 2471.13 581.852 6
-5 5 1 2637.87 550.882 5
-5 5 1 4315.48 754.093 12
-5 5 0 11927.3 1192.56 10
5 5 0 9465.17 1033.59 4
5 5 0 8124.72 1043.58 2
-5 5 0 8614.03 1037.49 6
-5 5 0 10791.7 1161.52 12
-5 5 -1 4746.09 765.374 10
5 5 1 4330.74 706.399 4
-5 5 -1 3342.95 667.339 6
5 5 1 4792.94 822.910 2
-5 5 -1 4426.62 761.021 12
-5 5 -2 6382.09 920.868 10
5 5 2 7169.77 887.158 4
5 5 2 6598.54 1000.92 2
-5 5 -2 7775.60 982.078 12
5 5 3 32545.6 1903.88 4
5 5 3 34009.1 2361.95 2
-5 5 -3 34683.8 2114.42 12
5 5 4 1651.09 579.822 2
-5 5 -4 2264.69 542.455 12
5 5 5 934.983 435.184 2
-5 6 9 719.759 383.933 6
-5 6 8 726.067 414.055 12
-5 6 8 1284.27 464.223 6
5 6 -7 6333.80 1064.38 4
-5 6 7 5048.19 866.294 6
5 6 -6 247.730 336.874 4
-5 6 6 -128.380 212.026 6
-5 6 6 -31.8875 276.593 12
5 6 -5 2639.91 660.087 4
5 6 -5 2079.96 546.253 2
-5 6 5 2548.17 618.126 6
-5 6 5 1847.31 433.499 5
-5 6 5 1692.75 535.777 12
-5 6 4 1119.53 393.585 10
5 6 -4 621.392 365.524 4
5 6 -4 2018.19 553.947 2
-5 6 4 1933.41 526.886 6
-5 6 4 685.078 315.013 5
-5 6 4 2345.94 639.363 12
-5 6 3 5468.36 816.858 10
5 6 -3 5854.10 891.968 4
5 6 -3 5914.09 878.078 2
-5 6 3 6034.19 900.202 6
-5 6 3 6138.21 844.757 5
-5 6 3 7096.44 1005.89 12
-5 6 2 63.3333 218.374 10
5 6 -2 166.353 254.004 4
5 6 -2 602.998 310.898 2
-5 6 2 -49.4801 180.647 6
-5 6 2 759.780 325.424 5
-5 6 2 370.458 283.917 12
-5 6 1 23455.6 1690.91 10
5 6 -1 24601.7 1834.10 2
5 6 -1 22739.9 1758.05 4
-5 6 1 22757.6 1747.18 6
-5 6 1 23424.9 1744.78 5
-5 6 1 24634.1 1854.12 12
-5 6 0 24861.5 1744.26 10
5 6 0 24078.0 1769.25 4
5 6 0 20811.7 1751.80 2
-5 6 0 23326.3 1778.55 6
-5 6 0 27376.0 1927.99 5
-5 6 0 26236.9 1896.00 12
-5 6 -1 2447.87 570.986 10
5 6 1 2151.95 560.089 4
-5 6 -1 1410.26 467.776 6
5 6 1 1374.71 490.810 2
-5 6 -1 1854.11 545.749 5
-5 6 -1 2172.56 529.031 12
-5 6 -2 20389.4 1635.03 10
5 6 2 18666.0 1530.03 4
5 6 2 20888.6 1840.88 2
-5 6 -2 19921.1 1688.83 6
-5 6 -2 19674.0 1610.22 12
5 6 3 953.484 368.425 4
5 6 3 1321.82 548.217 2
-5 6 -3 1564.82 446.860 12
5 6 4 4811.28 947.515 2
-5 7 8 927.591 429.565 6
-5 7 7 -188.229 209.653 6
5 7 -6 1410.33 549.750 4
-5 7 6 947.430 416.313 6
-5 7 6 652.078 354.109 12
5 7 -5 1585.10 523.829 4
5 7 -5 1003.14 407.994 2
-5 7 5 1797.36 529.639 6
-5 7 5 1125.12 402.017 5
-5 7 5 1110.86 471.930 12
-5 7 4 623.899 310.257 10
5 7 -4 1110.23 493.461 4
5 7 -4 1219.42 455.735 2
-5 7 4 1435.82 520.405 6
-5 7 4 1177.28 408.223 5
-5 7 4 1142.15 448.936 12
-5 7 3 4634.32 749.217 10
5 7 -3 5465.36 933.385 4
5 7 -3 3377.29 713.948 2
-5 7 3 4828.61 873.163 6
-5 7 3 4338.68 736.552 5
-5 7 3 3970.54 800.743 12
-5 7 2 4612.53 762.076 10
5 7 -2 4544.40 837.576 4
5 7 -2 4350.26 803.692 2
-5 7 2 4046.02 762.971 6
-5 7 2 4584.97 796.523 5
-5 7 2 3935.29 775.908 12
5 7 -1 24345.2 1934.50 2
-5 7 1 22448.6 1651.26 10
5 7 -1 23579.9 1870.69 4
-5 7 1 22057.3 1787.78 6
-5 7 1 24034.5 1828.13 5
-5 7 1 22892.6 1862.04 12
-5 7 0 608.623 282.805 10
5 7 0 1122.28 433.742 4
5 7 0 -114.852 304.162 2
-5 7 0 848.702 426.152 6
-5 7 0 298.489 276.572 5
-5 7 0 618.193 352.340 12
-5 7 -1 5137.25 801.579 10
5 7 1 4740.67 806.640 4
5 7 1 4765.03 901.513 2
-5 7 -1 4584.40 827.353 6
-5 7 -1 5374.24 921.363 5
-5 7 -1 5896.07 913.016 12
5 7 2 14681.1 1433.50 4
5 7 2 14719.9 1616.40 2
-5 7 -2 17586.5 1620.63 6
-5 7 -2 17108.4 1647.65 5
-5 7 -2 17140.0 1541.31 12
5 7 3 1238.80 449.433 4
5 7 3 357.890 386.310 2
-5 7 -3 520.526 299.765 12
-5 8 5 8874.22 1209.61 6
-5 8 5 7879.66 1191.77 12
-5 8 5 8322.34 1034.72 5
5 8 -4 1250.41 484.601 4
5 8 -4 1395.73 517.941 2
-5 8 4 952.518 414.702 6
-5 8 4 697.036 304.897 5
-5 8 4 757.980 415.023 12
5 8 -3 1144.45 484.077 4
5 8 -3 889.516 449.874 2
-5 8 3 1263.37 525.611 6
-5 8 3 523.570 287.516 5
-5 8 3 760.415 475.755 12
5 8 -2 12096.7 1417.92 4
5 8 -2 10638.3 1322.96 2
-5 8 2 11097.7 1312.21 6
-5 8 2 11439.6 1291.26 5
-5 8 2 12192.5 1416.07 12
5 8 -1 1915.15 543.240 4
5 8 -1 2601.54 694.887 2
-5 8 1 2585.22 645.760 6
-5 8 1 2796.19 661.974 5
-5 8 1 2325.79 625.422 12
5 8 0 5219.54 904.340 4
5 8 0 3702.11 813.330 2
-5 8 0 5438.87 932.921 6
-5 8 0 4503.02 840.759 5
-5 8 0 5628.30 916.469 12
5 8 1 10040.9 1239.74 4
5 8 1 10979.0 1402.44 2
-5 8 -1 10106.6 1262.23 6
-5 8 -1 8509.59 1187.00 5
-5 8 -1 9451.90 1198.84 12
5 8 2 9324.78 1209.32 4
-5 8 -2 10224.2 1215.79 12
5 8 3 2437.51 648.816 4
-5 9 5 7202.33 1026.44 5
-5 9 4 1738.27 508.518 5
-5 9 3 8653.01 1153.23 5
-5 9 2 8414.54 1166.69 5
-5 9 2 8107.09 1191.05 12
-5 9 1 1852.46 590.646 12
-5 9 0 2149.49 614.735 12
-5 9 -1 3434.88 753.883 12
-6 -8 1 250.657 342.542 11
-6 -7 6 4120.00 836.864 10
-6 -7 5 424.543 311.566 10
-6 -7 4 2354.99 596.988 10
-6 -7 3 24882.3 1914.38 10
-6 -7 2 2006.95 571.435 10
-6 -7 1 4437.17 833.235 11
-6 -7 1 4490.26 819.507 10
-6 -7 0 1303.91 458.545 11
-6 -7 0 3161.66 727.949 10
-6 -7 -1 841.683 449.233 10
-6 -6 6 1165.11 439.943 10
-6 -6 5 2239.76 628.378 10
6 -6 -5 1984.83 604.551 1
-6 -6 4 8722.71 1141.66 10
-6 -6 4 10402.2 1372.06 8
6 -6 -4 11331.2 1408.68 1
-6 -6 3 7362.27 1047.53 10
-6 -6 3 8055.64 1221.22 8
6 -6 -3 7842.55 1175.62 1
-6 -6 2 1065.84 474.159 10
6 -6 -2 1127.10 554.318 1
-6 -6 2 1380.23 554.341 8
-6 -6 1 4050.68 765.592 11
-6 -6 1 4274.85 803.640 10
6 -6 -1 6847.49 1089.58 1
-6 -6 1 7197.28 1147.56 8
-6 -6 0 1553.68 515.859 11
6 -6 0 1012.67 458.127 1
-6 -6 0 850.781 402.842 10
-6 -6 0 877.401 388.061 8
-6 -6 -1 3598.94 803.700 11
-6 -6 -1 2815.12 681.227 10
6 -6 1 2783.24 696.991 1
-6 -6 -2 5858.63 973.770 10
6 -5 -7 2509.13 661.754 1
6 -5 -6 1065.45 476.932 1
-6 -5 6 1645.59 598.360 8
-6 -5 5 965.046 434.868 10
6 -5 -5 1065.84 491.917 1
-6 -5 5 1278.77 523.669 8
6 -5 -4 1864.19 610.853 1
-6 -5 4 2026.56 586.531 10
-6 -5 4 1492.24 519.094 8
6 -5 -3 5520.46 965.505 1
-6 -5 3 5411.11 910.487 10
-6 -5 3 4786.01 940.186 8
-6 -5 2 7731.27 1070.50 10
-6 -5 2 6737.82 1072.44 8
6 -5 -2 6953.75 1084.92 1
-6 -5 1 2345.42 600.968 10
-6 -5 1 3581.53 797.290 8
6 -5 -1 1437.19 484.889 1
-6 -5 0 935.746 417.159 11
-6 -5 0 1265.84 471.457 10
-6 -5 0 811.067 409.734 8
6 -5 0 631.131 404.645 1
-6 -5 -1 5881.17 967.460 11
-6 -5 -1 5353.43 934.538 10
6 -5 1 3023.97 703.134 1
-6 -5 -1 5078.23 958.510 8
6 -5 2 5774.32 970.945 1
-6 -5 -2 6169.27 1000.68 10
6 -5 3 17455.9 1712.02 1
6 -4 -8 1485.79 510.305 1
6 -4 -7 9250.96 1250.25 1
-6 -4 7 7348.28 1168.34 8
6 -4 -6 4670.55 895.146 1
-6 -4 6 3481.23 817.489 8
-6 -4 5 1071.49 414.122 10
6 -4 -5 572.974 386.432 1
-6 -4 5 568.371 352.748 8
6 -4 -4 11949.6 1390.48 1
-6 -4 4 9669.93 1210.10 10
-6 -4 4 10535.3 1316.18 8
-6 -4 3 8558.51 1127.85 10
-6 -4 3 5750.53 978.101 8
6 -4 -3 8092.62 1150.69 1
-6 -4 2 6396.89 993.052 10
-6 -4 2 7166.96 1123.03 8
6 -4 -2 9116.98 1208.82 1
-6 -4 1 2193.13 613.398 10
6 -4 -1 2947.78 731.121 1
-6 -4 1 1564.01 527.884 8
-6 -4 0 12402.2 1376.32 10
-6 -4 0 10944.2 1340.02 8
6 -4 0 10498.1 1273.45 1
-6 -4 -1 1079.52 471.635 11
-6 -4 -1 1707.48 548.744 10
-6 -4 -1 2312.69 655.181 8
6 -4 1 2171.37 611.046 1
-6 -4 -2 8303.30 1174.96 11
-6 -4 -2 6924.22 1050.26 10
6 -4 2 7729.53 1087.29 1
6 -4 3 2957.93 675.573 1
6 -3 -9 1115.71 494.656 1
6 -3 -8 10657.6 1433.44 4
6 -3 -8 12580.2 1471.80 1
-6 -3 8 12181.6 1477.46 8
6 -3 -7 3990.38 866.082 4
6 -3 -7 2669.47 682.578 1
-6 -3 7 3672.30 807.474 8
6 -3 -6 2182.54 628.667 4
-6 -3 6 3536.73 768.157 8
6 -3 -6 2141.76 623.464 1
6 -3 -5 9557.33 1189.71 4
6 -3 -5 10253.3 1296.56 1
-6 -3 5 9923.87 1245.26 8
6 -3 -4 3978.67 803.657 1
-6 -3 4 5899.19 947.952 10
6 -3 -4 4773.05 808.071 4
-6 -3 4 5079.71 891.375 8
6 -3 -3 13373.4 1270.60 4
-6 -3 3 16247.9 1535.08 10
6 -3 -3 15730.3 1558.85 1
-6 -3 3 11874.9 1363.90 8
-6 -3 2 2463.89 646.287 10
6 -3 -2 2990.25 573.579 4
-6 -3 2 3556.26 744.966 8
6 -3 -2 3782.80 800.724 1
-6 -3 1 16241.0 1540.22 10
6 -3 -1 14614.5 1501.67 1
-6 -3 1 13759.8 1466.85 8
-6 -3 0 43907.6 2606.98 10
6 -3 0 40339.8 2524.19 1
-6 -3 0 42433.5 2643.15 8
-6 -3 -1 6532.58 1018.59 10
6 -3 1 6439.91 993.211 1
-6 -3 -2 7335.54 1088.47 10
6 -3 2 6285.96 969.104 1
-6 -3 -3 1491.71 539.879 10
6 -3 3 346.985 258.152 1
-6 -2 9 3919.36 838.903 8
6 -2 -8 5383.37 1020.13 4
-6 -2 8 6725.16 1098.45 8
-6 -2 8 7549.53 1015.87 12
6 -2 -7 2923.17 733.845 4
-6 -2 7 3217.70 745.061 8
-6 -2 7 4202.54 755.966 12
6 -2 -6 9150.31 1190.06 4
-6 -2 6 7509.53 1090.66 8
-6 -2 6 9974.46 1152.76 12
6 -2 -5 1783.19 569.055 4
-6 -2 5 2428.94 655.219 8
-6 -2 5 3763.84 729.958 12
6 -2 -4 9643.10 1130.06 4
-6 -2 4 10448.9 1260.15 10
-6 -2 4 9016.62 1148.33 8
-6 -2 4 10156.5 1173.77 12
-6 -2 3 3348.73 706.996 10
6 -2 -3 3039.42 604.773 4
-6 -2 3 2646.42 626.118 8
6 -2 -2 11385.6 1096.95 4
-6 -2 2 11124.2 1276.04 10
-6 -2 2 14178.6 1436.17 8
-6 -2 1 5953.45 948.456 10
-6 -2 1 4152.77 803.020 8
-6 -2 0 20376.2 1794.13 10
-6 -2 0 19661.0 1731.78 8
6 -2 0 16463.8 1562.77 1
-6 -2 -1 10929.2 1291.23 10
6 -2 1 11284.0 1286.72 1
-6 -2 -2 17670.7 1682.47 10
6 -2 2 16905.1 1543.37 1
-6 -2 -3 3667.60 804.675 10
6 -2 3 7143.15 979.299 1
-6 -1 9 2302.33 632.004 8
-6 -1 9 1548.00 479.571 12
6 -1 -8 1005.53 451.840 4
-6 -1 8 1686.37 568.414 8
-6 -1 8 847.310 368.975 12
6 -1 -7 1155.20 508.449 4
-6 -1 7 930.232 360.270 8
-6 -1 7 1596.10 513.907 12
6 -1 -6 3329.00 734.448 4
-6 -1 6 4427.48 820.783 8
-6 -1 6 4922.33 816.874 12
6 -1 -5 4270.36 810.716 4
-6 -1 5 1982.71 570.276 8
-6 -1 5 3443.47 704.528 12
6 -1 -4 27559.4 1933.48 4
-6 -1 4 32793.1 2240.72 10
-6 -1 4 28540.4 2033.41 8
-6 -1 4 33633.6 2158.57 12
-6 -1 3 8778.19 1132.78 10
6 -1 -3 5227.01 801.903 4
-6 -1 3 5823.41 896.707 8
-6 -1 3 6798.48 972.651 12
6 -1 -2 12672.1 1155.44 4
-6 -1 2 10698.5 1251.10 10
-6 -1 2 8726.31 1117.28 8
-6 -1 2 12664.7 1330.34 12
-6 -1 1 6040.62 933.896 10
6 -1 -1 5359.86 710.819 4
-6 -1 1 4383.84 831.853 8
-6 -1 0 19138.0 1690.45 10
-6 -1 0 15593.3 1531.66 8
-6 -1 -1 3613.03 756.476 10
-6 -1 -2 7284.84 1083.41 10
6 -1 2 6942.14 974.959 1
-6 -1 -3 4777.63 923.915 10
6 -1 3 5283.62 850.010 1
-6 0 10 -205.697 310.496 8
-6 0 9 3654.34 804.447 8
-6 0 9 1975.81 558.147 12
6 0 -8 289.650 249.154 4
-6 0 8 332.460 325.864 8
-6 0 8 752.430 424.394 12
6 0 -7 710.384 366.863 4
-6 0 7 763.554 361.610 8
-6 0 7 647.556 361.843 12
6 0 -6 2240.47 625.218 4
-6 0 6 1892.37 552.505 8
-6 0 6 2400.89 587.979 12
6 0 -5 514.004 333.523 4
-6 0 5 472.383 244.987 8
-6 0 5 794.896 374.577 12
6 0 -4 58679.0 2910.65 4
-6 0 4 60586.1 3123.56 10
-6 0 4 56682.9 2854.35 8
-6 0 4 61702.5 3009.69 12
-6 0 3 8411.98 1116.50 10
6 0 -3 6222.42 877.758 4
-6 0 3 8942.63 1093.26 8
-6 0 3 6989.87 987.347 12
6 0 -2 11156.4 1111.43 4
-6 0 2 11464.1 1309.34 10
-6 0 2 10207.1 1172.56 8
-6 0 2 9146.13 1125.32 12
-6 0 1 5294.65 884.035 10
6 0 -1 5118.87 706.465 4
-6 0 1 4888.90 839.764 8
-6 0 1 5092.44 828.271 12
-6 0 0 1778.32 542.558 10
-6 0 0 1338.38 467.118 12
-6 0 -1 20110.7 1770.48 10
-6 0 -2 1182.64 441.157 10
6 0 2 1081.13 379.906 2
6 0 3 417.401 288.960 1
-6 0 -3 601.143 414.993 10
6 0 3 -112.969 178.435 2
6 0 4 2577.95 632.058 2
6 0 5 1637.75 550.609 2
-6 1 9 1597.77 525.024 8
-6 1 9 3377.34 718.541 12
6 1 -8 1073.85 575.850 4
-6 1 8 1101.16 420.292 8
-6 1 8 1989.96 570.621 12
6 1 -7 2636.94 702.042 4
-6 1 7 956.909 366.700 8
-6 1 7 1299.40 391.087 6
-6 1 7 1509.87 483.988 12
6 1 -6 3673.55 785.630 4
-6 1 6 2710.26 599.396 8
-6 1 6 2720.57 516.549 6
-6 1 6 5396.69 889.838 12
6 1 -5 3086.31 710.309 4
-6 1 5 2825.31 615.146 8
-6 1 5 3044.30 714.122 12
6 1 -4 29817.7 2039.48 4
-6 1 4 30044.9 2154.44 10
-6 1 4 26643.4 1857.44 8
-6 1 4 29582.1 2054.76 12
-6 1 3 7074.89 1013.44 10
6 1 -3 6802.22 929.016 4
-6 1 3 6541.14 906.432 8
-6 1 3 7321.89 1004.42 12
6 1 -2 11130.4 1135.90 4
-6 1 2 11076.6 1275.19 10
-6 1 2 12153.7 1247.29 8
-6 1 2 10903.6 1232.08 12
-6 1 1 5856.67 956.552 10
6 1 -1 6007.86 805.699 4
-6 1 1 6197.16 903.672 8
6 1 -1 4711.78 646.560 2
-6 1 1 6081.00 924.503 12
6 1 0 19508.8 1368.04 4
-6 1 0 18909.2 1684.35 10
6 1 0 16917.5 1297.13 2
-6 1 0 20192.5 1697.36 12
-6 1 -1 4107.38 790.935 10
6 1 1 3427.34 621.349 2
-6 1 -1 4186.18 797.634 12
-6 1 -2 6895.73 1046.95 10
6 1 2 7099.39 936.841 2
-6 1 -3 5820.36 991.930 10
6 1 3 4542.39 786.575 2
6 1 4 7582.96 1089.25 2
6 1 5 2665.55 707.602 2
-6 2 10 1810.46 647.520 12
-6 2 9 4798.79 884.383 12
6 2 -8 7971.55 1227.79 4
-6 2 8 8320.55 1071.29 8
-6 2 8 7874.83 1119.35 12
6 2 -7 3637.48 813.003 4
-6 2 7 3512.35 681.253 8
-6 2 7 4728.38 714.183 6
-6 2 7 3602.58 762.217 12
6 2 -6 8156.86 1167.32 4
-6 2 6 7615.57 990.871 8
-6 2 6 9744.05 1031.08 6
-6 2 6 9335.06 1170.32 12
6 2 -5 2093.82 588.685 4
-6 2 5 1760.44 473.275 8
-6 2 5 2291.31 528.480 6
-6 2 5 2614.42 646.189 12
6 2 -4 10924.7 1236.05 4
-6 2 4 10961.5 1298.60 10
-6 2 4 9948.15 1083.00 8
-6 2 4 8919.27 1029.88 6
-6 2 4 11904.5 1312.16 12
-6 2 3 4856.43 855.036 10
6 2 -3 4159.32 754.165 4
-6 2 3 3579.30 660.517 8
6 2 -3 3411.08 541.127 2
-6 2 3 3340.28 632.615 6
-6 2 3 2805.18 673.755 12
6 2 -2 12393.3 1227.18 4
6 2 -2 9998.65 952.053 2
-6 2 2 11976.4 1341.89 10
-6 2 2 9611.87 1091.12 8
-6 2 2 12139.2 1316.33 12
-6 2 1 4929.15 852.415 10
6 2 -1 3834.07 668.927 4
6 2 -1 4903.38 697.548 2
-6 2 1 5804.92 892.987 12
6 2 0 20596.9 1473.51 4
-6 2 0 20372.4 1745.75 10
6 2 0 17256.5 1386.26 2
-6 2 0 19530.6 1672.86 12
-6 2 -1 10570.2 1282.10 10
6 2 1 11607.6 1189.70 2
-6 2 -1 11107.0 1265.27 12
-6 2 -2 16327.8 1629.32 10
6 2 2 15326.1 1447.59 2
-6 2 -2 18933.2 1662.61 12
-6 2 -3 5370.58 960.056 10
6 2 3 7492.98 1053.30 2
6 2 4 6261.01 1014.97 2
-6 3 9 1503.22 527.889 12
-6 3 8 11081.0 1340.75 12
6 3 -7 3459.93 824.484 4
-6 3 7 4258.46 714.614 6
-6 3 7 2318.20 622.661 12
6 3 -6 2887.23 695.840 4
-6 3 6 3220.46 611.315 8
-6 3 6 3379.01 646.404 6
-6 3 6 3505.42 768.981 12
6 3 -5 11505.0 1348.46 4
-6 3 5 10848.9 1104.12 8
-6 3 5 11096.4 1171.50 6
-6 3 5 11759.1 1346.70 12
-6 3 4 5413.87 925.698 10
6 3 -4 5327.18 898.581 4
-6 3 4 4751.70 748.077 8
6 3 -4 6186.04 775.738 2
-6 3 4 4759.38 777.383 6
-6 3 4 5533.40 922.062 12
6 3 -3 12945.9 1139.24 2
6 3 -3 14431.9 1413.19 4
-6 3 3 16989.7 1593.29 10
-6 3 3 13301.3 1229.72 8
-6 3 3 12320.2 1246.93 6
-6 3 3 14734.2 1472.54 12
-6 3 2 2601.73 631.804 10
6 3 -2 2543.76 601.156 4
6 3 -2 2594.81 524.158 2
-6 3 2 2996.05 633.866 6
-6 3 2 3489.43 701.912 12
6 3 -1 15703.1 1392.40 4
-6 3 1 14647.0 1478.64 10
6 3 -1 15165.6 1306.47 2
-6 3 1 16911.7 1561.82 12
6 3 0 45992.4 2350.94 4
-6 3 0 44136.5 2636.64 10
6 3 0 43320.9 2389.88 2
-6 3 0 44463.7 2602.47 12
-6 3 -1 8050.38 1121.11 10
6 3 1 8678.42 1088.57 2
-6 3 -1 7209.70 1040.89 12
-6 3 -2 7823.65 1111.30 10
6 3 2 8023.59 1079.02 2
-6 3 -2 7414.19 1055.90 12
-6 3 -3 1182.68 493.920 10
6 3 3 2416.33 652.488 2
-6 3 -3 1684.37 542.571 12
6 3 4 11483.0 1410.37 2
-6 4 8 1500.47 493.375 6
-6 4 8 2222.92 654.222 12
6 4 -7 8592.16 1259.41 4
-6 4 7 6951.42 962.082 6
-6 4 7 7929.68 1144.06 12
6 4 -6 4740.53 939.157 4
-6 4 6 4468.33 756.863 6
-6 4 6 4113.33 838.221 12
6 4 -5 857.905 386.439 4
-6 4 5 947.706 405.261 6
-6 4 5 578.325 361.245 12
6 4 -4 9994.13 1060.86 2
-6 4 4 9165.72 1185.24 10
6 4 -4 9765.55 1210.75 4
-6 4 4 12179.9 1265.66 6
-6 4 4 9299.24 1215.44 12
-6 4 3 8327.39 1113.31 10
6 4 -3 8970.88 1139.96 4
6 4 -3 7922.38 949.289 2
-6 4 3 7414.76 996.529 6
-6 4 3 8151.50 1122.62 12
-6 4 2 7404.39 1033.06 10
6 4 -2 5889.59 906.695 4
6 4 -2 5427.20 801.578 2
-6 4 2 6360.54 936.835 6
-6 4 2 7364.33 1066.74 12
-6 4 1 2311.24 621.092 10
6 4 -1 2696.90 626.962 4
6 4 -1 2096.30 509.693 2
-6 4 1 2467.74 619.864 6
-6 4 1 2774.78 664.336 12
6 4 0 11342.1 1192.44 4
-6 4 0 15388.2 1520.46 10
6 4 0 10520.9 1205.08 2
-6 4 0 13576.1 1427.86 12
-6 4 -1 3132.09 731.061 10
6 4 1 2484.80 619.459 2
-6 4 -1 3409.26 712.103 12
-6 4 -2 8025.47 1131.86 10
6 4 2 7706.20 1095.55 2
-6 4 -2 8339.77 1127.54 12
-6 4 -3 3637.14 795.359 10
6 4 3 3217.96 757.767 2
-6 4 -3 3485.61 720.803 12
-6 5 8 2855.11 670.381 6
-6 5 7 3816.81 742.907 6
6 5 -6 1359.44 534.581 4
-6 5 6 1539.26 460.562 6
-6 5 6 2103.82 657.615 12
-6 5 5 1291.50 475.032 10
6 5 -5 1677.63 553.513 4
-6 5 5 2074.50 551.185 6
-6 5 5 2263.80 655.153 12
-6 5 4 1191.21 481.048 10
6 5 -4 1467.64 528.420 4
6 5 -4 1927.83 508.800 2
-6 5 4 3163.69 693.349 6
-6 5 4 2394.32 633.776 12
-6 5 3 6363.26 977.209 10
6 5 -3 4732.26 884.860 4
6 5 -3 4859.99 806.261 2
-6 5 3 4093.14 760.146 6
-6 5 3 2656.44 656.495 12
-6 5 2 6722.12 1007.10 10
6 5 -2 8571.92 1137.30 4
6 5 -2 6601.38 937.264 2
-6 5 2 7119.87 1020.73 6
-6 5 2 9191.31 1192.70 12
-6 5 1 2070.34 571.370 10
6 5 -1 1610.45 501.649 4
6 5 -1 1199.92 496.039 2
-6 5 1 3244.87 710.689 6
-6 5 1 1902.87 599.323 12
-6 5 0 1149.65 474.197 10
6 5 0 82.8234 222.312 4
6 5 0 462.518 314.343 2
-6 5 0 1281.50 442.122 6
-6 5 0 488.880 329.214 12
-6 5 -1 3064.16 691.969 10
6 5 1 3606.96 758.694 2
-6 5 -1 5143.66 913.530 12
-6 5 -2 7410.66 1127.42 10
6 5 2 5083.99 942.767 2
-6 5 -2 5388.14 905.552 12
6 5 3 19089.5 1876.99 2
-6 5 -3 20640.5 1788.79 12
-6 6 6 1245.79 475.958 6
-6 6 5 2774.32 679.730 10
6 6 -5 2940.71 719.158 4
6 6 -5 1708.44 512.658 2
-6 6 5 2583.83 629.084 6
6 6 -4 11912.4 1321.04 2
-6 6 4 10598.7 1279.81 10
6 6 -4 9584.27 1287.20 4
-6 6 4 9678.96 1224.25 6
-6 6 4 11776.3 1440.37 12
-6 6 3 7888.52 1097.38 10
6 6 -3 4854.31 918.226 4
6 6 -3 9101.03 1140.46 2
-6 6 3 8375.51 1125.05 6
-6 6 3 7732.44 1165.19 12
-6 6 2 641.628 349.574 10
6 6 -2 1685.17 549.145 4
6 6 -2 509.266 351.818 2
-6 6 2 1667.68 519.018 6
-6 6 2 1556.35 556.555 12
-6 6 1 4397.84 823.807 10
6 6 -1 4406.42 850.215 4
6 6 -1 5472.38 921.753 2
-6 6 1 4299.85 822.372 6
-6 6 1 4487.90 860.757 12
-6 6 0 1338.81 493.845 10
6 6 0 481.141 361.614 4
6 6 0 2034.96 613.352 2
-6 6 0 753.965 377.303 12
-6 6 -1 3900.46 774.871 10
6 6 1 2122.06 537.802 4
6 6 1 2633.09 677.600 2
-6 6 -1 2970.92 710.185 12
-6 6 -2 7125.90 1086.98 10
-6 6 -2 4394.45 844.469 12
-6 6 -3 4086.69 818.781 12
-6 7 6 3520.64 754.200 10
-6 7 5 722.025 424.327 10
6 7 -5 100.618 203.971 2
-6 7 4 2895.77 688.335 10
6 7 -4 2671.11 645.794 2
6 7 -3 25756.8 2055.76 2
6 7 -3 23720.4 2076.53 4
-6 7 3 24414.8 1935.69 10
-6 7 2 2655.06 653.970 10
6 7 -2 785.867 354.078 4
6 7 -2 1844.38 589.289 2
-6 7 1 4618.80 842.973 10
6 7 -1 5008.83 963.041 4
6 7 -1 3230.91 761.166 2
-6 7 1 4606.89 890.446 12
-6 7 0 1412.86 523.871 10
6 7 0 1629.25 596.451 4
6 7 0 1707.97 552.846 2
-6 7 0 1267.50 494.729 12
-6 7 -1 1076.06 430.631 10
6 7 1 1459.36 588.656 4
-6 7 -1 604.051 385.531 12
-6 7 -2 6129.46 1023.81 12
-6 8 4 2283.68 620.532 5
7 -3 -6 12016.6 1477.66 4
7 -3 -5 2329.59 622.758 4
7 -3 -4 2759.62 671.974 4
-7 -3 3 973.367 502.958 10
-7 -3 2 757.307 470.116 10
-7 -2 7 7750.35 1142.30 12
7 -2 -6 7417.07 1146.70 4
7 -2 -5 5688.63 1001.47 4
-7 -2 5 6636.84 1076.83 8
-7 -2 4 795.135 448.758 10
7 -2 -4 1926.72 604.812 4
-7 -2 4 1574.17 566.128 8
-7 -2 3 460.842 370.175 10
-7 -2 3 836.476 445.946 8
-7 -2 2 14127.1 1594.26 10
-7 -2 2 16218.0 1690.80 8
7 -2 -2 15049.5 1649.60 1
7 -2 -1 2134.55 645.184 1
7 -2 0 1965.66 600.464 1
7 -2 1 10791.5 1372.42 1
7 -2 2 1945.42 607.145 1
-7 -1 7 8049.93 1164.59 12
7 -1 -6 10769.4 1397.94 4
-7 -1 6 12857.6 1469.96 12
7 -1 -5 12854.2 1449.31 4
-7 -1 5 11539.2 1419.61 8
-7 -1 5 15995.2 1629.63 12
-7 -1 4 3626.53 824.024 10
7 -1 -4 3969.41 791.316 4
-7 -1 4 3039.58 708.203 8
-7 -1 4 3955.10 854.899 12
-7 -1 3 1377.07 539.801 10
-7 -1 3 832.879 393.216 8
-7 -1 3 1799.06 601.915 12
-7 -1 2 3102.99 781.093 10
-7 -1 2 3319.67 768.280 8
-7 -1 1 4226.29 875.356 10
-7 -1 1 5578.91 998.629 8
7 -1 0 6615.94 1102.75 1
7 -1 1 1187.16 483.592 1
7 -1 2 20596.3 1874.54 1
-7 0 7 1555.23 569.727 8
7 0 -6 2729.72 728.369 4
-7 0 6 2029.69 590.843 8
-7 0 6 2002.64 615.758 12
7 0 -5 -75.0795 219.464 4
-7 0 5 -14.3076 228.425 12
-7 0 4 649.052 443.393 10
7 0 -4 596.584 350.558 4
-7 0 4 605.432 390.584 8
-7 0 4 359.703 283.946 12
-7 0 3 3013.42 744.258 10
7 0 -3 3056.39 676.104 4
-7 0 3 3271.51 731.446 8
-7 0 3 1927.54 574.215 12
-7 0 2 9504.08 1319.94 10
-7 0 2 11944.1 1397.45 8
-7 0 2 13075.7 1490.99 12
-7 0 1 4141.12 855.273 10
-7 0 1 5393.72 971.387 12
7 0 2 3186.05 768.535 1
-7 1 7 5884.90 1026.67 8
7 1 -6 14187.2 1611.02 4
-7 1 6 12532.1 1423.59 8
7 1 -5 12905.0 1483.12 4
-7 1 5 12246.9 1375.66 8
-7 1 5 14399.6 1565.72 12
-7 1 4 4342.24 914.818 10
7 1 -4 4397.57 828.491 4
-7 1 4 3322.72 742.730 8
-7 1 4 3229.32 762.712 12
-7 1 3 1013.46 472.690 10
7 1 -3 443.502 245.081 4
-7 1 3 1445.05 515.933 8
-7 1 3 493.694 338.156 12
-7 1 2 2621.15 708.367 10
-7 1 2 1845.10 581.422 8
-7 1 2 3923.08 823.410 12
-7 1 1 5162.05 967.570 10
-7 1 1 5828.54 1008.51 12
7 2 -6 6040.64 1085.45 4
7 2 -5 7390.67 1131.86 4
-7 2 5 7925.11 1088.10 8
-7 2 4 936.951 450.018 10
7 2 -4 1057.25 449.120 4
-7 2 4 1693.41 565.993 8
-7 2 4 2044.70 635.652 12
-7 2 3 810.739 425.262 10
7 2 -3 453.242 373.994 4
-7 2 3 544.120 403.724 8
-7 2 3 51.6539 229.975 12
-7 2 2 13278.7 1555.05 10
-7 2 2 16116.3 1665.05 12
-7 3 6 11004.6 1260.22 6
7 3 -5 4185.22 880.136 4
-7 3 5 3638.16 745.895 6
-7 3 4 2805.98 729.405 10
7 3 -4 2598.80 659.355 4
-7 3 3 1656.37 587.965 10
7 3 -3 2529.19 659.007 4
-7 3 2 -220.589 202.016 10
7 3 -2 509.229 389.360 4
7 4 -4 20242.8 1908.25 4
7 4 -3 8256.99 1189.45 4
7 4 -2 557.185 403.360 4
7 5 -3 5390.24 992.285 4
7 5 -2 5549.59 999.004 4
