#------------------------------------------------------------------------------
#$Date: 2020-10-04 05:42:14 +0300 (Sun, 04 Oct 2020) $
#$Revision: 256985 $
#$URL: file:///home/coder/svn-repositories/cod/cif/4/51/79/4517972.cif $
#------------------------------------------------------------------------------
#
# This file is available in the Crystallography Open Database (COD),
# http://www.crystallography.net/
#
# All data on this site have been placed in the public domain by the
# contributors.
#
data_4517972
loop_
_publ_author_name
'Werner, Philipp'
'W\"achter, Tobias'
'Asyuda, Andika'
'Wiesner, Adrian'
'Kind, Martin'
'Bolte, Michael'
'Weinhardt, Lothar'
'Terfort, Andreas'
'Zharnikov, Michael'
_publ_section_title
;
 Electron Transfer Dynamics and Structural Effects in Benzonitrile
 Monolayers with Tuned Dipole Moments by Differently Positioned Fluorine
 Atoms.
;
_journal_issue                   35
_journal_name_full               'ACS applied materials &amp; interfaces'
_journal_page_first              39859
_journal_page_last               39869
_journal_paper_doi               10.1021/acsami.0c10513
_journal_volume                  12
_journal_year                    2020
_chemical_formula_moiety         'C7 H3 F2 N S'
_chemical_formula_sum            'C7 H3 F2 N S'
_chemical_formula_weight         171.16
_space_group_crystal_system      triclinic
_space_group_IT_number           2
_space_group_name_Hall           '-P 1'
_space_group_name_H-M_alt        'P -1'
_atom_sites_solution_hydrogens   mixed
_audit_creation_method           SHELXL-2014/6
_cell_angle_alpha                71.016(13)
_cell_angle_beta                 79.716(14)
_cell_angle_gamma                68.033(13)
_cell_formula_units_Z            2
_cell_length_a                   6.8340(13)
_cell_length_b                   7.0649(12)
_cell_length_c                   8.0860(14)
_cell_measurement_reflns_used    2700
_cell_measurement_temperature    173(2)
_cell_measurement_theta_max      25.83
_cell_measurement_theta_min      3.56
_cell_volume                     341.65(11)
_computing_cell_refinement       'X-Area (Stoe & Cie, 2001)'
_computing_data_collection       'X-Area (Stoe & Cie, 2001)'
_computing_data_reduction        'X-Area (Stoe & Cie, 2001)'
_computing_molecular_graphics    'XP in SHELXTL-Plus (Sheldrick, 2008)'
_computing_publication_material  SHELXL
_computing_structure_refinement  'SHELXL-2014/6 (Sheldrick, 2014)'
_computing_structure_solution    'SHELXS (Sheldrick, 2008)'
_diffrn_ambient_temperature      173(2)
_diffrn_measured_fraction_theta_full 0.992
_diffrn_measured_fraction_theta_max 0.991
_diffrn_measurement_device_type  'STOE IPDS II two-circle-diffractometer'
_diffrn_measurement_method       \w
_diffrn_radiation_type           MoK\a
_diffrn_radiation_wavelength     0.71073
_diffrn_reflns_av_R_equivalents  0.0229
_diffrn_reflns_av_unetI/netI     0.0219
_diffrn_reflns_Laue_measured_fraction_full 0.992
_diffrn_reflns_Laue_measured_fraction_max 0.991
_diffrn_reflns_limit_h_max       8
_diffrn_reflns_limit_h_min       -8
_diffrn_reflns_limit_k_max       8
_diffrn_reflns_limit_k_min       -8
_diffrn_reflns_limit_l_max       9
_diffrn_reflns_limit_l_min       -9
_diffrn_reflns_number            2700
_diffrn_reflns_point_group_measured_fraction_full 0.992
_diffrn_reflns_point_group_measured_fraction_max 0.991
_diffrn_reflns_theta_full        25.000
_diffrn_reflns_theta_max         25.536
_diffrn_reflns_theta_min         3.569
_diffrn_source                   'Genix 3D I\mS microfocus X-ray source'
_exptl_absorpt_coefficient_mu    0.431
_exptl_absorpt_correction_T_max  1.000
_exptl_absorpt_correction_T_min  0.421
_exptl_absorpt_correction_type   multi-scan
_exptl_absorpt_process_details   'X-Area (Stoe & Cie, 2001)'
_exptl_crystal_colour            colourless
_exptl_crystal_density_diffrn    1.664
_exptl_crystal_description       block
_exptl_crystal_F_000             172
_exptl_crystal_size_max          0.290
_exptl_crystal_size_mid          0.290
_exptl_crystal_size_min          0.270
_refine_diff_density_max         0.267
_refine_diff_density_min         -0.194
_refine_diff_density_rms         0.048
_refine_ls_extinction_method     none
_refine_ls_goodness_of_fit_ref   1.109
_refine_ls_hydrogen_treatment    mixed
_refine_ls_matrix_type           full
_refine_ls_number_parameters     104
_refine_ls_number_reflns         1272
_refine_ls_number_restraints     0
_refine_ls_restrained_S_all      1.109
_refine_ls_R_factor_all          0.0324
_refine_ls_R_factor_gt           0.0303
_refine_ls_shift/su_max          0.000
_refine_ls_shift/su_mean         0.000
_refine_ls_structure_factor_coef Fsqd
_refine_ls_weighting_details
'w=1/[\s^2^(Fo^2^)+(0.0499P)^2^+0.0932P] where P=(Fo^2^+2Fc^2^)/3'
_refine_ls_weighting_scheme      calc
_refine_ls_wR_factor_gt          0.0840
_refine_ls_wR_factor_ref         0.0852
_reflns_Friedel_coverage         0.000
_reflns_number_gt                1198
_reflns_number_total             1272
_reflns_threshold_expression     'I > 2\s(I)'
_cod_data_source_file            am0c10513_si_002.cif
_cod_data_source_block           te74
_cod_depositor_comments
;Adding full bibliography for 4517969--4517972.cif.

 Adding full bibliography for 4517969--4517972.cif.
;
_cod_database_code               4517972
_shelx_space_group_comment
; 
The symmetry employed for this shelxl refinement is uniquely defined 
by the following loop, which should always be used as a source of 
symmetry information in preference to the above space-group names. 
They are only intended as comments. 
;
_shelx_estimated_absorpt_t_min   0.885
_shelx_estimated_absorpt_t_max   0.892
_shelxl_version_number           2014/6
_shelx_res_file
; 
TITL te74 in P-1 
CELL .71073    6.8340   7.0649   8.0860  71.016  79.716  68.033 
ZERR 2         0.0013   0.0012   0.0014   0.013   0.014   0.013 
LATT 1 
SFAC C  H F N S 
UNIT 14 6 4 2 2 
TEMP-100 
SIZE.29 .29 .27 
REM colourless block 
OMIT 3 0 0 
ACTA50 
CONF 
L.S. 10 
BOND$H 
EQIV $1 x,y+1,z-1 
HTAB S1 N1_$1 
HTAB S1 F1 
FMAP 2 
PLAN 10 
WGHT    0.049900    0.093200 
FVAR       1.72663 
S1    5    0.236424    0.892971    0.165607    11.00000    0.04736    0.02697 = 
         0.01832   -0.00321   -0.00400   -0.01033 
H1    2    0.249873    1.057498    0.169565    11.00000    0.04734 
F1    3    0.286354    1.076332    0.434448    11.00000    0.05866    0.02106 = 
         0.02705   -0.00178   -0.00539   -0.01905 
F2    3    0.215390    0.295465    0.718788    11.00000    0.05024    0.02265 = 
         0.02870   -0.00293   -0.00531   -0.01973 
N1    4    0.256962    0.423120    1.091604    11.00000    0.05100    0.03210 = 
         0.02201   -0.00306   -0.00312   -0.01817 
C1    1    0.245347    0.778395    0.393476    11.00000    0.02490    0.02186 = 
         0.01909   -0.00451   -0.00193   -0.00471 
C2    1    0.269249    0.881432    0.505110    11.00000    0.03058    0.01741 = 
         0.02488   -0.00301   -0.00160   -0.00819 
C3    1    0.277152    0.794178    0.682866    11.00000    0.03176    0.02225 = 
         0.02301   -0.00792   -0.00229   -0.00989 
AFIX  43 
H3    2    0.295615    0.868692    0.754481    11.00000   -1.20000 
AFIX   0 
C4    1    0.257486    0.593211    0.756705    11.00000    0.02594    0.02100 = 
         0.01971   -0.00454   -0.00137   -0.00735 
C5    1    0.233158    0.489654    0.646094    11.00000    0.02530    0.01868 = 
         0.02560   -0.00428   -0.00175   -0.00751 
C6    1    0.227852    0.576638    0.467637    11.00000    0.02764    0.02318 = 
         0.02358   -0.00843   -0.00336   -0.00807 
AFIX  43 
H6    2    0.212523    0.500779    0.395751    11.00000   -1.20000 
AFIX   0 
C7    1    0.258436    0.497406    0.942810    11.00000    0.03292    0.02272 = 
         0.02597   -0.00685   -0.00168   -0.01103 
HKLF 4 
  
REM  te74 in P-1 
REM R1 =  0.0303 for    1198 Fo > 4sig(Fo)  and  0.0324 for all    1272 data 
REM    104 parameters refined using      0 restraints 
  
END 
  
WGHT      0.0499      0.0932 
  
REM Highest difference peak  0.267,  deepest hole -0.194,  1-sigma level  0.048 
Q1    1   0.2090  0.8229  0.2936  11.00000  0.05    0.27 
Q2    1   0.2982  0.8177  0.5952  11.00000  0.05    0.26 
Q3    1   0.2318  0.8361  0.5955  11.00000  0.05    0.26 
Q4    1   0.2445  0.6998  0.7227  11.00000  0.05    0.23 
Q5    1   0.2568  0.5380  0.5603  11.00000  0.05    0.22 
Q6    1   0.2487  0.6752  0.4233  11.00000  0.05    0.21 
Q7    1   0.2758  0.8214  0.4506  11.00000  0.05    0.21 
Q8    1   0.2460  0.5411  0.8513  11.00000  0.05    0.19 
Q9    1   0.2176  0.5560  0.7149  11.00000  0.05    0.18 
Q10   1   0.3084  0.4942  1.0108  11.00000  0.05    0.17 
;
_shelx_res_checksum              94100
_shelx_hkl_file
; 
  -6  -6   2   33.13    2.05   0 
  -5  -3   2  382.63    3.09   0 
  -5  -2   3  342.37    2.91   0 
  -4  -4   0  171.91    2.49   0 
  -4   0   4    1.96    1.38   0 
  -4   1   6  168.64    2.33   0 
  -2   2   4  388.74    3.34   0 
  -2   3   6  236.59    2.86   0 
   3   2   1  245.68    2.99   0 
   4   3   2   90.99    2.09   0 
   5   3   2   34.78    1.47   0 
   6   0   0 1230.85    4.87   0 
   7   5   5    8.81    1.74   0 
  -6  -4   3  307.25    2.87   0 
  -6  -3   4  153.45    2.32   0 
   3  -6  -2    2.00    1.85   0 
   4  -1  -1    8.99    1.42   0 
   4   2   1  785.04    4.32   0 
   5  -2  -1   12.93    1.48   0 
   7   2   2    4.87    1.71   0 
  -6  -2   5   45.81    1.84   0 
  -5  -7   0   28.60    2.14   0 
  -5  -4   1  167.05    2.28   0 
  -5  -1   4  126.02    2.00   0 
  -5   0   6    2.94    1.52   0 
  -4  -7  -1   15.23    2.42   0 
  -3  -4  -1 3213.79   10.79   0 
   0   4   5  225.79    3.79   0 
   3  -5  -2   15.36    1.76   0 
   4   6   7  498.44    6.83   0 
   6   5   5   38.25    1.93   0 
   7   3   3   18.99    1.81   0 
   7   4   4   19.44    1.61   0 
  -5  -6   0    4.25    1.64   0 
  -4  -8  -1    1.42    2.64   0 
  -4  -6  -1  131.43    2.88   0 
  -4   1   5  316.47    3.01   0 
  -3  -1   1  795.94    4.46   0 
  -3   0   2   68.49    1.90   0 
   5   0   0   37.17    1.83   0 
   6  -1   0   14.47    1.61   0 
   6   1   1   51.98    1.72   0 
   6   6   7  213.30    3.79   0 
   7   0   1    2.64    1.49   0 
   8   2   3    6.86    1.64   0 
  -6  -3   3    5.49    1.58   0 
  -5   0   5   47.94    2.06   0 
  -4  -2   1  120.76    1.98   0 
  -4  -1   2  528.22    3.36   0 
  -2   4   8   11.28    2.09   0 
  -1   4   6  109.48    2.77   0 
   1  -7  -2    4.42    2.43   0 
   1   5   6   35.93    3.39   0 
   2  -6  -2    8.33    2.12   0 
   2  -1  -1    3.87    1.41   0 
   4   5   5   23.01    2.30   0 
   5   5   5    4.13    1.87   0 
   8   3   4    0.62    1.63   0 
  -6  -6   1  225.84    2.87   0 
  -6  -4   2    5.29    1.49   0 
  -6  -2   4  101.14    2.00   0 
  -5  -5   0  195.43    2.70   0 
  -4   0   3  127.96    2.19   0 
  -4   2   7    1.53    1.66   0 
  -3  -2   0  766.11    4.69   0 
  -3   3   7   13.07    1.86   0 
  -2   0   1  535.76    4.24   0 
  -1   3   4  109.48    2.49   0 
   0   5   7  108.02    3.31   0 
   2  -5  -2   26.52    1.98   0 
   6  -3   0    5.76    1.86   0 
   6  -2   0   87.52    2.03   0 
   6   2   2 1055.54    4.69   0 
   6   4   4   96.49    2.24   0 
   7  -1   1   13.96    1.67   0 
   7   5   6  167.31    3.02   0 
  -5  -2   2    1.73    1.38   0 
  -5  -1   3  125.04    2.23   0 
  -3   1   3   88.50    1.87   0 
  -2   1   2   40.36    1.77   0 
  -2   3   5  724.35    4.48   0 
  -1  -7  -2    1.92    3.29   0 
   6   3   3   35.48    1.68   0 
   7   1   2  167.00    2.39   0 
  -6  -1   5  121.16    2.26   0 
  -5  -3   1   24.83    1.54   0 
  -4  -5  -1   64.24    2.18   0 
  -4  -3   0 2338.97    7.33   0 
  -1  -5  -2  261.54    6.97   0 
   0  -7  -2  202.61    4.29   0 
   1  -6  -2   35.07    2.48   0 
   4  -5  -1  120.95    2.48   0 
   4  -3  -1   33.32    1.62   0 
   5  -1   0  492.45    3.38   0 
   5   1   1  151.18    2.19   0 
   6   0   1    3.03    1.44   0 
  -5   0   4  530.09    3.67   0 
  -5   1   6   16.01    1.58   0 
  -4   1   4  681.73    3.93   0 
  -4   2   6   46.66    1.83   0 
  -2  -1   0    1.36    1.28   0 
  -2   4   7   14.66    2.06   0 
   1  -5  -2   67.87    2.49   0 
   3  -2  -1   17.82    1.58   0 
   5   4   4  139.27    2.60   0 
   7   2   3    1.03    1.42   0 
   7   3   4   48.84    2.03   0 
   7   4   5   72.00    2.12   0 
  -6  -3   2   35.69    1.61   0 
  -6  -2   3   12.55    1.58   0 
  -3   3   6  176.65    2.60   0 
  -1   5   8  144.15    3.22   0 
   3   0   0   75.47    2.60   0 
   5   2   2   73.51    1.78   0 
   6   5   6  271.32    3.57   0 
   7   0   2   96.60    1.97   0 
  -6  -7   0   21.28    1.92   0 
  -6  -4   1    9.42    1.67   0 
  -6  -1   4   41.06    1.69   0 
  -5  -4   0   12.75    1.37   0 
  -3   2   4    3.26    1.19   0 
  -2   2   3  260.54    2.89   0 
   3  -6  -1   86.46    2.59   0 
   4   1   1  103.25    2.10   0 
   5  -4   0   10.96    1.90   0 
   5  -3   0   56.85    1.92   0 
   5   3   3   87.29    1.82   0 
   6  -1   1    3.12    1.47   0 
   6   1   2   25.53    1.77   0 
   7  -1   2   15.41    1.94   0 
  -5  -7  -1   58.45    2.55   0 
   3  -3  -1   76.83    1.87   0 
   4  -1   0   35.00    1.79   0 
   6  -2   1    3.87    1.43   0 
   7   1   3   42.24    1.91   0 
  -7  -4   2   24.83    1.62   0 
  -7  -3   3   97.92    2.16   0 
  -6   0   5    9.16    1.63   0 
  -5  -8  -1   39.60    2.69   0 
  -5  -1   2    1.62    1.35   0 
  -4  -1   1  639.56    3.83   0 
  -4   2   5   73.87    1.89   0 
  -3  -3  -1  333.63    3.58   0 
   2  -2  -1  686.27    4.46   0 
   2   4   4  673.49    9.26   0 
   3  -5  -1   34.62    2.04   0 
   5   0   1   -0.41    1.34   0 
   6   4   5   23.55    1.79   0 
  -6  -2   2   59.91    1.88   0 
  -5  -6  -1   21.99    1.74   0 
  -5  -2   1   32.42    1.50   0 
  -5   0   3  136.78    2.21   0 
  -4  -4  -1   71.24    2.13   0 
  -4   0   2  205.84    2.29   0 
  -3  -7  -2   15.53    3.66   0 
   1   6   8   13.72    3.74   0 
   3  -4  -1 1194.00    5.51   0 
   4   2   2 4586.76   10.18   0 
   5   5   6  235.30    3.75   0 
   5   6   8    3.03    2.49   0 
   6   2   3   87.64    1.87   0 
   6   3   4    3.86    1.71   0 
   7   2   4  220.77    2.76   0 
  -6  -3   1   74.58    1.91   0 
  -6  -1   3    6.24    1.55   0 
  -4  -2   0   22.37    1.56   0 
  -4   1   3  376.49    3.21   0 
  -3  -6  -2   71.80    3.31   0 
  -1   4   5  113.55    2.67   0 
   4   3   3   33.54    1.76   0 
   6   0   2   29.37    1.58   0 
   7   0   3   65.16    1.90   0 
   7   3   5   37.47    2.10   0 
  -5  -5  -1    3.45    1.77   0 
  -5  -3   0  260.61    2.56   0 
  -5   2   6  163.21    2.71   0 
  -3   0   1   69.30    1.86   0 
  -3   1   2   47.53    1.73   0 
  -3   3   5    3.60    1.62   0 
  -2   3   4    6.83    1.60   0 
  -1   5   7  110.14    3.08   0 
   3   1   1    9.98    1.42   0 
   4  -5   0   37.40    2.03   0 
   4  -2   0  326.36    2.91   0 
   5  -1   1  123.77    2.06   0 
  -7  -3   2   83.10    1.95   0 
  -7  -2   3   87.88    2.08   0 
  -6   0   4    1.79    1.48   0 
  -5   1   4   31.38    1.60   0 
  -1   2   2  624.84    5.09   0 
   2  -6  -1  146.28    2.94   0 
   4  -4   0   25.63    1.91   0 
   4  -3   0   26.57    1.86   0 
   5   1   2  430.90    3.17   0 
   6  -1   2   19.33    1.63   0 
   6   5   7    7.92    1.87   0 
  -7  -4   1   65.16    1.91   0 
  -6  -4   0   55.14    1.81   0 
  -4   2   4  174.13    2.50   0 
  -4   3   6  121.68    2.42   0 
  -3  -1   0  130.99    2.20   0 
  -2  -2  -1 1492.11    8.35   0 
   0   5   6  193.65    4.15   0 
   1  -2  -1   64.49    2.04   0 
   2  -3  -1    0.77    1.41   0 
   3  -1   0 1239.67    5.31   0 
   4   0   1   80.65    1.83   0 
   5  -4   1   30.31    1.80   0 
   5  -3   1   11.96    1.79   0 
   5  -2   1  101.93    1.89   0 
   5   4   5   70.75    2.25   0 
   6  -2   2   71.69    1.90   0 
   6   1   3   13.33    1.51   0 
   7   1   4    8.56    1.55   0 
  -7  -6   0    2.65    1.78   0 
  -6  -7  -1   13.02    2.08   0 
  -3   2   3   99.76    2.09   0 
   2  -5  -1  189.25    2.89   0 
   4   5   6  385.18    4.61   0 
   5   2   3    2.87    1.35   0 
   7   2   5   17.01    1.81   0 
  -6  -2   1  102.57    2.08   0 
  -6  -1   2  174.15    2.25   0 
  -5  -1   1  202.81    2.45   0 
  -5   0   2    5.70    1.53   0 
   1  -7  -1    3.73    2.19   0 
   2  -4  -1  223.83    2.85   0 
   3  -6   0    3.08    1.77   0 
   5   3   4   84.13    1.95   0 
   6   2   4    7.06    1.56   0 
   6   4   6  130.45    2.50   0 
   7   0   4   43.65    1.86   0 
   7   3   6    6.42    1.63   0 
  -7  -2   2    5.00    1.46   0 
  -6   0   3   39.55    1.76   0 
  -5  -4  -1  715.59    4.17   0 
  -4  -7  -2  371.97    5.38   0 
  -4  -6  -2   70.70    2.76   0 
  -4  -3  -1   72.37    1.77   0 
  -1   3   3 3116.86   10.76   0 
   2   1   1   70.28    2.19   0 
   5   0   2  565.75    3.46   0 
   6   0   3   53.74    1.81   0 
   6   3   5  202.78    2.75   0 
  -7  -3   1   12.97    1.53   0 
  -7  -1   3   37.20    1.78   0 
  -6  -3   0  999.02    4.77   0 
  -5  -2   0  224.08    2.40   0 
  -5   1   3    6.26    1.38   0 
  -3   4   6   84.24    2.36   0 
  -2   4   5   72.33    2.26   0 
   3  -5   0    0.47    1.87   0 
   3  -2   0  910.50    4.55   0 
   3   6   8    1.39    3.13   0 
   4  -1   1   38.19    1.70   0 
   5   5   7   22.69    2.16   0 
   7   1   5  111.82    2.45   0 
  -6   1   4  216.47    2.81   0 
  -4  -8  -2   66.90    4.58   0 
  -4   0   1   47.99    1.69   0 
  -4   1   2    6.79    1.60   0 
  -4   3   5  163.21    2.60   0 
  -3   3   4   42.21    1.77   0 
   0   6   8   37.03    3.43   0 
   4  -5   1    8.99    1.87   0 
   4   1   2   38.88    1.57   0 
   6  -2   3   32.59    1.75   0 
   6  -1   3  484.28    3.53   0 
  -7  -4   0    1.56    1.48   0 
  -4  -1   0    4.07    1.35   0 
  -3  -2  -1  249.76    3.02   0 
  -2   1   1    4.34    1.42   0 
  -2   2   2 3366.86    9.50   0 
   1  -6  -1  174.63    3.30   0 
   3  -4   0  120.75    2.41   0 
   3  -3   0  137.18    2.13   0 
   3   5   6  139.70    3.91   0 
   5  -1   2   29.36    1.61   0 
   6   1   4    6.73    1.41   0 
   7   2   6  480.71    3.71   0 
  -5  -7  -2   23.35    2.48   0 
  -5   2   4    3.35    1.46   0 
  -4  -5  -2 1072.54    6.46   0 
  -4   2   3   46.14    1.89   0 
  -1   5   6    7.08    2.33   0 
   0  -2  -1 1472.73   11.71   0 
   1  -3  -1  360.51    3.79   0 
   2  -1   0   75.79    1.98   0 
   3   0   1   19.40    1.47   0 
   4  -4   1  226.51    2.72   0 
   4  -3   1   93.14    2.13   0 
   4  -2   1   20.58    1.48   0 
   4   4   5  178.23    2.94   0 
   5  -2   2   18.34    1.54   0 
   5   1   3  179.95    2.26   0 
   6   4   7   79.93    2.30   0 
  -7  -6  -1   24.05    1.90   0 
  -7  -2   1   19.57    1.85   0 
  -7  -1   2    3.22    1.47   0 
  -6  -4  -1    1.18    1.72   0 
  -6  -1   1  168.00    2.41   0 
  -5  -6  -2   17.43    2.35   0 
  -5  -3  -1   84.83    1.90   0 
   2   3   3    1.16    1.82   0 
   4   2   3  502.03    3.53   0 
   4   3   4    1.81    1.66   0 
   6   0   4   67.54    2.09   0 
   6   2   5  143.61    2.28   0 
   6   3   6   37.72    1.99   0 
  -7   0   3    8.98    1.60   0 
  -6   0   2   68.10    1.84   0 
  -5  -8  -2    3.40    2.72   0 
  -3  -4  -2  364.02    4.45   0 
  -2  -4  -2  363.54    6.98   0 
  -2   3   3   53.45    2.15   0 
   1  -5  -1   53.83    2.17   0 
   1  -4  -1 3484.56   10.64   0 
   2  -6   0  189.89    3.11   0 
   5   2   4  682.08    3.83   0 
   6  -1   4    3.48    1.74   0 
  -7  -5  -1    5.83    1.71   0 
  -7  -3   0   63.85    1.88   0 
  -6  -2   0    4.40    1.43   0 
  -6   1   3   63.04    1.94   0 
  -5   0   1   58.17    1.75   0 
  -4  -2  -1  831.18    4.49   0 
  -3   1   1 5960.52   11.37   0 
  -3   4   5   63.87    2.22   0 
   0  -7  -1    1.37    2.13   0 
   4   0   2   60.81    1.64   0 
   5   0   3  303.32    2.74   0 
   5   3   5   75.06    1.84   0 
   5   5   8   94.15    2.72   0 
  -8  -4   0   10.04    1.82   0 
  -5  -5  -2  531.27    4.50   0 
  -5  -1   0   80.51    1.77   0 
  -5   1   2    8.17    1.41   0 
  -5   3   5    5.78    1.85   0 
  -4   3   4    0.11    1.69   0 
  -3   2   2  230.25    2.70   0 
   6   1   5  382.27    3.29   0 
  -6  -6  -2   26.01    2.12   0 
  -4  -4  -2  149.88    2.71   0 
  -3   0   0   66.64    2.42   0 
  -2   5   6  100.15    2.96   0 
   2  -5   0  269.34    3.12   0 
   2  -2   0  834.57    4.79   0 
   3  -5   1   15.11    1.79   0 
   3  -1   1  641.98    3.94   0 
   5  -3   3   58.73    1.88   0 
   5  -2   3   77.62    2.19   0 
   6   2   6   15.66    1.96   0 
  -7  -4  -1   52.59    2.08   0 
  -6  -3  -1   18.28    1.52   0 
  -6   2   4   30.86    1.77   0 
  -5   2   3   43.02    1.76   0 
   1  -7   0  331.30    4.05   0 
   3   1   2  544.50    3.84   0 
   4  -4   2   65.21    2.06   0 
   4  -1   2   74.55    1.77   0 
   5   1   4    2.53    1.56   0 
   6  -1   5   42.53    2.07   0 
   6   0   5   13.98    1.58   0 
   6   3   7   55.58    1.86   0 
  -7  -1   1   35.02    1.67   0 
  -7   0   2    0.04    1.50   0 
  -6  -5  -2  860.08    5.13   0 
  -5  -2  -1  145.98    2.32   0 
  -4   1   1   10.28    1.66   0 
  -3   3   3 1632.34    6.36   0 
  -2   4   4   13.79    1.93   0 
   2  -3   0  199.23    2.58   0 
   3  -4   1   77.30    2.08   0 
   4  -3   2  213.29    2.47   0 
   4  -2   2  218.00    2.55   0 
   5   4   7   74.26    2.20   0 
  -8  -3   0  220.47    2.75   0 
  -7  -2   0   67.64    1.88   0 
  -6   0   1   13.04    1.59   0 
  -5  -4  -2  213.32    2.71   0 
  -4   0   0 7496.22   12.12   0 
  -4   2   2  367.08    3.15   0 
  -4   4   5   13.35    1.94   0 
   2   5   6  306.06    6.16   0 
   3  -3   1   13.38    1.51   0 
   3  -2   1  630.85    3.74   0 
   3   4   5   65.61    2.53   0 
   4   1   3  404.05    3.05   0 
   5   2   5   46.45    1.94   0 
   6   1   6  204.64    2.63   0 
  -6  -1   0    2.04    1.45   0 
  -6   1   2    1.79    1.45   0 
  -5   3   4    8.72    1.85   0 
   0  -6  -1  305.11    3.99   0 
   4   4   6  303.14    3.54   0 
   5   3   6   51.37    1.78   0 
   6   0   6   24.63    1.76   0 
   6   2   7  176.26    2.64   0 
  -7  -3  -1   18.14    1.54   0 
  -3   5   6    0.19    2.13   0 
  -2  -1  -1   64.22    2.15   0 
   2  -6   1  155.21    2.76   0 
   2   0   1  878.30    5.24   0 
   3   3   4   10.08    1.71   0 
   4   2   4   38.79    1.71   0 
   5  -2   4  169.06    2.45   0 
   5  -1   4   24.85    1.60   0 
  -8  -4  -1   13.71    1.67   0 
  -7  -5  -2  255.67    3.24   0 
  -6  -4  -2  103.05    2.21   0 
  -6  -2  -1  244.51    2.60   0 
  -6   2   3    8.35    1.50   0 
  -5   1   1 2249.31    6.83   0 
  -4  -1  -1   97.74    2.10   0 
  -4   3   3   26.57    1.86   0 
  -3  -3  -2  347.48    3.82   0 
  -3   4   4  101.18    2.25   0 
   1  -6   0    4.39    1.87   0 
   1  -1   0 2224.68    9.99   0 
   3  -5   2  394.33    3.64   0 
   4  -4   3  629.14    4.19   0 
   4   0   3  226.58    2.65   0 
   6   1   7   99.51    2.24   0 
  -8  -2   0    2.24    1.88   0 
  -7   0   1    9.75    1.78   0 
  -5   0   0   23.98    1.71   0 
  -5   2   2   72.75    2.07   0 
  -1   5   5  184.28    3.86   0 
   3   0   2 1589.88    6.09   0 
   4  -3   3    2.85    1.62   0 
   5   1   5  351.84    2.96   0 
  -7  -1   0   42.24    1.79   0 
  -7   1   2    0.61    1.90   0 
  -5  -3  -2   33.58    1.47   0 
   0  -5  -1   73.70    2.52   0 
   0   5   5   29.03    3.21   0 
   3   5   7   72.38    2.94   0 
   4  -2   3  160.41    2.29   0 
   4  -1   3 1397.33    5.26   0 
   5  -2   5   17.24    1.97   0 
   5   0   5  144.75    2.42   0 
   5   3   7   63.88    2.11   0 
  -8  -3  -1    5.90    1.54   0 
  -7  -4  -2  116.08    2.40   0 
  -7  -2  -1   46.94    1.95   0 
  -5  -1  -1  143.92    2.09   0 
  -2   5   5   35.33    2.49   0 
  -1  -7  -1    2.17    2.37   0 
   0  -3  -1  107.04    2.87   0 
   2  -5   1    2.66    1.60   0 
   3  -4   2  121.41    2.25   0 
   5  -1   5   10.87    1.54   0 
  -6  -3  -2   23.85    1.70   0 
  -6   0   0 1249.23    5.03   0 
  -6   1   1    0.82    1.54   0 
  -5   3   3  501.55    4.04   0 
  -4   4   4   24.15    1.87   0 
  -3   2   1   17.88    1.61   0 
  -2   2   1  678.52    4.43   0 
   0  -4  -1  454.68    4.91   0 
   1  -5   0   74.73    2.27   0 
   4   1   4    6.41    1.53   0 
   4   5   9  305.68    4.06   0 
  -6  -1  -1   52.21    1.89   0 
  -6   2   2    3.58    1.76   0 
  -3   1   0 1295.09    5.53   0 
  -2   3   2   84.76    2.12   0 
   0  -7   0   10.92    2.06   0 
   2  -6   2   15.84    1.87   0 
   3  -5   3  184.71    2.80   0 
   3  -3   2  211.66    2.40   0 
   3  -1   2   17.59    1.35   0 
   4   4   7  151.42    2.73   0 
   5   1   6   11.38    1.49   0 
   5   3   8   41.87    2.23   0 
  -8  -4  -2   63.05    2.32   0 
  -6  -6  -3  276.43    4.11   0 
  -5  -6  -3 1702.54    9.42   0 
  -4  -2  -2 4033.13    9.78   0 
  -4   1   0   35.90    1.78   0 
  -4   2   1  469.75    3.44   0 
  -3   3   2   48.36    1.78   0 
  -3   5   5   82.83    2.52   0 
  -2  -8  -1    2.29    2.96   0 
  -2  -3  -2  167.57    4.02   0 
  -2   1   0   79.50    2.19   0 
  -1   3   2  262.02    3.47   0 
   2  -4   1  622.64    3.90   0 
   2  -1   1  660.97    4.32   0 
   3  -2   2   28.49    1.48   0 
   4  -3   4  121.67    2.23   0 
   4   2   5  412.29    3.20   0 
   5  -1   6   50.22    1.89   0 
   5   0   6   84.62    1.97   0 
   5   2   7    5.58    1.80   0 
  -8  -2  -1   30.28    1.85   0 
  -7  -3  -2    3.17    1.34   0 
  -7   0   0    9.94    1.86   0 
  -6  -7  -3    9.52    2.25   0 
  -5  -5  -3  102.78    2.64   0 
  -5  -2  -2   68.30    1.69   0 
  -1   2   1   64.68    2.07   0 
   1  -4   0  587.26    4.36   0 
   1  -2   0 2173.26    8.69   0 
   3   1   3  557.40    3.76   0 
   4  -2   4   22.03    1.74   0 
   4   0   4   89.91    1.88   0 
   4   3   6   59.14    1.98   0 
  -7  -6  -3  483.07    4.78   0 
  -7  -1  -1   79.67    2.20   0 
  -7   1   1  528.52    4.14   0 
  -6  -5  -3   87.11    2.32   0 
  -5  -7  -3    6.68    2.42   0 
  -5   1   0  524.52    3.59   0 
  -5   2   1   15.18    1.70   0 
  -4   3   2   30.00    1.62   0 
  -3  -2  -2  357.40    3.60   0 
  -2   4   3  185.38    2.92   0 
   2  -3   1   70.72    1.75   0 
   2  -2   1   39.51    1.53   0 
   2   1   2   14.36    1.44   0 
   3  -4   3  204.80    2.69   0 
   4  -1   4    6.34    1.47   0 
   5   0   7    3.93    1.72   0 
   5   1   7    1.19    1.46   0 
   5   2   8    2.50    1.76   0 
  -6  -2  -2  916.99    4.65   0 
  -4   0  -1   75.86    1.76   0 
  -3   0  -1   18.13    1.44   0 
  -3   4   3   21.17    1.69   0 
  -1   4   3   19.56    2.23   0 
   1  -6   1  306.47    3.28   0 
   1  -3   0  257.90    3.04   0 
   2  -5   2   25.61    1.89   0 
   3   4   6    8.87    1.84   0 
   4  -3   5   88.14    2.09   0 
   4   4   8   58.45    2.39   0 
  -8  -3  -2    0.95    1.50   0 
  -5  -4  -3   12.56    1.65   0 
  -5   0  -1    0.05    1.32   0 
  -5   3   2   15.50    1.87   0 
  -4  -6  -3  985.37    8.54   0 
  -4  -5  -3  153.75    3.29   0 
  -1  -1  -1 2868.13   15.90   0 
   3   2   4 1087.60    5.31   0 
   3   5   8  187.06    3.53   0 
   4   1   5  495.83    3.53   0 
   5   1   8   29.83    1.70   0 
  -8  -5  -3   28.75    2.21   0 
  -7  -2  -2    4.94    1.55   0 
  -6   1   0   10.98    1.60   0 
  -6   2   1  226.89    3.02   0 
  -4   4   3   79.20    2.21   0 
   1   2   2  892.68   10.57   0 
   2   4   5  354.95    5.03   0 
   3  -3   3  135.70    2.08   0 
   3   0   3 1557.23    5.77   0 
   3   3   5  112.05    2.58   0 
   4  -2   5  344.43    2.98   0 
   4   3   7  360.41    3.35   0 
  -7  -4  -3   11.09    1.60   0 
  -6   0  -1    3.95    1.45   0 
  -4  -4  -3  872.75    5.75   0 
  -1  -6  -1  106.66    3.04   0 
   0  -6   0  437.19    4.12   0 
   3  -4   4  115.81    2.18   0 
   3  -2   3  175.76    2.36   0 
   4  -1   5  235.51    2.49   0 
   4   0   5   98.04    1.90   0 
   4   2   6   97.60    2.05   0 
   4   4   9   39.80    2.14   0 
  -6   3   2    5.80    1.92   0 
  -5  -1  -2  407.41    3.05   0 
  -5   4   3    4.95    1.92   0 
  -4  -1  -2   37.60    1.76   0 
  -2   5   4   24.48    2.30   0 
  -2   6   6   11.03    2.51   0 
   0  -7   1   75.18    2.52   0 
   1   6   8   13.90    4.23   0 
   2  -4   2  190.45    2.50   0 
   2   2   3 1350.76    7.27   0 
   3  -1   3  255.21    2.55   0 
   4  -2   6   43.69    1.82   0 
  -8  -4  -3   53.85    2.16   0 
  -8  -2  -2  154.65    2.72   0 
  -7   0  -1    0.36    1.52   0 
  -7   1   0  131.62    2.39   0 
  -6  -3  -3   30.17    1.64   0 
  -6  -1  -2   21.87    1.58   0 
  -5  -3  -3   78.50    1.95   0 
  -3   5   4  152.34    2.89   0 
  -1   1   0 2153.79    9.79   0 
  -1   6   6  191.12    4.54   0 
   1  -5   1   46.80    1.89   0 
   2  -5   3   78.74    2.28   0 
   3  -4   5  132.13    2.57   0 
   3   5   9    5.58    2.42   0 
   4  -1   6  237.21    2.81   0 
   4   1   6  467.66    3.41   0 
  -7  -3  -3   17.72    1.79   0 
  -4   5   4    3.91    1.86   0 
   1  -6   2   86.63    2.16   0 
   2   0   2   23.30    1.64   0 
   2   3   4   27.33    2.01   0 
   3  -3   4   52.83    1.82   0 
   4   0   6  105.58    1.99   0 
   4   2   7  400.46    3.35   0 
  -7  -1  -2  136.70    2.39   0 
  -5   2   0  229.38    2.67   0 
  -4   2   0  328.32    2.87   0 
  -4   3   1   36.20    1.85   0 
  -3  -1  -2  504.98    3.85   0 
  -3   2   0  917.51    4.66   0 
  -3   3   1   78.47    1.91   0 
  -1   5   4  483.11    5.25   0 
   2  -3   2  650.11    3.84   0 
   2   5   7  172.68    3.88   0 
   3   1   4   16.58    1.33   0 
   4  -1   7   78.42    2.05   0 
   4   3   9  169.70    2.72   0 
  -8  -3  -3    6.19    1.60   0 
  -5   3   1    6.01    1.78   0 
  -4   1  -1   35.11    1.51   0 
  -1  -7   0  337.87    4.05   0 
   2  -5   4   17.71    1.96   0 
   3  -2   4  417.86    3.06   0 
   4   0   7   69.34    1.83   0 
   4   1   7  374.11    2.97   0 
   4   2   8  222.80    2.76   0 
  -7  -6  -4    1.83    2.08   0 
  -6  -2  -3   63.37    1.81   0 
  -6   1  -1    2.54    1.58   0 
  -6   2   0   79.11    2.07   0 
  -5  -2  -3    3.63    1.60   0 
  -4   4   2  193.75    2.83   0 
  -3   4   2  119.21    2.38   0 
  -2  -5  -2  548.30    9.65   0 
  -2   3   1    1.75    1.65   0 
   0  -5   0  896.95    5.52   0 
   0   3   2  178.79    4.39   0 
   1  -4   1   81.03    2.01   0 
   2  -4   3 2112.31    6.66   0 
   2  -2   2  418.33    3.23   0 
   2  -1   2   89.56    1.92   0 
   3  -3   5   64.14    1.86   0 
   3  -1   4  234.41    2.46   0 
   3   0   4 2268.45    6.63   0 
   3   2   5  199.29    2.69   0 
   3   3   6  188.13    2.79   0 
   4   0   8   14.12    1.72   0 
   4   1   8  158.82    2.57   0 
   4   2   9   45.54    2.18   0 
  -7  -5  -4   11.49    1.84   0 
  -7  -2  -3    0.66    1.40   0 
  -6   0  -2   28.00    1.83   0 
  -6   3   1   19.57    1.99   0 
  -5   0  -2  531.25    3.43   0 
  -5   4   2   14.10    1.92   0 
  -3  -7  -2   18.44    3.69   0 
   0   4   3  467.81    6.72   0 
   1  -6   3   25.62    1.84   0 
   1   0   1   21.28    1.93   0 
   3  -3   6  306.95    3.10   0 
  -8  -2  -3    3.33    1.90   0 
  -7   1  -1    9.99    1.69   0 
  -4   0  -2   57.76    1.81   0 
  -2  -8   0   30.71    2.69   0 
  -2  -7  -1    6.66    2.53   0 
  -2   2   0  809.16    4.64   0 
  -2   4   2  516.18    4.22   0 
   0  -6   1  619.94    4.40   0 
   1  -5   2  407.79    3.48   0 
   3  -2   5   29.30    1.56   0 
  -7   0  -2   82.29    2.02   0 
  -4  -2  -3  428.08    3.45   0 
  -3   5   3   19.83    2.10   0 
  -2   6   5    1.21    2.50   0 
  -1  -5  -1   24.79    2.40   0 
   2  -4   4  205.88    2.68   0 
   2  -3   3   52.68    1.90   0 
  -8  -4  -4    6.75    1.77   0 
  -6  -7  -4    1.81    2.53   0 
  -4   5   3   55.54    2.26   0 
  -3  -4  -3    8.13    2.14   0 
   1  -3   1    3.29    1.20   0 
   2   1   3 2219.25    8.06   0 
   3  -2   6    8.36    1.59   0 
   3  -1   5    0.24    1.38   0 
   3   0   5  220.75    2.50   0 
   3   4   9   42.94    2.13   0 
  -7  -1  -3   30.49    1.77   0 
  -6  -1  -3   12.19    1.39   0 
  -5  -1  -3  162.29    2.41   0 
   0  -4   0  260.51    3.39   0 
   2  -4   5   65.67    2.10   0 
   2   5   8   52.45    2.89   0 
   3  -2   7  217.05    2.61   0 
   3   2   6 3659.52    8.83   0 
  -8  -3  -4    3.92    1.87   0 
  -7  -3  -4   35.00    1.81   0 
  -6  -3  -4    2.83    1.73   0 
  -5   2  -1  100.03    1.93   0 
  -5   3   0   54.89    2.09   0 
  -4   3   0   28.94    1.85   0 
  -3  -8  -1  110.49    3.63   0 
  -3  -5  -3   28.19    3.81   0 
  -3   0  -2 1458.28    5.90   0 
  -2   1  -1  677.40    4.46   0 
  -2   5   3  120.67    2.87   0 
  -1  -7   1   31.60    2.22   0 
   1  -5   3  202.37    2.68   0 
   1  -2   1 2449.47    8.46   0 
   1  -1   1 1947.23    8.47   0 
   2  -2   3  364.29    2.94   0 
   3  -1   6  199.34    2.31   0 
  -6   1  -2   15.63    1.98   0 
  -6   2  -1    3.90    1.52   0 
  -6   3   0    6.59    1.66   0 
  -5  -6  -4    4.20    2.42   0 
  -5   1  -2   27.98    1.85   0 
  -4   2  -1   18.50    1.53   0 
   0  -6   2   13.68    1.80   0 
   1  -4   2  166.30    2.26   0 
   2  -3   4  362.97    2.94   0 
   2   0   3  527.95    3.86   0 
   2   5   9  557.89    5.21   0 
   3  -1   7   97.41    2.04   0 
   3  -1   8  252.01    3.02   0 
   3   0   6  126.10    2.05   0 
   3   1   6   33.91    1.61   0 
   3   2   7   38.54    1.88   0 
  -7   1  -2   10.84    1.76   0 
  -5   4   1  311.61    3.25   0 
  -4  -1  -3  372.15    3.06   0 
  -4   4   1   85.96    2.11   0 
  -3   3   0  134.32    2.25   0 
  -1  -6   0    0.19    1.93   0 
  -1   3   1  368.72    3.82   0 
  -1   4   2  368.25    4.20   0 
   1  -5   4  374.38    3.41   0 
   1   5   6   37.04    3.64   0 
   2  -1   3 2225.92    6.95   0 
   2   2   4  199.67    2.90   0 
   3   0   7   39.20    1.82   0 
  -7  -2  -4  151.72    2.62   0 
  -6  -2  -4    3.98    1.66   0 
  -6   0  -3   51.10    2.03   0 
  -4  -8  -2  103.24    4.84   0 
  -3  -2  -3   21.84    1.62   0 
  -3   2  -1  648.66    3.98   0 
  -3   4   1 1227.69    5.64   0 
   0  -5   1    3.47    1.62   0 
   0   2   1 1480.77   12.04   0 
   2  -3   5  336.31    2.89   0 
   2   3   5 2087.17    8.57   0 
   3   1   7   77.37    1.89   0 
   3   2   8    8.93    1.82   0 
  -7   0  -3   51.04    2.00   0 
  -5   0  -3  284.04    2.91   0 
  -4   5   2   47.30    2.19   0 
  -1   0  -1   20.96    1.92   0 
   0  -6   3  123.61    2.44   0 
   1  -5   5  138.43    2.39   0 
   2  -3   6   57.21    1.89   0 
   2  -2   4   29.61    1.56   0 
  -7  -6  -5    4.97    2.34   0 
  -5  -2  -4  599.74    3.88   0 
  -3   5   2   14.93    2.05   0 
  -1  -7   2  196.70    2.94   0 
   0  -3   0 1542.33    7.86   0 
   1  -4   3  338.50    3.00   0 
   1  -3   2  942.08    4.80   0 
  -7  -1  -4    5.98    1.86   0 
  -2   6   4    7.17    2.35   0 
  -1   2   0 2236.59    9.00   0 
  -1   5   3    6.94    2.22   0 
   2  -2   5  859.86    4.18   0 
   2  -1   4    7.85    1.53   0 
  -6  -1  -4    4.30    1.47   0 
  -5   3  -1   12.78    1.87   0 
  -4  -4  -4  376.68    4.09   0 
  -4   0  -3  206.25    2.42   0 
  -3   1  -2   17.91    1.45   0 
  -2  -7   0    1.62    2.43   0 
  -2   3   0  202.70    2.66   0 
  -2   4   1  226.20    2.97   0 
   1  -4   4  152.22    2.38   0 
   2  -2   6  112.17    2.21   0 
   2  -2   7   11.11    1.79   0 
   2   0   4   60.46    1.94   0 
   2   1   4   92.18    1.90   0 
  -7  -3  -5   29.53    2.15   0 
  -6   1  -3  514.26    3.80   0 
  -5   4   0   12.99    2.03   0 
  -2   0  -2   19.34    1.63   0 
   0  -5   2  120.08    2.33   0 
   1  -4   5  215.20    2.61   0 
   2   4   9   10.46    2.24   0 
  -5  -7  -4   17.72    3.49   0 
  -5  -1  -4    2.54    1.43   0 
  -4  -5  -4   96.82    3.03   0 
  -4   2  -2  217.22    2.62   0 
  -4   4   0   27.65    1.97   0 
  -2   2  -1   43.88    1.78   0 
  -2   5   2   30.35    2.19   0 
   0  -4   1  765.84    4.74   0 
   1  -4   6  152.38    2.33   0 
   1  -2   2  342.66    3.13   0 
   2  -1   5  710.69    3.81   0 
   2   2   5  683.00    4.46   0 
  -7  -2  -5   13.14    1.90   0 
  -7   0  -4   33.01    2.23   0 
  -6  -6  -5  140.63    3.26   0 
  -5   1  -3   68.79    1.85   0 
  -4  -2  -4   33.13    1.59   0 
  -3  -8   0   55.85    2.89   0 
  -3   6   3  594.23    5.17   0 
  -2  -6  -1  291.50    4.23   0 
   0  -2   0 1076.74    7.85   0 
   1  -3   3  225.39    2.53   0 
   2  -1   8  468.35    3.25   0 
  -6   0  -4   67.63    2.07   0 
  -3   3  -1   13.21    1.75   0 
  -1  -5   0  334.76    3.93   0 
   0  -5   3  248.43    2.71   0 
   1   1   2  183.18    3.54   0 
   2   3   9  206.42    2.86   0 
  -6  -2  -5  130.21    2.31   0 
  -4   1  -3 1402.82    5.32   0 
  -3   0  -3 1535.35    6.01   0 
   0  -5   4    2.95    1.89   0 
   0  -5   5   15.17    1.93   0 
   1  -3   4  454.18    3.23   0 
   1  -3   7   50.85    2.24   0 
   1  -1   2    2.28    1.29   0 
   2   0   8   68.36    1.86   0 
   2   1   9   68.23    2.05   0 
   2   2   9   53.01    2.13   0 
  -5   0  -4  427.34    3.22   0 
  -4  -1  -4    6.02    1.46   0 
  -3   2  -2   28.05    1.78   0 
  -3   5   1   37.84    2.04   0 
  -1  -6   2   81.74    2.16   0 
   1  -3   5   23.15    1.55   0 
   1  -3   6  677.58    3.79   0 
   1   0   2 2336.99    9.37   0 
   1   5   7  123.19    3.52   0 
  -7  -1  -5   88.72    2.37   0 
  -6   2  -3   31.89    1.91   0 
  -5   3  -2   27.74    1.71   0 
  -5   4  -1   32.28    2.20   0 
  -2   1  -2   90.76    2.15   0 
  -2   6   3  511.43    5.12   0 
  -1  -6   3   29.31    2.15   0 
  -1   1  -1 1928.36    8.49   0 
   0  -4   2  385.00    3.27   0 
   1  -2   3  386.08    3.10   0 
   1   5   8  225.46    3.98   0 
   1   5   9    0.73    2.52   0 
  -7  -4  -6    2.24    1.93   0 
  -6  -7  -5   43.04    3.32   0 
  -6  -1  -5  343.52    3.27   0 
  -6   1  -4    2.84    1.86   0 
  -5  -2  -5   44.75    2.03   0 
  -2  -7   2   26.75    2.28   0 
  -1  -6   4   44.81    2.17   0 
   1  -2   8    1.17    1.71   0 
  -7  -3  -6    2.72    2.00   0 
  -4   3  -2  220.90    2.66   0 
  -1   4   1 3576.42   11.10   0 
   0  -3   1   63.42    1.95   0 
   1  -2   4  535.01    3.52   0 
   1  -2   7  183.68    2.54   0 
   1   4   5   95.57    3.52   0 
  -5   1  -4   26.25    1.89   0 
  -4   0  -4   88.80    1.97   0 
  -3  -7  -1   34.13    2.72   0 
  -3   1  -3  249.51    2.63   0 
  -3   6   2    2.92    2.25   0 
  -2   4   0  112.35    2.31   0 
  -1   3   0  272.82    3.28   0 
   0  -4   3 3594.45    8.54   0 
   1  -2   5   18.83    1.80   0 
   1  -2   6    1.51    1.67   0 
  -7  -2  -6  425.25    3.82   0 
  -6   0  -5   16.08    1.91   0 
  -5  -1  -5  329.74    2.96   0 
  -4   2  -3  163.75    2.26   0 
  -2   3  -1   68.63    1.81   0 
  -1  -5   1  143.85    2.62   0 
   0  -4   4  343.57    3.06   0 
   0  -4   5   23.77    1.83   0 
   0   6   8   40.00    3.74   0 
   1  -1   3  524.35    3.82   0 
   1  -1   8  364.02    3.10   0 
  -6  -3  -6   36.06    1.86   0 
  -5  -6  -5   35.63    2.99   0 
  -4  -8  -1    2.88    2.91   0 
  -4  -6  -4   33.84    4.02   0 
  -2  -2  -3 1298.81    7.41   0 
   1   2   3    2.34    1.66   0 
   1   4   9   56.07    2.54   0 
  -6  -2  -6   10.97    2.03   0 
  -4  -3  -5  840.22    5.13   0 
  -3  -1  -4   16.72    1.62   0 
  -3   3  -2  233.29    2.67   0 
  -3   5   0    0.99    2.04   0 
  -2  -6   0  609.84    4.88   0 
  -2  -1  -3 2121.52    8.15   0 
   1  -1   4  836.97    4.39   0 
   1  -1   7   82.78    1.93   0 
  -5   0  -5  148.02    2.31   0 
  -4   1  -4    7.11    1.62   0 
  -2   2  -2  428.98    3.32   0 
  -1  -5   2   91.80    2.21   0 
  -1  -5   5  173.32    2.67   0 
   0  -3   2 1379.57    5.89   0 
   0  -3   7  256.41    2.70   0 
   1  -1   5   18.52    1.56   0 
   1   0   3 4981.62   11.94   0 
   1   1   9  247.61    2.76   0 
   1   2   9  254.67    2.85   0 
   1   3   9  380.47    3.51   0 
   1   4   6   24.20    2.47   0 
   1   4   8  214.41    3.29   0 
  -6  -6  -6   59.95    3.00   0 
  -6  -1  -6  208.41    2.93   0 
  -4  -4  -5  172.65    3.03   0 
  -3   2  -3  172.49    2.49   0 
  -2   0  -3  503.49    3.94   0 
  -1  -5   3   96.17    2.34   0 
  -1  -5   4  676.12    4.05   0 
  -1   2  -1 2366.96    8.50   0 
   0  -3   6  202.35    2.68   0 
   0   4   2  667.09    7.18   0 
   1   0   7  116.77    2.24   0 
  -4  -1  -5  476.73    3.53   0 
  -4   3  -3    1.44    1.81   0 
  -3  -7   0  148.51    3.25   0 
  -3  -4  -4  405.61    5.08   0 
  -3   0  -4 2127.31    6.65   0 
  -2  -6   1  910.40    5.26   0 
  -2  -3  -3    2.28    2.11   0 
  -1  -4   0  862.61    5.94   0 
  -1  -3  -1  630.25    8.09   0 
   0  -3   3  157.93    2.43   0 
   0  -3   5  623.42    3.72   0 
   0  -2   8  185.80    2.46   0 
  -5  -4  -6   19.77    2.03   0 
  -5  -2  -6 1575.43    6.34   0 
  -2  -6   4   17.75    2.08   0 
  -1   6   3 1923.06   10.36   0 
   0  -3   4  632.28    3.74   0 
   0  -2   1   72.80    2.26   0 
   0   3   1  110.99    3.14   0 
   1   0   6   70.24    1.85   0 
   1   2   8   35.64    1.97   0 
  -6   0  -6   29.17    2.20   0 
  -5   1  -5   11.14    1.66   0 
  -4   0  -5   96.26    2.01   0 
  -4   2  -4   24.23    1.72   0 
  -2  -6   2   30.50    1.96   0 
  -2  -6   3   57.44    2.12   0 
  -2   4  -1  646.70    4.16   0 
   0  -2   7   77.03    2.20   0 
   1   1   7  227.35    2.57   0 
   1   3   7    9.24    2.09   0 
  -5  -1  -6   12.80    1.56   0 
  -3  -7   1   46.12    2.45   0 
  -3  -7   2  241.15    3.29   0 
  -3  -6  -2   73.78    3.68   0 
  -3   1  -4  220.51    2.54   0 
  -3   4  -2  131.52    2.49   0 
  -2   1  -3 2189.98    7.08   0 
  -2   3  -2  680.34    4.21   0 
  -1  -4   6  163.52    2.29   0 
  -1   0  -2 2230.15    9.39   0 
  -1   4   0  595.61    4.57   0 
   1   1   4  138.39    2.48   0 
   1   2   4  571.04    4.84   0 
   1   3   6  352.01    3.77   0 
  -6  -4  -7   79.20    2.47   0 
  -6  -3  -7   56.19    2.20   0 
  -3   3  -3  149.92    2.41   0 
  -3   5  -1   13.47    1.98   0 
  -2  -5  -1    7.82    2.33   0 
  -1  -1  -2  174.23    3.57   0 
   0  -2   6  120.87    2.27   0 
   0  -1   8  642.02    3.68   0 
   0   0   9  276.00    2.76   0 
   0   5   3  149.22    5.18   0 
   1   1   5  670.85    4.15   0 
  -6  -2  -7  172.21    2.66   0 
  -5   0  -6   90.41    2.34   0 
  -5   2  -5   25.97    2.17   0 
  -4  -5  -5   25.15    2.47   0 
  -4   1  -5  240.52    2.75   0 
  -1  -4   1    0.07    1.65   0 
  -1  -4   5  133.92    2.15   0 
  -1   3  -1    4.46    1.49   0 
  -6  -5  -7    7.80    2.27   0 
  -4   4  -3  771.15    4.37   0 
  -3   6   0    4.29    2.05   0 
  -1  -4   4   79.96    2.17   0 
  -1  -3   7   33.53    1.88   0 
  -1   1  -2    2.51    1.34   0 
   0  -2   2  671.12    4.48   0 
   0  -2   5  947.70    4.36   0 
   0  -1   7  197.83    2.57   0 
   0   1   9   58.45    2.31   0 
  -6  -7  -6   11.18    3.18   0 
  -6  -1  -7  117.60    2.37   0 
  -4   3  -4  141.24    2.32   0 
  -3  -1  -5  637.21    4.11   0 
  -3   2  -4  426.66    3.21   0 
  -2  -5   5   54.69    2.13   0 
  -2   2  -3  357.66    3.04   0 
  -1  -4   2  107.39    2.24   0 
  -1  -4   3  370.43    3.31   0 
   0  -2   3  272.89    2.92   0 
   0  -2   4    9.25    1.40   0 
   0   0   8   90.86    1.99   0 
   0   4   9    2.85    2.29   0 
   0   5   8   40.35    2.74   0 
  -5   1  -6   63.38    2.06   0 
  -1  -2   8    4.64    1.75   0 
  -1   6   2   39.45    2.90   0 
   0   2   9   18.49    1.90   0 
   0   3   9  141.09    2.71   0 
  -5  -3  -7   66.83    2.25   0 
  -5  -2  -7    7.46    1.96   0 
  -4   2  -5  371.68    3.17   0 
  -3   0  -5  202.39    2.46   0 
  -2  -5   4   12.03    1.93   0 
  -2  -1  -4   86.79    2.12   0 
  -2   4  -2  195.93    2.67   0 
  -2   5  -1    0.50    2.02   0 
  -1  -3   6  766.73    3.95   0 
  -1   2  -2  351.24    3.31   0 
   0  -1   6  493.83    3.34   0 
   0   2   0 1075.33    8.03   0 
  -5  -8  -2    1.64    2.93   0 
  -4  -7  -2  452.39    5.90   0 
  -4   0  -6  109.99    2.13   0 
  -3  -6   4   16.39    2.10   0 
  -3   4  -3  217.59    2.72   0 
  -3   5  -2  458.49    3.86   0 
  -2  -5   0 1242.41    6.72   0 
  -2   0  -4   53.71    1.85   0 
   0   0   7   98.60    2.03   0 
   0   1   8   94.95    2.10   0 
   0   5   7  105.72    3.38   0 
  -6  -6  -7  215.69    4.02   0 
  -5  -6  -6  241.83    4.52   0 
  -5  -4  -7   71.86    2.33   0 
  -4  -4  -6  290.76    3.59   0 
  -3   1  -5    0.71    1.53   0 
  -3   3  -4   52.92    2.09   0 
  -2  -5   3  333.94    3.01   0 
  -2  -4   6   84.53    1.96   0 
  -2  -2  -4  187.48    2.97   0 
  -2   3  -3   54.04    2.00   0 
  -2   6   0  209.16    3.25   0 
  -1  -3   5    5.35    1.52   0 
  -1  -2   7   48.54    1.89   0 
  -1   0   9   50.83    2.23   0 
   0  -1   1 2194.84   10.73   0 
   0  -1   5 1053.83    4.71   0 
   0   4   8   51.02    2.46   0 
  -5   0  -7   -1.06    1.75   0 
  -4   1  -6  236.86    2.73   0 
  -3  -6   3   13.34    1.86   0 
  -2  -5   1    3.81    1.64   0 
  -2  -5   2  254.75    2.95   0 
  -2   1  -4    8.93    1.38   0 
  -1  -1   8  250.96    2.66   0 
  -1   4  -1   80.01    2.10   0 
  -1   5   0   77.90    2.55   0 
   0   3   8  111.42    2.48   0 
   0   4   1  455.56    5.26   0 
  -5  -8  -1   51.79    3.25   0 
  -4   3  -5  103.42    2.31   0 
  -3  -6  -1    2.99    2.13   0 
  -1  -3   4 1534.21    5.78   0 
   0  -1   4    4.04    1.42   0 
   0   0   6   59.22    1.72   0 
   0   1   7  720.58    4.05   0 
  -4  -7   2   19.19    2.17   0 
  -3  -6   2   32.66    2.02   0 
  -3   2  -5   29.80    1.68   0 
  -2  -4   5    4.79    1.60   0 
  -2  -3   7  340.40    3.03   0 
  -2   2  -4   28.32    1.81   0 
  -1  -3   0  515.68    5.13   0 
  -1  -2  -2  824.37   10.91   0 
  -1  -2   6   27.37    1.64   0 
  -1   1   9  114.05    2.32   0 
  -1   3  -2  929.73    4.86   0 
   0  -1   2   74.52    2.03   0 
   0  -1   3 1375.43    6.11   0 
   0   5   6  189.65    4.27   0 
  -5  -5  -7   23.29    2.38   0 
  -4  -7  -1   16.54    2.56   0 
  -4  -7   1  123.27    2.90   0 
  -4   2  -6   43.73    1.95   0 
  -3  -6   0    5.98    2.07   0 
  -3  -6   1  392.62    3.71   0 
  -3  -5   5  128.29    2.59   0 
  -3   5  -3  216.67    3.03   0 
  -2  -2   8  130.73    2.35   0 
  -2   5  -2   27.60    2.10   0 
  -1  -3   3  395.25    3.33   0 
  -1  -1   7   29.81    1.97   0 
  -1   0   8  126.17    2.41   0 
  -1   6   1  183.35    3.35   0 
   0   2   7  135.62    2.51   0 
   0   3   0 1517.23    8.03   0 
   0   4   7   68.18    2.73   0 
   0   5   2   23.87    2.90   0 
  -4  -7   0   20.28    2.39   0 
  -4  -2  -7  381.30    3.29   0 
  -3  -4  -5   64.55    2.74   0 
  -3   0  -6  118.47    2.30   0 
  -3   4  -4  126.99    2.39   0 
  -2   4  -3 2087.20    6.72   0 
  -1  -3   2 1706.37    6.70   0 
  -1   0  -3 4980.25   12.22   0 
  -1   1  -3  528.16    3.91   0 
  -1   2   9  181.20    2.64   0 
   0   0   5   59.50    1.73   0 
   0   1   6  550.66    3.77   0 
   0   3   7 1767.47    7.06   0 
  -5  -3  -8   42.73    2.28   0 
  -5  -2  -8    2.07    1.77   0 
  -5  -1  -8   31.95    2.02   0 
  -4   0  -7   70.63    2.01   0 
  -3  -2  -6 3409.09    8.85   0 
  -3   3  -5   62.38    2.24   0 
  -2  -4   4  218.01    2.49   0 
  -2  -3   6  220.44    2.56   0 
  -2   6  -1  195.77    3.06   0 
  -1  -3   1    4.87    1.58   0 
  -1  -2   5    4.68    1.78   0 
  -1   3   9  244.10    3.33   0 
  -1   7   3   62.83    4.08   0 
  -4  -5  -6  378.92    4.67   0 
  -4   1  -7   88.80    2.48   0 
  -3  -5   4  594.23    3.95   0 
  -3  -4   6   76.25    2.36   0 
  -3   1  -6  208.39    2.50   0 
  -2   0  -5  162.97    2.38   0 
  -2   3  -4  359.20    3.07   0 
  -1   1   8  316.53    3.11   0 
  -1   2  -3  372.99    3.17   0 
  -1   4  -2  174.19    2.57   0 
  -1   5  -1   48.76    2.08   0 
   0   5   5   27.84    3.46   0 
  -5  -4  -8  288.19    3.50   0 
  -2  -4   3 3068.54    8.10   0 
  -2  -3  -4   24.86    2.07   0 
  -2  -2   7  147.17    2.32   0 
  -2  -1  -5  137.51    2.28   0 
  -2  -1   8  435.25    3.34   0 
  -2   1  -5  701.57    3.92   0 
  -1  -1  -3  889.98    6.13   0 
  -1  -1   6  995.58    4.49   0 
  -1   0   7  140.51    2.39   0 
   0   0   4   23.09    1.73   0 
  -4  -4  -7  143.84    2.89   0 
  -3  -3  -6  180.51    2.78   0 
  -3  -3   7   15.57    1.94   0 
  -3   2  -6    9.66    1.72   0 
  -1  -2   4  373.24    3.16   0 
  -1   3  -3  229.92    2.79   0 
  -1   5   8  139.46    3.42   0 
  -1   6   0    4.88    2.18   0 
  -1   6   7   89.75    4.11   0 
   0   1   5   68.90    2.03   0 
   0   3   6  228.18    3.30   0 
   0   4   0  262.08    3.58   0 
   0   4   6  384.12    4.39   0 
  -4  -6   3    5.63    2.13   0 
  -3  -5   3   30.88    2.08   0 
  -3   4  -5  149.88    2.80   0 
  -2  -3   5  583.43    3.54   0 
  -2  -2  -5  633.85    4.49   0 
  -2   2  -5  824.07    4.21   0 
  -2   4  -4  212.86    2.80   0 
  -2   5  -3   84.73    2.50   0 
  -1   2   8   55.96    1.98   0 
  -1   7   2    4.34    2.87   0 
   0   2  -1   72.28    2.13   0 
   0   5   1   73.82    2.96   0 
  -4  -5   5   59.87    2.30   0 
  -3  -4   5   42.28    2.14   0 
  -2  -4  -2  369.88    7.58   0 
  -2  -4   2  408.46    3.45   0 
  -2   6  -2   18.00    2.20   0 
  -1   3   8  276.39    3.27   0 
  -1   4   8   20.60    2.38   0 
   0   1  -1 2234.54   10.92   0 
   0   3  -1   66.13    2.22   0 
  -5  -6  -7   54.71    3.29   0 
  -4  -2  -8  218.19    2.68   0 
  -3  -1  -7   73.15    1.95   0 
  -3   3  -6  322.56    3.08   0 
  -2  -2   6   43.08    1.82   0 
  -2  -1   7  128.53    2.45   0 
  -2   0   8   44.18    1.97   0 
  -2   3  -5  338.90    3.15   0 
  -1  -1   5   15.24    1.75   0 
  -1   1  -4  791.54    4.38   0 
  -1   1   7  208.06    2.84   0 
  -1   5  -2  417.49    3.70   0 
   0   2   5  522.72    4.33   0 
  -4  -6   2   53.50    2.21   0 
  -4  -3  -8  182.67    2.82   0 
  -3  -5   2   17.65    1.88   0 
  -3  -3   6  453.29    3.58   0 
  -3  -2  -7   38.44    2.09   0 
  -2  -4   1  397.11    3.86   0 
  -1  -2   3  731.85    4.34   0 
  -1   0  -4 5229.64   11.44   0 
  -1   0   6   12.03    1.59   0 
  -1   2  -4  512.48    3.50   0 
  -1   4  -3  349.71    3.44   0 
   0   0   2   75.19    2.56   0 
   0   1   4  680.48    4.76   0 
  -5  -7   1   12.79    2.15   0 
  -3  -2   7    5.88    1.97   0 
  -3  -1   8   99.22    2.31   0 
  -2  -3   4  652.09    3.91   0 
  -2   0  -6  131.15    2.19   0 
  -2   1  -6  439.04    3.20   0 
  -1   6  -1  332.43    3.59   0 
  -1   7   1    3.03    2.40   0 
   0   4   5  220.07    4.19   0 
  -4  -5   4    7.05    2.09   0 
  -3  -4  -6    9.41    2.21   0 
  -3  -4   4    8.53    1.87   0 
  -3   2  -7  233.48    2.82   0 
  -2  -4   0  316.21    3.89   0 
  -2  -1  -6  602.27    3.80   0 
  -2   1   8   30.14    1.95   0 
  -2   2  -6  108.74    2.32   0 
  -2   5  -4   21.38    1.96   0 
  -1   2   7   48.33    2.14   0 
  -1   3  -4  448.71    3.36   0 
  -1   5   7  108.97    3.50   0 
   0   3   5 1771.75    8.36   0 
   0   4  -1  778.94    4.94   0 
   0   5   0  913.62    5.91   0 
   0   5   4   71.38    4.88   0 
  -4  -6   1  629.79    4.32   0 
  -3  -5   1  301.63    3.21   0 
  -3  -3  -7   53.91    2.32   0 
  -2  -4  -1  385.89    5.27   0 
  -2  -2   5  344.28    3.12   0 
  -2   4  -5   69.74    2.10   0 
  -1  -2   2  403.27    3.73   0 
  -1  -1  -4  136.63    2.53   0 
   0   2  -2  671.68    4.59   0 
   0   6   3 1103.32   13.20   0 
  -5  -7   0   35.19    2.47   0 
  -5  -6   3    5.04    2.13   0 
  -4  -5  -7   79.15    3.10   0 
  -4  -4  -8   58.16    2.62   0 
  -2  -1   6  309.24    3.05   0 
  -2   0   7    0.66    1.51   0 
  -2   2   8    8.86    2.02   0 
  -1  -1   4  989.77    4.87   0 
  -1   1   6  259.64    2.85   0 
  -1   3   7    5.24    1.91   0 
  -1   5  -3  198.45    2.87   0 
  -1   7   0  391.63    4.33   0 
   0   3  -2 1326.12    5.93   0 
   0   6   2   49.04    3.24   0 
  -4  -4   5   30.51    1.85   0 
  -4  -2  -9   44.55    2.36   0 
  -3  -3   5   27.58    1.66   0 
  -3  -1  -8  113.35    2.26   0 
  -3   0  -8   58.01    1.91   0 
  -3   0   8   97.06    2.18   0 
  -3   1  -8  248.39    3.17   0 
  -2  -3  -5 1922.54    8.66   0 
  -2  -3   3  127.08    2.22   0 
  -2  -2  -6  225.65    3.01   0 
  -2   3  -6   61.03    2.01   0 
  -1   0   5  271.02    2.91   0 
  -1   1  -5   19.26    1.60   0 
  -1   2  -5   14.38    1.90   0 
  -1   4  -4  145.82    2.34   0 
  -1   6  -2   96.28    2.46   0 
   0   1  -2   76.24    2.10   0 
   0   1   3 3154.72   11.46   0 
   0   2   4  440.70    4.34   0 
   0   6   1  309.21    4.42   0 
  -5  -7  -1   67.42    2.91   0 
  -4  -6   0  396.99    3.98   0 
  -4  -5   3  228.21    2.89   0 
  -3  -5   0  395.93    4.08   0 
  -3  -4   3  191.04    2.83   0 
  -3  -2   6   70.50    2.21   0 
  -3  -1   7    7.37    1.75   0 
  -2   3   8   43.93    2.25   0 
  -1  -2  -3    1.57    1.90   0 
  -1   0  -5  267.11    2.78   0 
  -1   6   6  190.90    4.95   0 
   0   4  -2  381.04    3.43   0 
   0   5  -1    2.48    1.77   0 
  -4  -3  -9  162.99    2.92   0 
  -4  -3   6  111.68    2.33   0 
  -4  -2   7  117.83    2.44   0 
  -3  -2  -8    4.22    1.73   0 
  -2   0  -7  135.71    2.17   0 
  -2   1  -7  163.55    2.37   0 
  -1  -2   1 2846.72   10.67   0 
  -1   3  -5   20.38    1.64   0 
  -5  -7  -4   19.96    4.13   0 
  -5  -7  -2   28.95    2.95   0 
  -5  -6  -8    1.35    2.91   0 
  -5  -6   2    6.99    2.07   0 
  -5  -5   4  286.55    3.23   0 
  -2  -2   4   20.54    1.80   0 
  -2  -1  -7  675.58    4.02   0 
  -2   1   7  421.55    3.40   0 
  -2   2  -7    9.79    1.74   0 
  -1   2   6 2500.61    8.00   0 
  -1   5  -4  378.19    3.55   0 
  -1   6  -3   27.43    2.32   0 
   0   2  -3  270.13    2.89   0 
   0   3  -3  155.44    2.50   0 
   0   6   0  457.99    4.61   0 
  -4  -6  -1  140.10    3.27   0 
  -3  -5  -1    1.93    2.12   0 
  -2  -3   2 1141.87    5.56   0 
  -2   0   6   28.94    1.89   0 
  -1  -1  -5  647.44    4.30   0 
  -1  -1   3  490.52    3.87   0 
  -1   4  -5  213.09    2.80   0 
   0   1  -3 1370.40    6.31   0 
   0   3   4   43.29    2.47   0 
   0   5  -2  120.00    2.47   0 
  -5  -7  -3    6.99    2.97   0 
  -4  -5   2  275.16    3.11   0 
  -4  -4   4   71.52    1.98   0 
  -3  -4  -7  117.82    2.84   0 
  -3  -3  -8  202.22    2.90   0 
  -3  -3   4 1973.59    6.37   0 
  -3   0   7   85.78    2.24   0 
  -2  -1   5  784.10    4.18   0 
  -1   1  -6  560.75    3.56   0 
   0   4  -3 3535.15    8.81   0 
  -5  -4   5    5.94    1.86   0 
  -4  -1   7   44.37    2.28   0 
  -3  -5  -5   25.86    3.28   0 
  -3  -4   2   47.12    1.89   0 
  -3  -1  -9  311.24    3.13   0 
  -3   2   8   45.33    2.17   0 
  -2  -3  -6  108.65    2.73   0 
  -2  -2  -7  368.47    3.38   0 
  -2   2   7   16.78    1.72   0 
  -1   0  -6   69.00    2.10   0 
  -1   0   4 4810.31   10.88   0 
  -1   1   5  344.03    3.22   0 
  -1   3  -6  667.56    4.11   0 
  -1   3   6  329.81    3.50   0 
  -1   5   6    4.45    2.51   0 
   0   4   4  306.06    5.45   0 
   0   6  -1  634.74    4.73   0 
  -4  -6  -2   78.80    3.14   0 
  -4  -5  -8   31.70    2.48   0 
  -4  -3   5  307.10    3.00   0 
  -4  -2   6    5.05    1.72   0 
  -3  -5  -2  577.79    6.55   0 
  -3  -2  -9  188.54    2.93   0 
  -3  -2   5    4.79    1.65   0 
  -3  -1   6  854.90    4.34   0 
  -2   0  -8   66.78    2.11   0 
  -2   1  -8  458.29    3.38   0 
  -1  -2  -4  536.07    4.86   0 
  -1   4   6  105.75    2.86   0 
  -1   5  -5  143.45    2.76   0 
   0   0  -2   76.45    2.44   0 
   0   2  -4    8.76    1.46   0 
   0   3  -4  610.05    3.95   0 
  -6  -7   0   23.59    2.23   0 
  -5  -6   1  173.30    2.85   0 
  -5  -5   3   21.68    2.18   0 
  -4  -6  -6  155.26    5.67   0 
  -2  -1  -8  162.89    2.61   0 
  -2   3   7 1430.56    6.36   0 
  -2   5   7   23.01    2.83   0 
  -1  -2   0 2298.90   12.29   0 
  -1   4  -6  147.86    2.65   0 
   0   1  -4    4.72    1.70   0 
   0   1   2   14.82    2.10   0 
   0   5  -3  254.05    3.05   0 
  -4  -6  -3 1048.86    9.29   0 
  -3  -5  -3   27.26    3.95   0 
  -2  -2   3   30.75    1.65   0 
  -2   1   6  356.52    3.29   0 
  -2   4   7   15.29    2.32   0 
  -1  -1  -6  224.30    2.77   0 
   0   2   3 1043.18    7.66   0 
   0   4  -4  354.13    3.06   0 
   0   6  -2   16.63    1.98   0 
   0   7   1    2.78    2.46   0 
  -6  -6   2   38.12    2.08   0 
  -4  -6  -4   35.15    4.42   0 
  -4  -5   1    7.82    1.87   0 
  -4  -4   3 1317.69    5.42   0 
  -2  -3   1  503.96    4.18   0 
  -1   1  -7   82.58    2.02   0 
  -1   2  -7  178.80    2.47   0 
  -1   2   5  164.75    2.86   0 
   0   0  -3  625.72    4.74   0 
   0   7   0   13.27    2.42   0 
   0   7   2  235.15    4.99   0 
  -5  -4   4   -0.09    1.69   0 
  -4   0   7   31.02    1.88   0 
  -3  -4  -8  385.95    4.04   0 
  -3  -4   1  127.64    2.44   0 
  -3  -3  -9  257.40    3.18   0 
  -3  -3   3  494.28    3.51   0 
  -2  -2  -8  178.45    2.73   0 
  -2  -1   4   18.14    1.52   0 
  -2   0   5    2.41    1.51   0 
  -1  -2  -5  370.43    3.74   0 
  -1  -1   2    0.58    1.32   0 
  -1   0  -7  114.20    2.11   0 
  -1   3  -7   50.04    2.05   0 
   0   2  -5  970.06    4.51   0 
   0   3  -5  609.95    3.65   0 
   0   5  -4    1.20    2.05   0 
   0   7  -1   84.41    2.82   0 
  -6  -7  -1   21.88    2.43   0 
  -5  -6   0    7.71    2.10   0 
  -5  -3   5   19.81    1.83   0 
  -5  -2   6   56.90    2.18   0 
  -4  -3   4  428.11    3.48   0 
  -4  -1   6  134.13    2.57   0 
  -3   0   6    1.05    1.49   0 
  -2  -3  -7 1112.07    5.73   0 
  -2   0  -9  201.56    2.57   0 
   0   1  -5 1051.70    4.78   0 
   0   4  -5   20.16    1.96   0 
   0   6  -3  127.04    2.39   0 
  -6  -5   3   86.88    2.50   0 
  -5  -5   2  119.88    2.57   0 
  -4  -5  -9  339.55    4.15   0 
  -4  -2   5    6.56    1.94   0 
  -3  -2   4  175.98    2.39   0 
  -3  -1   5    2.86    1.59   0 
  -2   2   6  136.02    2.59   0 
  -1  -1  -7  222.52    2.85   0 
  -1   1   4  171.73    2.68   0 
  -2  -4  -4  637.41    9.38   0 
  -1   0   3 4349.93   11.45   0 
  -1   1  -8  342.14    2.98   0 
  -1   2  -8   -1.11    1.89   0 
  -1   6   5   75.26    3.79   0 
   0   2  -6  114.69    2.32   0 
   0   3  -6  200.53    2.77   0 
   0   5  -5   12.47    2.15   0 
  -6  -6   1  248.90    3.17   0 
  -6  -4   4   23.73    1.84   0 
  -3   3   7   12.29    2.20   0 
  -1  -2  -6 4056.98   10.35   0 
  -1   0  -8   90.59    2.09   0 
  -1   3   5    7.59    1.86   0 
   0   0  -5   58.14    1.98   0 
   0   1  -6  492.84    3.56   0 
   1   4  -2  103.94    2.32   0 
   1   4  -1    0.37    1.69   0 
   1   4   0  850.79    6.10   0 
  -4  -5   0  659.22    4.54   0 
  -4  -4   2  130.97    2.21   0 
  -3  -4  -9   44.18    2.57   0 
  -3   4   7  151.82    3.02   0 
  -2  -4  -5  324.74    5.10   0 
  -2  -3  -8  186.57    2.76   0 
  -2  -2  -9   51.27    2.00   0 
  -2  -2   2  524.85    4.08   0 
  -2   3   6  244.83    3.18   0 
  -2   6   6   13.09    3.10   0 
   0   4  -6   75.59    2.09   0 
   1   3  -2 1695.41    6.80   0 
   1   3  -1    8.03    1.60   0 
   1   5  -1  144.39    2.62   0 
   1   5   0  332.52    4.04   0 
  -6  -7  -2  191.71    3.57   0 
  -5  -4   3   49.51    1.99   0 
  -5  -1   6  361.66    3.24   0 
  -4   0   6   19.57    1.97   0 
  -4   2   7    3.25    2.25   0 
  -3  -5  -7   73.82    3.28   0 
  -3  -3   2 1164.86    5.50   0 
  -2   1   5  372.59    3.18   0 
  -1  -1  -8  264.63    3.00   0 
  -1   5   5  188.06    4.24   0 
   1   3  -3  389.75    3.28   0 
   1   4  -3  359.25    3.22   0 
   1   5  -2   93.87    2.35   0 
  -5  -6  -1   22.93    2.03   0 
  -5  -3   4 1349.07    5.49   0 
  -5  -2   5    9.76    1.76   0 
  -3  -4   0  277.94    3.39   0 
  -2  -4  -6  423.46    4.90   0 
  -2   4   6  195.76    3.19   0 
  -1  -2  -7   59.92    2.13   0 
   0   0  -6   60.32    1.82   0 
   0   2  -7   77.93    2.09   0 
   0   3  -7  250.92    2.73   0 
   0   3   3   62.62    3.43   0 
   1   3   0  528.54    5.27   0 
   1   6  -1  509.62    4.33   0 
  -6  -5   2  152.74    2.65   0 
  -5  -5   1  334.26    3.42   0 
  -4  -3   3   34.63    1.83   0 
  -4  -1   5  355.74    3.00   0 
  -3   0   5  159.99    2.39   0 
  -2  -1   3  191.76    2.59   0 
  -2   0   4    8.72    1.56   0 
  -1   0  -9    8.17    1.83   0 
   1   2  -3  742.21    4.42   0 
   1   2  -2  386.93    3.62   0 
   1   3  -4 1552.53    5.77   0 
   1   4  -4   79.91    2.04   0 
   1   5   1   26.12    2.64   0 
   1   6  -2   81.82    2.37   0 
   1   6   0    0.84    2.11   0 
  -6  -6   0  133.72    2.73   0 
  -4  -6  -8  108.51    4.34   0 
  -4  -2   4   74.95    1.99   0 
  -3  -2   3  713.94    4.14   0 
  -3  -1   4  535.67    3.73   0 
  -3   2   6  853.58    4.92   0 
  -2  -3  -9  208.61    2.99   0 
  -1   2   4   34.13    2.06   0 
   0  -1  -4  663.03    4.77   0 
   0  -1  -3 3177.27   11.59   0 
   1   2  -4  367.62    3.18   0 
   1   5  -4  658.37    4.03   0 
   1   6  -3   31.01    2.12   0 
  -6  -7  -3   12.73    2.82   0 
  -6  -4   3  312.97    3.16   0 
  -6  -3   4  161.87    2.76   0 
  -6  -2   5   49.69    2.15   0 
  -5   0   6    2.68    1.78   0 
  -3  -5  -8  191.66    3.83   0 
  -2  -4  -7  148.62    3.30   0 
  -1  -1  -9  245.31    3.09   0 
   0  -1  -5   67.69    2.03   0 
   0   0  -7  100.29    2.18   0 
   0   2  -8  183.11    2.55   0 
   1   2  -1 2769.52   10.53   0 
   1   3  -5    7.71    1.59   0 
   1   4  -5  131.33    2.24   0 
   1   6   1  109.53    3.48   0 
  -2   2   5  229.73    2.89   0 
  -1  -2  -8   33.48    2.08   0 
  -1  -1   1 2206.45   10.40   0 
   0   1  -8  611.14    3.68   0 
   1   2  -5    2.00    1.57   0 
   1   5  -5  173.37    2.81   0 
   1   6  -4   46.85    2.39   0 
   1   7  -2  202.36    3.32   0 
   1   7  -1   33.20    2.54   0 
  -5  -4   2   35.71    1.81   0 
  -5  -1   5    3.95    2.10   0 
  -4  -5  -1   67.29    2.32   0 
  -4  -4   1   83.85    1.95   0 
  -3   3   6  179.26    2.82   0 
  -1  -2  -1  244.28    6.66   0 
   0  -1  -6  534.54    3.73   0 
   1   3  -6  743.86    4.02   0 
   1   4  -6  165.62    2.62   0 
   1   7   0  347.11    4.27   0 
  -5  -6  -2   15.99    2.30   0 
  -5  -3   3  339.44    3.14   0 
  -3   1   5  124.77    2.35   0 
  -2  -4  -8   85.91    2.92   0 
  -1  -3  -5   71.57    2.73   0 
  -1   1   3  486.99    4.38   0 
   0   0  -8   86.72    2.03   0 
   1   1  -4 1003.41    4.94   0 
   1   1  -3  492.39    3.88   0 
   1   2  -6   29.63    1.73   0 
  -7  -6   0    0.52    2.15   0 
  -6  -5   1   21.32    1.84   0 
  -5  -5   0  199.75    2.85   0 
  -5  -2   4   94.17    2.10   0 
  -5   1   6   17.08    1.90   0 
  -4   0   5   16.76    1.65   0 
  -4   2   6   46.42    2.06   0 
  -3  -5  -9    9.09    2.69   0 
  -3  -3   1   24.37    1.74   0 
  -3   4   6   86.88    2.63   0 
  -3   5   6    0.65    2.47   0 
  -1  -3  -6  340.79    3.81   0 
  -1  -2  -9  264.27    3.01   0 
   0  -1  -7  719.84    4.23   0 
   1   1  -5   13.57    1.55   0 
   1   7   1    3.66    2.97   0 
  -6  -6  -1   39.46    2.15   0 
  -6  -1   5  126.59    2.51   0 
  -4  -3   2  326.48    3.04   0 
  -2  -2   1   99.73    2.27   0 
  -2   1   4 1083.33    5.42   0 
  -1  -3  -7    7.86    2.13   0 
  -1  -3  -4   61.36    2.94   0 
  -1   0   2  784.09    5.68   0 
  -1   7   4  118.34    5.35   0 
   0  -1  -2   13.51    1.92   0 
   1   1  -6 1028.33    4.72   0 
   1   1  -2    0.17    1.33   0 
   1   2  -7   53.45    2.24   0 
   1   3  -7   37.64    1.92   0 
  -6  -7  -4    0.92    2.62   0 
  -6  -4   2    6.44    1.86   0 
  -4  -2   3    5.96    1.51   0 
  -4  -1   4   46.10    1.84   0 
  -4   3   6  118.18    2.67   0 
  -3  -4  -1 3339.25   11.60   0 
  -3   0   4 1892.88    6.58   0 
   0   0  -9  262.78    2.78   0 
  -7  -5   1  178.23    2.98   0 
  -6  -3   3    7.00    1.68   0 
  -6  -2   4   99.18    2.19   0 
  -3  -2   2   73.19    2.05   0 
  -2  -4  -9    8.29    2.35   0 
   0  -1  -8   88.62    2.08   0 
   1   1  -7   30.77    1.95   0 
  -4   1   5  324.26    3.23   0 
  -3  -1   3  265.70    2.76   0 
  -3   2   5    2.08    1.82   0 
  -2  -1   2  625.55    4.40   0 
  -2   0   3  303.25    3.17   0 
  -2   4   5   69.48    2.28   0 
  -2   6   5    1.85    2.64   0 
  -1  -3  -8  346.27    3.36   0 
   1   2  -8    2.82    1.86   0 
   1   2   0 2376.34   12.27   0 
   2   4  -4  238.64    2.77   0 
   2   4  -3 3176.61    8.29   0 
   2   5  -4    9.47    2.05   0 
   2   5  -3  343.48    3.20   0 
   2   5  -2  261.54    3.04   0 
  -7  -6  -1   24.12    2.21   0 
  -7  -3   3  112.57    2.45   0 
  -6   0   5    8.19    1.87   0 
  -5  -6  -3 2016.17    9.81   0 
  -5  -4   1  174.54    2.46   0 
  -5  -1   4  122.59    2.44   0 
  -4  -4   0  178.41    2.74   0 
  -2   5   5   36.88    2.50   0 
   0  -1  -9   58.56    2.29   0 
   1   0  -6    7.72    1.82   0 
   1   0  -5  274.30    2.78   0 
   1   0  -4 4903.29   11.04   0 
   1   3   1  636.97    8.20   0 
   2   4  -5    3.87    1.83   0 
   2   4  -2  402.98    3.45   0 
   2   6  -3   52.60    2.18   0 
   2   6  -2   30.26    2.05   0 
  -6  -5   0  139.89    2.65   0 
  -4  -5  -2 1138.96    7.02   0 
  -1  -3  -9  373.11    3.55   0 
  -1   4   4  298.32    4.14   0 
   0  -2  -6  246.81    3.14   0 
   0  -2  -5  516.39    4.19   0 
   1   1  -8  251.16    2.68   0 
   2   3  -5  592.25    3.55   0 
   2   3  -4  667.63    3.92   0 
   2   3  -3  127.71    2.23   0 
   2   5  -5   53.69    2.00   0 
   2   5  -1    4.71    1.95   0 
   2   6  -4   15.75    1.92   0 
  -6  -7  -5   44.80    3.75   0 
  -5  -5  -1    1.75    2.00   0 
  -5  -3   2  395.68    3.21   0 
  -5  -2   3  348.17    2.99   0 
  -5   1   5   38.11    1.95   0 
  -3   3   5    4.51    1.87   0 
  -2   2   4  378.04    3.56   0 
   0  -2  -7  135.87    2.31   0 
   1   0  -7  136.20    2.20   0 
   1   8   1  102.50    4.04   0 
   2   3  -6  235.19    2.87   0 
   2   4  -6   87.40    2.07   0 
   2   6  -1  928.85    5.34   0 
   2   7  -2   27.98    2.49   0 
  -6  -1   4   40.72    1.98   0 
  -4   2   5   76.39    2.31   0 
  -1   6   4   31.82    3.24   0 
   0  -2  -8   61.85    2.16   0 
   1   0  -8  126.93    2.46   0 
   1   0  -3 4342.41   11.39   0 
   1   1  -1 2124.99   10.06   0 
   2   2  -5  369.40    3.16   0 
   2   3  -2 1121.55    5.38   0 
   2   4  -1  394.04    3.66   0 
  -7  -5   0   62.27    2.30   0 
  -6  -2   3   15.00    2.01   0 
  -4  -3   1  313.33    3.11   0 
  -3   1   4   86.34    2.09   0 
  -3   4   5   66.24    2.44   0 
   0  -2  -4  438.11    4.30   0 
   2   2  -6   46.00    1.80   0 
   2   2  -4   19.10    1.54   0 
   2   3  -7  326.14    2.97   0 
   2   7  -1  138.90    2.82   0 
  -7  -2   3   91.87    2.52   0 
  -6  -3   2   39.96    1.78   0 
  -5   2   5   22.18    2.19   0 
  -4  -1   3   16.98    1.55   0 
  -3  -3   0  503.98    4.23   0 
  -3   5   5   81.84    2.71   0 
   0  -2  -9   20.69    2.13   0 
   1   0  -9   51.03    2.26   0 
   2   2  -7  151.05    2.52   0 
   2   2  -3   25.87    1.59   0 
   2   6   0  599.86    5.09   0 
  -7  -4   1   67.06    2.29   0 
  -7  -3   2   86.55    2.29   0 
  -5   0   4  511.42    3.64   0 
  -4  -2   2  212.50    2.52   0 
  -4   3   5  165.95    2.76   0 
   2   5   0 1271.60    6.82   0 
  -7  -6  -2    3.42    2.01   0 
  -6   0   4    0.98    1.62   0 
  -5  -4   0   12.45    1.70   0 
  -4   4   5   13.64    2.00   0 
  -3   0   3 1133.79    5.24   0 
   1  -1  -7  196.97    2.60   0 
   1  -1  -6  249.91    2.65   0 
   1  -1  -5  341.01    3.25   0 
   2   1  -6  318.72    2.99   0 
   2   1  -5  803.31    4.23   0 
   2   2  -8  127.91    2.32   0 
   2   3  -1  528.14    4.17   0 
   2   7   0    1.61    2.40   0 
  -6  -5  -1   39.16    2.02   0 
  -4   1   4  665.14    3.93   0 
  -2   1   3 1442.51    6.25   0 
  -2   3   4    7.39    1.71   0 
   1  -1  -8  301.59    2.86   0 
   2   1  -7  124.96    2.15   0 
   2   2  -2  552.09    4.05   0 
  -3  -2   1  766.48    4.61   0 
  -3  -1   2    1.06    1.38   0 
  -3   2   4    2.45    1.52   0 
   1  -1  -9  119.88    2.55   0 
   1   0  -2  819.22    5.75   0 
   2   1  -8  448.09    3.25   0 
   2   1  -4   18.64    1.43   0 
   3   5  -5  133.14    2.50   0 
   3   5  -4  590.71    3.79   0 
   3   6  -4   14.65    2.07   0 
  -7  -1   3   36.91    1.93   0 
  -6  -1   3    7.67    1.64   0 
  -5  -3   1   25.37    1.60   0 
  -5  -2   2   -0.92    1.43   0 
  -5   1   4   29.61    1.65   0 
   3   4  -6   78.72    2.06   0 
   3   4  -5   36.37    1.67   0 
   3   4  -4   13.14    1.45   0 
   3   5  -3   29.78    1.70   0 
  -5  -1   4  128.00    4.40   0 
  -3   0   3 1142.77    8.05   0 
   0   1   4  673.98    6.29   0 
   1  -6  -7   88.41    4.03   0 
   1  -1  -2   22.78    3.03   0 
   4  -3  -3   25.05    3.21   0 
   5  -3  -2   15.05    3.21   0 
   6  -2   1    5.05    4.66   0 
  -5  -1   3  131.35    4.12   0 
  -5  -1   5    5.40    3.16   0 
  -5  -1   6  354.91    5.56   0 
  -4  -5  -6  367.10    5.62   0 
  -3   0   7   78.49    3.62   0 
   0  -1  -2   14.25    3.27   0 
   1   1   3  942.88    9.13   0 
   2  -4  -5   73.81    3.32   0 
   2  -2  -3  271.22    4.69   0 
   2   1   3 2154.70   15.53   0 
   5  -1   1  125.35    5.68   0 
  -8  -4   0   13.71    5.93   0 
  -6  -2   1  103.17    4.82   0 
  -3  -6  -7  121.89    4.46   0 
  -2   0   1  539.02    7.64   0 
  -1   1   5  337.22    4.48   0 
  -1   1   6  260.49    4.20   0 
  -1   1   7  194.28    4.30   0 
   0  -6  -7  432.94    5.13   0 
   0   1   8   82.52    3.35   0 
   1  -5  -6    3.05    3.15   0 
   3  -1  -1 5736.28   19.71   0 
   4   1   6  461.08    7.98   0 
  -7  -3   0   79.70    6.00   0 
  -5  -7  -7    9.19    3.97   0 
  -5  -2  -1  149.12    7.79   0 
  -3  -3  -4   15.20    3.66   0 
  -2  -6  -7  593.88    6.17   0 
  -2  -2  -3 1311.74   11.34   0 
  -1  -6  -7  139.99    3.93   0 
   4  -5  -4    4.24    3.50   0 
   4   1   7  370.79    7.05   0 
  -5  -1   2    0.89    3.33   0 
  -4   0   5   19.89    3.70   0 
  -4   0   6   23.18    3.60   0 
  -3  -5  -6  139.68    4.29   0 
  -3   0   2   63.73    3.17   0 
   0  -5  -6  190.40    4.29   0 
   1  -4  -5  113.66    3.60   0 
   3  -4  -4  105.50    3.64   0 
   4  -1   0   37.13    4.34   0 
   4   1   5  514.57    9.06   0 
   5  -4  -2   18.58    4.08   0 
   6  -1   4    3.35    8.73   0 
  -5  -4  -4  132.44    5.95   0 
  -4   0   4    1.67    3.37   0 
  -2   1   7  437.22    5.48   0 
  -1   1   9  116.43    4.47   0 
   1  -3  -4  112.26    3.79   0 
   1  -2  -3   60.92    3.35   0 
   3  -2  -2  231.38    4.79   0 
   4  -4  -3   96.74    4.34   0 
   4   0   2   59.23    7.37   0 
   4   1   8  157.32    5.48   0 
   5  -2   0  232.88    6.22   0 
  -5  -6  -6  237.33    5.54   0 
  -4  -7  -7   12.49    3.84   0 
  -4  -1   0    1.23    4.29   0 
  -1  -5  -6   34.92    3.08   0 
   0  -4  -5  221.37    4.42   0 
   1  -6  -6  195.37    4.20   0 
   3   0   1   18.81    5.35   0 
   5  -3  -1    6.18    3.66   0 
   6  -2   2   71.95    6.56   0 
  -5  -5  -5    5.35    4.05   0 
  -4   0   3  133.82    4.02   0 
  -3  -7  -7   38.94    4.03   0 
  -2  -4  -5  314.16    4.92   0 
  -2  -3  -4   25.41    3.07   0 
  -2   1   4 1146.18    7.86   0 
  -1  -7  -7   93.56    3.78   0 
  -1  -2  -3   -0.38    3.14   0 
  -1   1   3  498.18    5.94   0 
   0  -2  -3 1093.71    8.48   0 
   4  -3  -2   30.18    3.80   0 
   4  -2  -1  472.24    6.38   0 
  -2  -7  -7   55.95    3.57   0 
   0  -3  -4   42.30    3.01   0 
   3  -5  -4  174.92    4.72   0 
  -6  -4  -3  399.41   11.94   0 
  -6  -2   0    7.22    5.03   0 
  -5  -1   1  197.37    5.63   0 
  -3   1   6   91.68    3.51   0 
  -3   1   7   90.65    3.84   0 
  -1  -3  -4   57.44    3.01   0 
   0  -6  -6   76.23    3.56   0 
   1   2   7   58.00    3.65   0 
   2  -6  -5    0.62    3.26   0 
   2  -4  -4   10.83    2.97   0 
   3   1   3  570.01   12.02   0 
   4  -5  -3   51.10    3.79   0 
  -7  -2   2    8.70    4.39   0 
  -5   0   5   47.53    4.10   0 
  -3   1   5  128.50    3.73   0 
  -3   1   8  161.48    4.20   0 
   0   2   7  131.06    4.09   0 
   1  -5  -5  187.00    3.95   0 
   1   2   6 3992.20   14.46   0 
   2  -1  -1    6.24    3.27   0 
   5  -4  -1  306.32    5.88   0 
  -6  -6  -5  149.94    5.98   0 
  -3  -6  -6  382.63    5.69   0 
  -2   1   3 1540.35    9.40   0 
  -1  -6  -6  348.52    4.95   0 
   0   2   6  240.99    4.43   0 
   2   2   6  228.30    4.82   0 
   3  -6  -4   24.70    3.60   0 
   3  -4  -3   18.38    3.48   0 
   4   1   4    7.06    6.36   0 
   5   1   7    0.28    5.52   0 
   5   1   8   27.85    5.88   0 
  -8  -4  -1   20.22    7.32   0 
  -5   0   4  519.06    6.32   0 
  -4   0   2  201.57    4.64   0 
  -3   0   1   65.25    3.74   0 
  -3   1   4   90.82    4.02   0 
  -2  -6  -6  146.36    3.98   0 
  -1   2   7   50.12    3.32   0 
  -1   2   8   54.71    3.50   0 
   0  -7  -6    4.37    3.38   0 
   0   1   2   14.56    3.18   0 
   1   2   5  354.38    5.23   0 
   2  -2  -2 3358.07   13.90   0 
   3   2   7   33.88    3.74   0 
   3   2   8    3.85    3.53   0 
   4  -4  -2  199.46    4.87   0 
  -6  -5  -4   46.76    5.68   0 
  -5  -7  -6  127.68    4.90   0 
  -4  -5  -5   23.70    3.70   0 
  -4   1   7  139.28    4.54   0 
  -1   2   6 2422.09   10.47   0 
   0   2   5  531.62    5.65   0 
   1  -4  -4  300.80    4.61   0 
   2  -5  -4   23.41    3.13   0 
   3   2   6 3659.95   16.58   0 
   5  -3   0   58.77    4.16   0 
   5   1   6   13.60    6.32   0 
  -6  -1   2  165.74    4.99   0 
  -4  -3  -3   30.44    5.19   0 
  -4   1   6  174.57    4.15   0 
  -1  -7  -6  210.90    4.36   0 
   2   2   5  676.78    7.23   0 
   3  -3  -2   50.61    3.55   0 
  -7  -2   1   16.56    4.91   0 
  -5   0   3  142.44    4.26   0 
  -4  -7  -6    7.30    3.62   0 
  -3  -5  -5   25.47    3.27   0 
  -3  -1  -1   11.41    7.48   0 
  -2  -7  -6   -1.92    3.50   0 
  -2   2   8   12.36    3.15   0 
  -1  -5  -5  146.95    3.84   0 
  -1   1   2   24.22    2.98   0 
  -1   2   5  178.31    3.82   0 
   1  -7  -5    3.75    3.54   0 
   3  -5  -3   25.45    3.40   0 
   4  -5  -2   43.99    3.57   0 
   4  -3  -1   34.60    3.64   0 
  -3  -7  -6  239.50    4.63   0 
  -3   1   3   93.11    3.85   0 
  -2  -5  -5    1.63    2.78   0 
  -2   2   6  134.80    3.82   0 
   0  -6  -5    6.07    3.54   0 
   0  -4  -4  295.01    4.53   0 
   2  -6  -4    6.37    3.17   0 
   3  -2  -1   16.29    3.27   0 
   3  -1   0 1261.26   10.91   0 
   4   2   8  211.99    6.07   0 
   4   2   9   45.86    4.97   0 
  -7  -6  -4    2.12    5.70   0 
  -7  -3  -1   20.07    6.78   0 
  -6   0   5    6.62    3.99   0 
   1  -5  -4  480.48    5.55   0 
   2  -4  -3  177.45    4.02   0 
   3  -6  -3  544.81    6.26   0 
   4  -2   0  328.94    5.76   0 
  -5  -6  -5   35.32    4.37   0 
  -4  -8  -6   22.77    4.09   0 
  -4   1   4  669.71    6.23   0 
  -3  -8  -6   40.19    4.15   0 
  -3   2   7   28.66    3.39   0 
  -2   2   5  237.18    4.21   0 
   0  -7  -5   13.46    3.67   0 
   1  -1  -1 9999.99   30.49   0 
  -3  -4  -4  394.18    5.91   0 
  -3   2   6  871.02    7.04   0 
  -2   1   2   36.79    3.06   0 
  -1  -6  -5   99.10    3.51   0 
  -1  -4  -4  526.30    5.57   0 
   3  -4  -2  118.17    4.32   0 
   4  -4  -1   87.11    4.35   0 
  -7  -5  -3  115.49    8.13   0 
  -6  -7  -5   41.48    4.70   0 
  -5   0   2    5.40    3.29   0 
  -4  -6  -5  163.45    4.86   0 
  -2  -4  -4  604.60    6.58   0 
   1  -6  -4   33.37    3.30   0 
   1   3   7    5.69    3.45   0 
   2   3   8  177.00    4.75   0 
   5  -3   1   12.28    4.41   0 
   6  -1   5   44.42    7.96   0 
  -6  -1   1  162.20    5.38   0 
  -5  -1   0   76.23    5.37   0 
  -5   1   5   36.80    3.49   0 
  -4   0   1   48.77    3.84   0 
  -3  -6  -5   68.99    3.92   0 
  -2  -6  -5   70.88    3.39   0 
  -1  -7  -5    2.97    3.84   0 
   0  -5  -4   72.76    3.73   0 
   2  -5  -3  107.81    3.54   0 
   2  -3  -2   85.67    3.43   0 
   4  -5  -1  127.91    4.60   0 
   5   0   4  422.10   13.65   0 
  -8  -3   0  255.31    8.63   0 
  -6   0   3   40.81    4.28   0 
  -4   1   3  361.70    5.16   0 
  -4   2   7    0.54    3.16   0 
  -3   2   5    0.81    2.89   0 
  -2   2   4  400.62    4.89   0 
  -1  -8  -5  164.94    4.92   0 
  -1   3   7    5.47    3.06   0 
   1  -4  -3   23.09    3.28   0 
   2  -6  -3  465.79    6.07   0 
   2   1   2   15.20    4.86   0 
   3  -5  -2   13.93    3.19   0 
  -7  -1   2    1.68    4.67   0 
  -5  -7  -5   16.00    4.19   0 
  -5  -5  -4  205.64    5.78   0 
  -5   1   4   30.19    3.76   0 
  -3  -3  -3  651.85    8.07   0 
  -3   1   2   45.44    3.25   0 
  -2  -7  -5   27.34    3.61   0 
  -2   3   8   42.78    3.27   0 
  -1  -3  -3 2418.49   11.96   0 
   0   3   6  226.28    4.24   0 
   1   3   6  341.44    4.95   0 
   3  -6  -2    1.48    3.38   0 
   3  -3  -1   78.28    3.53   0 
   5  -4   1   31.42    4.18   0 
   5  -2   2   17.43    4.72   0 
  -2  -3  -3    1.16    2.93   0 
  -2   3   7 1466.77    8.71   0 
  -1   3   6  336.46    5.01   0 
   0  -6  -4    3.46    2.93   0 
   5   2   8    1.64    5.27   0 
  -7  -2   0   76.23    6.31   0 
  -4  -7  -5   42.88    3.83   0 
  -3  -7  -5   -0.70    3.07   0 
  -3   2   4    3.28    3.32   0 
  -2  -8  -5  262.50    4.89   0 
  -1  -5  -4  793.79    6.53   0 
   0  -7  -4  527.32    5.96   0 
   2  -2  -1  709.53    7.07   0 
   2   3   6  112.87    3.82   0 
   3   3   7   51.61    3.75   0 
   5  -1   3   69.15    5.98   0 
  -7  -4  -2  122.20    9.44   0 
  -6  -6  -4   15.41    4.58   0 
  -5  -8  -5  251.94    5.65   0 
  -3  -8  -5  306.28    5.52   0 
  -3  -2  -2  365.13    9.02   0 
  -1   2   3   60.11    3.16   0 
   1  -5  -3    5.17    2.88   0 
   2  -4  -2  504.46    5.52   0 
   4  -4   0   23.56    3.59   0 
   4   3   9  165.28    5.61   0 
  -4  -8  -5  283.47    5.20   0 
  -3   3   7   13.53    3.65   0 
  -2  -5  -4  114.57    3.49   0 
   0  -1  -1   20.78    3.36   0 
   0   3   5 1799.95    9.20   0 
   1  -6  -3 1838.25    9.75   0 
   1   2   3   -0.15    3.01   0 
   3  -4  -1 1213.94    8.59   0 
   4  -5   0   41.09    4.09   0 
   4  -2   1   19.31    4.04   0 
   4   3   8  191.34    5.79   0 
   5  -3   2   26.03    4.87   0 
  -6   0   2   66.81    4.31   0 
  -5   1   3    3.92    3.33   0 
  -5   2   6  158.25    4.75   0 
  -3  -5  -4  711.30    6.37   0 
  -2   2   3  282.50    4.36   0 
  -1  -6  -4   40.63    3.04   0 
  -1   3   5    7.82    2.84   0 
   0   4   9    5.90    3.12   0 
   1  -7  -3   59.82    3.44   0 
   1  -3  -2  278.58    4.53   0 
   3  -6  -1   88.28    4.36   0 
   5   2   7    6.53    5.00   0 
  -8  -5  -2  393.25   12.34   0 
  -5  -4  -3   14.01    4.24   0 
  -5   0   1   59.95    4.43   0 
  -4   1   2    5.73    3.00   0 
  -3   3   6  183.63    4.47   0 
  -1  -8  -4   52.44    3.69   0 
  -1  -7  -4   63.90    3.61   0 
   2  -6  -2    7.42    3.05   0 
   2   4   9    8.60    3.27   0 
  -6  -2  -1  235.63   10.18   0 
  -6   1   4  214.18    5.00   0 
  -5  -6  -4    6.00    3.44   0 
  -4   2   4  161.09    3.88   0 
  -2  -6  -4   10.17    3.11   0 
  -2   3   5  738.61    6.11   0 
   2  -1   0   77.18    3.94   0 
   2   4   8   83.82    3.96   0 
  -7   0   3    7.57    3.64   0 
  -5   2   5   21.48    3.39   0 
  -3   2   3  101.97    3.78   0 
  -1  -4  -3    3.73    2.35   0 
  -1   1   1 9408.68   28.00   0 
   0  -5  -3  145.87    3.60   0 
   1   4   7  135.09    3.99   0 
  -7  -1   1   39.16    4.97   0 
  -6  -7  -4    3.21    3.62   0 
  -3  -6  -4   26.36    2.85   0 
  -2  -8  -4    1.07    3.00   0 
  -2  -7  -4  305.61    4.54   0 
  -2   1   1    3.98    2.98   0 
  -1   4   7  145.65    3.69   0 
   0  -7  -3  125.49    3.94   0 
   1  -4  -2  360.86    4.99   0 
   2  -3  -1    1.85    2.86   0 
   4  -3   1   89.90    3.86   0 
  -3  -7  -4    5.89    3.19   0 
  -3   3   5    4.01    2.74   0 
  -1   3   4  113.91    3.23   0 
   2   4   7  141.77    4.14   0 
   3  -3   0  130.31    3.73   0 
   3   4   8  364.56    5.37   0 
   4  -5   1    7.53    3.80   0 
   4  -4   1  218.97    4.79   0 
   4  -1   2   72.73    4.66   0 
   5  -2   3   78.91    5.05   0 
  -6  -1   0    3.84    4.43   0 
  -5  -7  -4   15.25    3.27   0 
  -4  -7  -4   50.90    3.57   0 
  -4  -4  -3  903.79    9.00   0 
  -3  -8  -4   57.69    3.35   0 
  -2  -4  -3 1062.09    7.53   0 
  -2   4   7   13.66    2.94   0 
   0  -3  -2  182.32    3.94   0 
   0   4   6  394.76    4.97   0 
   1  -7  -2    7.11    2.87   0 
   1  -5  -2   71.96    3.52   0 
   3  -6   0    4.10    3.59   0 
   3  -1   1  640.54    8.10   0 
  -7  -6  -3  557.64    8.78   0 
  -6  -5  -3   98.85    5.18   0 
  -6   1   3   64.01    3.90   0 
  -5  -8  -4   49.93    3.91   0 
  -5   1   2    3.27    3.41   0 
  -5   2   4    7.11    3.19   0 
  -4  -8  -4    3.37    2.97   0 
  -4   2   3   45.69    3.33   0 
  -3  -4  -3    9.36    3.03   0 
  -2   3   4    6.45    2.51   0 
  -1  -8  -3  143.36    4.02   0 
  -1  -5  -3    3.60    2.43   0 
  -1   4   6  109.03    3.28   0 
   1   4   6   25.72    2.72   0 
   2  -6  -1  140.68    4.36   0 
   2  -4  -1  228.65    4.19   0 
   3  -5   0   -0.99    3.16   0 
   3  -4   0  123.42    4.07   0 
   5  -3   3   63.03    4.60   0 
  -4   3   5  164.88    4.34   0 
  -3   4   7  141.73    3.95   0 
  -2   4   6  185.35    4.07   0 
  -1  -7  -3   51.97    3.21   0 
  -1  -6  -3 3314.82   11.97   0 
   2  -5  -1  183.58    3.91   0 
   3   4   7  117.82    3.82   0 
   5   3   8   41.95    5.04   0 
  -3   3   4   42.07    3.13   0 
  -1   2   2  606.26    5.98   0 
  -7   0   2    2.21    3.76   0 
  -6   0   1   15.77    4.16   0 
  -4   0   0 6811.51   24.29   0 
  -2  -8  -3   49.52    3.52   0 
  -2  -5  -3  166.02    3.83   0 
   0  -4  -2  682.25    6.11   0 
   2   0   1  888.05   14.42   0 
   4   4   8   59.08    4.13   0 
  -5  -5  -3  103.23    4.53   0 
  -2  -7  -3   74.57    3.41   0 
  -2  -6  -3 1387.91    8.69   0 
  -1   4   5  114.45    3.22   0 
   0  -7  -2  196.44    3.92   0 
   0   4   5  220.21    3.84   0 
  -6   2   4   31.21    3.55   0 
  -5   2   3   41.23    3.33   0 
  -5   3   5    5.78    3.41   0 
  -4   1   1    9.71    3.25   0 
  -3   2   2  227.49    4.25   0 
  -2   4   5   68.73    3.23   0 
  -1  -3  -2  743.76    6.49   0 
   0  -6  -2   48.54    2.95   0 
   0  -5  -2   24.08    2.63   0 
   1  -7  -1    5.93    2.77   0 
   3   5   9    7.45    3.49   0 
   4  -4   2   64.75    3.91   0 
   4  -3   2  224.28    5.02   0 
   5  -1   4   23.35    4.62   0 
  -6  -6  -3  305.07    6.28   0 
  -4  -5  -3  163.03    4.34   0 
  -4   3   4    0.17    2.53   0 
  -3  -8  -3  108.45    3.66   0 
  -1  -8  -2   -1.15    2.98   0 
  -1   3   3 3240.89   11.85   0 
   1   5   7  112.97    3.19   0 
  -6   1   2   -1.67    3.39   0 
  -4  -8  -3   42.67    3.54   0 
  -3  -7  -3   30.42    2.68   0 
  -3  -6  -3 3622.77   12.94   0 
  -2   3   3   52.48    2.73   0 
   0   3   3   63.37    3.02   0 
   3  -5   1   12.54    2.72   0 
   3  -2   1  640.06    6.78   0 
   3   4   6    9.75    2.74   0 
   5  -2   4  175.25    5.67   0 
  -6  -7  -3    7.60    3.14   0 
  -5  -8  -3   36.82    3.44   0 
  -5  -6  -3 1723.94   10.55   0 
  -4  -7  -3   23.78    3.04   0 
  -4   2   2  311.77    4.57   0 
  -1  -7  -2    4.38    2.92   0 
   1  -5  -1   54.20    2.83   0 
   1  -4  -1 3694.92   12.79   0 
   2  -5   0  273.80    4.69   0 
   3  -4   1   80.83    3.48   0 
  -5  -7  -3    7.07    2.89   0 
  -3   3   3 1617.94    8.31   0 
  -1  -4  -2  559.09    5.31   0 
   2  -4   0  112.74    3.26   0 
  -2  -8  -2  101.13    3.36   0 
  -1  -6  -2  105.87    3.11   0 
  -1   4   4  306.70    4.08   0 
  -4  -1  -6  460.57    4.59   0 
  -3  -2  -3   22.41    2.21   0 
  -3  -1  -5  640.30    5.18   0 
  -2  -1   5  785.65    9.26   0 
  -2   0  -5  163.48    3.32   0 
  -1   3  -6  651.71    7.30   0 
   2   5   9  530.58    4.49   0 
   3   6   8    3.60    2.50   0 
   4   7   3   26.83    2.52   0 
   4   7   5   59.29    2.74   0 
  -8  -4  -4   13.36    3.14   0 
  -7  -4  -3   14.25    2.31   0 
  -7  -4   2   26.17    3.56   0 
  -6  -4  -1    3.10    2.46   0 
  -6  -4   0   58.56    2.95   0 
  -6  -3  -5  194.96    3.31   0 
  -5  -3  -4   81.77    2.91   0 
  -4  -3  -2   90.87    2.85   0 
  -4  -3   2  337.29    6.47   0 
  -2   1  -6  439.46    4.82   0 
  -1  -1   0 1158.98   13.73   0 
   0   1  -3 1383.51   11.22   0 
   0   1   6  529.07    5.38   0 
   0   2   8   58.08    2.96   0 
   1   2   6 4084.51   12.01   0 
   1   3   8  352.92    4.00   0 
   3   5   6  142.49    2.95   0 
   4   7   4   61.25    2.70   0 
   4   8   3   69.23    3.22   0 
   4   8   6   30.85    2.78   0 
  -7  -3  -6    4.55    3.01   0 
  -6  -4  -2  125.92    3.32   0 
  -6  -4   1    9.85    3.24   0 
  -5  -2  -6 1593.05    7.19   0 
  -5  -1  -7    0.84    2.38   0 
  -4  -2  -5  387.73    4.00   0 
  -3   1  -7   98.04    3.36   0 
   1   4   9   53.27    3.18   0 
   2   3   5 1894.27    7.92   0 
   2   4   7  145.32    3.13   0 
   4   8   4    0.10    2.96   0 
   4   8   5  396.81    4.44   0 
  -7  -4  -4   21.32    2.42   0 
  -3   0   8   97.17    4.78   0 
  -2   0   7    4.11    3.46   0 
  -1   2   9  186.53    4.05   0 
   0   3  -5  608.75    8.12   0 
   0   3   9  145.51    3.60   0 
   2   3   0 3666.98   16.32   0 
   3   5   1    1.77    2.40   0 
   3   5   5   24.02    2.55   0 
   3   6   0    8.45    2.94   0 
   3   6   7  148.40    3.19   0 
  -6  -4  -3  417.70    4.24   0 
  -4  -3  -3   32.61    2.48   0 
  -2  -1  -4   89.29    2.76   0 
   2   5   8   56.44    2.70   0 
  -7  -4  -5   70.26    3.15   0 
  -6  -3  -6   38.29    2.62   0 
  -5  -3  -5   79.90    2.66   0 
  -3  -2  -4 1038.61    6.11   0 
  -2   2  -7   11.77    3.59   0 
   2   3   4   24.49    2.18   0 
   3   5   2  593.54    5.17   0 
   3   5   3   29.49    2.48   0 
   3   5   4  729.29    5.07   0 
   3   6   6  462.39    4.17   0 
   3   7   0  152.47    4.35   0 
   3   8   0   56.81    4.05   0 
  -6  -4  -4  100.99    2.69   0 
  -4  -1  -7  381.48    4.36   0 
  -4  -1   7   43.49    5.15   0 
  -3  -1  -6   31.93    2.61   0 
  -2  -2   0  357.96    5.94   0 
  -1  -1  -1 3046.74   16.72   0 
  -1   0  -4 5229.49   15.84   0 
  -1   2  -6    1.51    3.11   0 
   1   2   5  350.35    3.92   0 
   1   3   7    8.00    2.25   0 
   2   4   6  417.24    3.96   0 
   2   5  -2  256.76    6.49   0 
   3   7   7   49.59    2.65   0 
  -8  -5  -3   47.99    3.31   0 
  -8  -5  -2  455.90    4.99   0 
  -5  -4  -2  243.44    3.68   0 
  -5  -4  -1  787.49    6.14   0 
  -5  -2  -7    9.27    2.40   0 
  -5  -1  -8   29.52    3.13   0 
  -4  -3  -4    3.79    2.35   0 
  -4  -2  -6   94.13    2.84   0 
  -3   0  -7   38.88    2.89   0 
  -2  -2  -1 1614.18    9.98   0 
  -1   1   7  205.22    3.97   0 
   0   2   7  137.93    3.22   0 
   1   4   8  220.44    3.61   0 
   1   5   9   -0.89    2.82   0 
   2   3   1  209.55    4.05   0 
   2   3   3    0.76    2.03   0 
   3   6   1    5.08    2.56   0 
   3   6   5   86.25    2.62   0 
  -7  -4  -6    3.70    2.95   0 
  -4   0  -8   16.82    3.10   0 
  -3  -1   6  866.67    9.31   0 
  -2  -2   1  100.21    4.77   0 
  -2   0  -6  129.10    3.09   0 
  -1   0   5  275.05    4.70   0 
   0   1   5   66.62    2.74   0 
   2   5   7  171.55    3.04   0 
   2   6   8   93.13    2.83   0 
   3   6   4   26.64    2.58   0 
   3   7   6  311.06    3.74   0 
  -7  -5  -2  337.95    4.44   0 
  -7  -5  -1    6.01    3.13   0 
  -6  -4  -5   23.37    2.39   0 
  -6  -3  -7   58.11    2.78   0 
  -5  -4  -3   13.47    2.31   0 
  -5  -3  -6   53.38    2.42   0 
  -2   1   8   27.51    3.30   0 
   0   3   8  117.76    3.34   0 
   0   4   9    4.71    3.09   0 
   2   4  -1  408.89    6.47   0 
   2   4   5  347.07    3.88   0 
   2   7  -2   26.30    4.82   0 
   3   6   3 3990.85   11.60   0 
   3   7   1   35.02    2.76   0 
   3   7   5   -1.85    2.57   0 
   3   8   1  117.00    3.67   0 
   3   8   6   56.93    2.83   0 
  -7  -5  -3  139.23    3.63   0 
  -4  -2   5    7.72    5.31   0 
  -3  -2  -5  191.11    3.25   0 
  -3   1  -8  240.61    4.26   0 
  -2  -1  -5  133.14    3.11   0 
  -2   1  -7  157.32    3.60   0 
  -1   2   8   54.52    2.97   0 
   1   2   4  538.94    5.01   0 
   1   3   6  333.80    4.00   0 
   2   6  -2   30.07    4.21   0 
   3   7   2   19.91    2.99   0 
   3   7   4    8.10    2.66   0 
   3   8   2    1.08    3.28   0 
   3   8   5  406.31    4.52   0 
  -7  -5  -4   20.65    3.09   0 
  -7  -5   0   61.17    3.54   0 
  -6  -4  -6  142.33    3.43   0 
  -4  -3  -5  855.23    5.25   0 
  -3  -3  -1  362.26    4.64   0 
  -1  -1  -2  172.50    3.87   0 
  -1   3   9  262.47    4.15   0 
   2   5   6  303.84    3.47   0 
   2   6   7  653.95    4.84   0 
   3   7   3   40.55    2.79   0 
   3   8   3  141.62    3.60   0 
   3   8   4   86.48    3.28   0 
  -5  -2  -8    0.16    2.39   0 
  -4  -2  -7  384.93    3.92   0 
  -4  -1  -8  155.55    3.29   0 
  -3  -3  -2  379.63    4.40   0 
  -3  -3   0  540.37    6.24   0 
   1   4   7  131.94    2.95   0 
   1   5   8  220.43    3.36   0 
  -7  -5  -5    7.90    2.33   0 
  -5  -4  -5   74.09    2.86   0 
  -3  -1  -7   69.09    2.59   0 
  -2  -2  -3 1286.68    7.30   0 
  -1   1  -6  553.35    5.77   0 
   2   7   7   65.37    2.77   0 
  -7  -5   1  171.91    4.80   0 
  -6  -5  -2  991.23    6.55   0 
  -4  -3  -6   56.70    2.71   0 
  -3  -3  -3  643.35    5.08   0 
  -3   0  -8   58.85    2.92   0 
  -2   0   6   28.93    3.15   0 
  -1   0  -5  266.14    4.02   0 
  -1   3  -7   49.07    3.97   0 
   2   5   5    0.56    2.29   0 
   2   6   6  178.04    3.34   0 
  -7  -5  -6  171.46    3.37   0 
  -6  -5  -4   51.04    2.70   0 
  -6  -5  -1   40.11    2.60   0 
  -2   0  -7  140.05    3.46   0 
  -1   1   6  246.28    4.01   0 
   0   1  -4    5.95    2.63   0 
   0   1   4  645.38    5.81   0 
   0   3   7 1713.80    7.57   0 
   0   4   8   48.24    2.53   0 
   1   2   3    0.84    1.88   0 
   1   3   5   70.74    2.63   0 
   1   6   8   15.70    2.49   0 
   2   4   0  345.24    5.03   0 
  -5  -4  -6   21.99    2.21   0 
  -5  -4   2   34.38    4.35   0 
  -4  -4  -2  162.15    3.17   0 
  -3  -3  -4    9.83    2.10   0 
  -3   0   7   82.19    3.74   0 
  -2  -1  -6  575.51    4.76   0 
  -1  -1  -3  890.41    6.79   0 
   0   4  -6   74.65    6.03   0 
   1   5   7  117.76    2.78   0 
   2   4   1  404.39    4.81   0 
   2   4   2  374.29    4.24   0 
   2   5  -1    3.33    3.10   0 
   2   7   6    4.50    2.27   0 
  -6  -5  -5   40.98    2.35   0 
  -6  -5   0  138.12    3.84   0 
  -4  -4  -1   74.26    2.91   0 
  -4  -2  -8  213.89    3.32   0 
  -3  -3   1   26.70    3.38   0 
  -3   1   8  162.41    4.17   0 
  -2  -1   4   16.87    3.47   0 
  -1   3   8  273.30    3.86   0 
   2   5   4  107.59    2.61   0 
   2   6   5   78.76    2.37   0 
  -4  -4  -4  402.93    3.88   0 
  -4  -3  -7  355.85    3.81   0 
  -3  -1  -8  108.78    3.12   0 
  -2   1   7  408.13    4.89   0 
  -2   2   8   10.28    2.64   0 
  -1   2   7   46.03    2.40   0 
   2   7  -1  136.07    3.94   0 
   2   7   5   38.33    2.55   0 
   2   8   5  381.50    4.33   0 
  -6  -5  -6  276.56    3.54   0 
  -5  -4  -7   75.17    2.66   0 
  -3  -3  -5  106.40    2.85   0 
   0   5   8   37.25    2.50   0 
   1   2   2  912.91    7.00   0 
   1   6   7  148.04    2.97   0 
   2   5   3  154.20    2.89   0 
   2   6   4    9.90    2.35   0 
   2   8   0   34.00    3.61   0 
  -4  -4  -5  169.15    2.89   0 
  -2  -2  -5  625.71    4.90   0 
   0   4   7   69.50    2.67   0 
   1   3   4   59.49    2.31   0 
   1   5   6   37.57    2.26   0 
   1   7   7   98.45    2.92   0 
   2   5   0 1265.19    8.14   0 
   2   7   4  359.70    3.84   0 
   2   8   4    1.61    2.40   0 
  -7  -6  -5    6.81    2.47   0 
  -7  -6  -2    2.90    2.80   0 
  -6  -5  -7    8.74    2.39   0 
  -5  -5  -4  209.33    3.18   0 
  -5  -5  -2  574.77    5.25   0 
  -1   0  -6   72.11    2.97   0 
   0   0  -2   72.72    3.75   0 
   0   6   8   40.89    2.69   0 
   1   4   5   93.40    2.49   0 
   2   5   1    7.12    2.18   0 
   2   5   2  562.23    4.63   0 
   2   6   3 1489.84    7.00   0 
   2   7   0    3.36    2.89   0 
   2   8   1    5.21    2.84   0 
   2   8   2  143.86    3.42   0 
   2   8   3   70.94    3.10   0 
  -6  -5   1   21.21    3.88   0 
  -5  -5  -5    6.64    2.44   0 
  -4  -4  -6  295.58    3.65   0 
  -4  -3  -8  187.99    3.40   0 
  -4  -2  -9   47.56    2.71   0 
  -3  -3  -6  185.09    3.23   0 
  -2  -1  -7  654.43    5.13   0 
  -2   0  -8   66.07    3.29   0 
  -1   1  -7   81.25    3.50   0 
  -1   4   8   20.09    2.53   0 
   1   6   6  402.90    4.10   0 
   2   6   0  626.46    5.78   0 
   2   6   2  102.47    2.89   0 
   2   7   1    8.35    2.73   0 
   2   7   2  515.87    4.71   0 
   2   7   3   85.68    2.70   0 
  -5  -5  -1    1.89    2.38   0 
  -5  -4  -8  296.85    3.52   0 
   0   1   3 3108.18   12.85   0 
   0   5   7  103.05    2.93   0 
   1   2   1  246.46    4.40   0 
   1   7   6  251.18    3.38   0 
   2   6   1  296.75    4.05   0 
  -5  -5  -6  236.77    3.23   0 
  -4  -1   6  112.19    4.53   0 
  -3  -2  -8    8.98    2.17   0 
  -3  -1  -9  303.48    4.18   0 
  -2  -2  -6  237.00    3.63   0 
  -2   3   8   41.90    2.83   0 
  -1   1   5  329.63    4.23   0 
  -1   5   8  141.74    3.35   0 
   1   3   3 2342.58    9.27   0 
   1   5   5  147.82    2.74   0 
  -6  -6  -4   18.27    2.61   0 
  -4   0   7   33.19    3.60   0 
  -3  -1   5    2.54    3.00   0 
  -3   2   8   44.56    2.99   0 
  -1  -1  -5  620.94    4.95   0 
  -1   2   6 2339.65    8.93   0 
   0   0  -3  599.95    6.72   0 
   0   6   7  459.09    4.08   0 
   1   4   4  530.38    4.37   0 
   1   8   5  210.89    3.66   0 
  -5  -5  -7   20.61    2.35   0 
  -4  -4   1   87.96    3.84   0 
  -2   0   5    2.18    2.78   0 
  -2   2   7   16.72    2.51   0 
   0   2  -6  108.17    4.21   0 
   1   2   0 2379.76   14.83   0 
   1   6   5   97.77    2.52   0 
   1   7   5    4.16    2.21   0 
  -7  -6   0   -1.37    3.32   0 
  -6  -6  -6   68.70    2.56   0 
  -6  -6  -2   28.01    2.66   0 
  -4  -3  -9  167.72    3.11   0 
  -3   0   6    0.36    2.96   0 
  -3   1   7   87.55    3.05   0 
  -2  -1  -8  154.97    3.22   0 
  -2   1   6  346.93    4.36   0 
  -2   4   8   10.42    2.77   0 
   0   2   4  433.29    4.32   0 
   1   8   4   85.92    2.99   0 
  -3  -4  -4  406.38    3.75   0 
  -2  -3  -3    1.64    1.81   0 
  -2  -2  -7  355.01    3.90   0 
  -1   4   7  149.90    2.86   0 
   1   5   4  852.99    5.23   0 
  -6  -6  -1   38.07    3.16   0 
  -5  -5  -8   96.82    2.80   0 
  -4  -5  -5   25.60    2.34   0 
  -4  -5  -4   99.64    2.62   0 
  -3  -4  -5   64.78    2.26   0 
  -3  -4  -2  369.78    3.96   0 
  -3  -2  -9  175.00    3.20   0 
  -2  -3  -2  169.97    3.11   0 
  -2   0  -9  194.62    4.15   0 
  -1  -1  -6  221.60    3.48   0 
   0   6   6   76.37    2.80   0 
   0   7   6    0.52    2.37   0 
   1   3   2  633.69    5.36   0 
   1   6   4   36.22    2.48   0 
   1   7   4   78.67    2.53   0 
   1   8   3  199.30    3.62   0 
  -3  -3  -8  195.76    3.06   0 
  -2  -3  -5 2022.21    7.73   0 
  -1   1  -8  320.39    5.01   0 
  -1   5   7  106.30    2.69   0 
  -1   6   7   84.35    3.14   0 
   0   0  -4   23.61    2.60   0 
   1   4   3    1.71    1.79   0 
   1   6  -3   32.36    4.36   0 
   1   8   2    3.08    2.77   0 
  -5  -6  -5   37.29    2.50   0 
  -4  -5  -6  371.70    3.58   0 
  -3  -4  -6    9.68    2.06   0 
  -2   3   7 1394.33    6.93   0 
   1   7  -2  207.17    4.81   0 
   1   7   3   72.72    2.79   0 
   1   8   1  108.52    3.35   0 
  -6  -5   2  160.86    6.47   0 
  -5  -6  -6  245.69    3.65   0 
  -5  -6  -3 2014.51    8.66   0 
  -4  -4  -9   41.16    2.58   0 
  -2  -3  -1  211.62    3.78   0 
  -1  -2  -3    1.33    1.80   0 
  -1   0   3 4294.71   17.02   0 
   0   1  -6  475.98    5.70   0 
   1   5   3    1.68    1.92   0 
   1   6   3 3597.72   10.01   0 
  -5  -6  -7   56.68    2.79   0 
  -4  -5  -7   81.08    2.56   0 
  -3  -4  -7  117.05    2.55   0 
  -3   2   7   29.16    2.68   0 
  -2  -2  -8  166.57    2.97   0 
  -2  -1  -9   65.74    3.02   0 
  -1  -2  -4  511.62    4.50   0 
  -1  -2  -2  852.92    6.56   0 
  -1   2   5  171.11    3.05   0 
   0   1   2   16.21    2.37   0 
   0   5   5   30.95    2.14   0 
   0   6   5    5.41    2.47   0 
   0   7   5   15.35    2.27   0 
   1   7   2    1.51    2.55   0 
  -4  -5  -1   70.22    2.94   0 
  -4   1   7  150.71    3.58   0 
  -3  -3  -9  246.20    3.46   0 
  -2   2   6  134.10    3.11   0 
  -2   4   7   15.11    2.33   0 
  -1  -1  -7  216.10    3.46   0 
  -1   0  -8   92.89    3.29   0 
  -1   1   4  167.74    3.26   0 
   0   0  -5   59.62    2.81   0 
   0   3   4   44.67    2.10   0 
   1   4   2  489.49    4.29   0 
   1   7   1    3.31    2.37   0 
  -6  -7  -6   12.33    2.50   0 
  -6  -7  -4    1.12    2.64   0 
  -6  -6   0  125.74    4.10   0 
  -5  -6  -2   15.42    2.46   0 
  -5  -5   1  361.00    6.03   0 
  -5  -2   5   12.40    3.82   0 
  -4  -5  -8   33.55    2.29   0 
  -2  -3  -7 1123.54    5.71   0 
  -2   5   7   23.92    2.28   0 
  -1  -2  -5  341.27    3.62   0 
  -1   5   6    4.58    2.11   0 
  -1   6   6  194.38    3.08   0 
   0   2   3 1031.04    6.49   0 
   1   5   2  282.36    3.48   0 
   1   6   2  108.89    2.60   0 
  -3  -4  -8  368.35    3.55   0 
  -3   3   7   12.16    2.75   0 
   0   7   4  587.90    4.45   0 
   1   5  -3   93.58    4.45   0 
   1   6  -2   83.69    3.74   0 
  -6  -7  -3   10.96    2.56   0 
  -4  -5  -9  321.94    3.80   0 
  -4   0   6   16.49    2.88   0 
  -3   1   6   90.42    2.83   0 
  -2  -2  -9   50.00    2.83   0 
  -2   1   5  355.72    4.35   0 
  -1  -2  -6 3975.39   10.83   0 
  -1  -2  -1  243.26    4.36   0 
   0   4   4  291.86    3.29   0 
   0   6   4   -1.11    2.24   0 
  -4   2   7    3.96    2.58   0 
  -3  -5  -5   24.32    2.27   0 
  -3  -4   0  295.43    4.65   0 
  -3   4   7  139.62    3.25   0 
  -2  -3  -8  179.41    3.16   0 
  -1   3   5    6.30    1.94   0 
  -1   7   5    0.52    2.36   0 
   0   5   4   70.43    2.32   0 
   1   4   1 5551.71   14.15   0 
   1   5   1   26.98    2.17   0 
   1   6  -1  515.66    5.21   0 
   1   6   0    1.00    2.26   0 
  -5  -6  -1   24.18    2.63   0 
  -4  -6  -6  148.09    2.77   0 
  -4  -6  -5  193.94    2.82   0 
  -4  -6  -4   37.13    2.49   0 
  -3  -5  -6  143.70    2.64   0 
  -3  -4  -9   40.12    2.37   0 
  -2  -3   0 3647.79   15.07   0 
  -2  -1   3  171.86    4.80   0 
  -2   6   6   10.55    2.75   0 
  -1  -1  -8  241.42    3.54   0 
  -1   6   5   72.07    2.80   0 
   0   0  -6   58.56    2.79   0 
   0   1  -7  190.90    4.47   0 
   0   7   3  170.11    3.09   0 
  -6  -7  -2  178.97    3.71   0 
  -5  -7  -6  149.83    3.08   0 
  -4  -6  -7  527.04    4.08   0 
  -4  -1   5  307.56    5.01   0 
  -3  -5  -7   71.95    2.37   0 
  -3  -5  -3   30.49    2.30   0 
  -3   0   5  144.07    3.47   0 
  -2  -4  -5  315.00    3.35   0 
  -2  -4  -4  626.86    4.40   0 
  -2   0   4    8.14    2.52   0 
  -2   4   6  183.68    2.84   0 
  -2   5   6   97.46    2.58   0 
  -1  -2  -7   59.55    2.46   0 
  -1   0  -9    9.32    3.18   0 
  -1   5   5  183.65    2.77   0 
   0   3   3   60.88    2.62   0 
  -5  -7  -7    8.88    2.17   0 
  -5  -7  -5   20.09    2.46   0 
  -4  -6  -8  106.25    3.00   0 
  -4  -5   0  698.93    6.45   0 
  -2  -4  -6  409.59    3.63   0 
  -2  -4  -3 1060.12    5.82   0 
  -1   7   4  124.15    2.86   0 
   0   6   3 1145.70    5.69   0 
  -5  -7  -4   20.43    2.48   0 
  -3  -5  -8  189.78    2.90   0 
  -2  -3  -9  192.62    3.41   0 
  -1   2   4   32.55    1.85   0 
   0  -1  -4  654.31    5.42   0 
   0  -1  -3 3115.37   12.17   0 
   0   4   3  458.31    3.96   0 
   0   5   3  143.15    2.61   0 
  -2   2   5  221.37    3.14   0 
  -1   6   4   34.20    2.52   0 
   0  -1  -5   65.97    2.44   0 
   0   7   1    3.54    2.34   0 
  -3   5   6    0.93    2.22   0 
  -2   6   5    2.08    2.16   0 
  -1  -3  -5   68.48    2.17   0 
  -1  -3  -4   58.23    2.09   0 
;
_shelx_hkl_checksum              86786
loop_
_space_group_symop_operation_xyz
'x, y, z'
'-x, -y, -z'
loop_
_atom_site_label
_atom_site_type_symbol
_atom_site_fract_x
_atom_site_fract_y
_atom_site_fract_z
_atom_site_U_iso_or_equiv
_atom_site_adp_type
_atom_site_occupancy
_atom_site_site_symmetry_order
_atom_site_calc_flag
_atom_site_refinement_flags_posn
_atom_site_refinement_flags_adp
_atom_site_refinement_flags_occupancy
_atom_site_disorder_assembly
_atom_site_disorder_group
S1 S 0.23642(7) 0.89297(6) 0.16561(5) 0.03216(18) Uani 1 1 d . . . . .
H1 H 0.250(3) 1.057(4) 0.170(3) 0.047(6) Uiso 1 1 d . . . . .
F1 F 0.28635(17) 1.07633(15) 0.43445(12) 0.0349(3) Uani 1 1 d . . . . .
F2 F 0.21539(16) 0.29546(15) 0.71879(12) 0.0324(3) Uani 1 1 d . . . . .
N1 N 0.2570(2) 0.4231(2) 1.09160(18) 0.0349(4) Uani 1 1 d . . . . .
C1 C 0.2453(2) 0.7784(2) 0.39348(19) 0.0232(3) Uani 1 1 d . . . . .
C2 C 0.2692(2) 0.8814(2) 0.5051(2) 0.0251(3) Uani 1 1 d . . . . .
C3 C 0.2772(2) 0.7942(2) 0.6829(2) 0.0250(3) Uani 1 1 d . . . . .
H3 H 0.2956 0.8687 0.7545 0.030 Uiso 1 1 calc R U . . .
C4 C 0.2575(2) 0.5932(2) 0.75671(19) 0.0227(3) Uani 1 1 d . . . . .
C5 C 0.2332(2) 0.4897(2) 0.6461(2) 0.0237(3) Uani 1 1 d . . . . .
C6 C 0.2279(2) 0.5766(2) 0.46764(19) 0.0243(3) Uani 1 1 d . . . . .
H6 H 0.2125 0.5008 0.3958 0.029 Uiso 1 1 calc R U . . .
C7 C 0.2584(3) 0.4974(3) 0.9428(2) 0.0268(4) Uani 1 1 d . . . . .
loop_
_atom_site_aniso_label
_atom_site_aniso_U_11
_atom_site_aniso_U_22
_atom_site_aniso_U_33
_atom_site_aniso_U_23
_atom_site_aniso_U_13
_atom_site_aniso_U_12
S1 0.0474(3) 0.0270(3) 0.0183(2) -0.00321(16) -0.00400(16) -0.01033(19)
F1 0.0587(6) 0.0211(5) 0.0271(5) -0.0018(4) -0.0054(4) -0.0191(4)
F2 0.0502(6) 0.0226(5) 0.0287(5) -0.0029(4) -0.0053(4) -0.0197(4)
N1 0.0510(9) 0.0321(8) 0.0220(8) -0.0031(6) -0.0031(6) -0.0182(7)
C1 0.0249(7) 0.0219(8) 0.0191(7) -0.0045(6) -0.0019(5) -0.0047(6)
C2 0.0306(8) 0.0174(7) 0.0249(8) -0.0030(6) -0.0016(6) -0.0082(6)
C3 0.0318(8) 0.0222(8) 0.0230(8) -0.0079(6) -0.0023(6) -0.0099(6)
C4 0.0259(7) 0.0210(8) 0.0197(7) -0.0045(6) -0.0014(5) -0.0073(6)
C5 0.0253(7) 0.0187(8) 0.0256(8) -0.0043(6) -0.0018(6) -0.0075(6)
C6 0.0276(8) 0.0232(8) 0.0236(8) -0.0084(6) -0.0034(6) -0.0081(6)
C7 0.0329(8) 0.0227(8) 0.0260(9) -0.0068(6) -0.0017(6) -0.0110(6)
loop_
_atom_type_symbol
_atom_type_description
_atom_type_scat_dispersion_real
_atom_type_scat_dispersion_imag
_atom_type_scat_source
C C 0.0033 0.0016 'International Tables Vol C Tables 4.2.6.8 and 6.1.1.4'
H H 0.0000 0.0000 'International Tables Vol C Tables 4.2.6.8 and 6.1.1.4'
F F 0.0171 0.0103 'International Tables Vol C Tables 4.2.6.8 and 6.1.1.4'
N N 0.0061 0.0033 'International Tables Vol C Tables 4.2.6.8 and 6.1.1.4'
S S 0.1246 0.1234 'International Tables Vol C Tables 4.2.6.8 and 6.1.1.4'
loop_
_geom_angle_atom_site_label_1
_geom_angle_atom_site_label_2
_geom_angle_atom_site_label_3
_geom_angle
_geom_angle_site_symmetry_1
_geom_angle_site_symmetry_3
_geom_angle_publ_flag
C1 S1 H1 94.3(10) . . ?
C2 C1 C6 118.01(13) . . ?
C2 C1 S1 122.45(12) . . ?
C6 C1 S1 119.54(11) . . ?
F1 C2 C3 118.44(14) . . ?
F1 C2 C1 118.36(13) . . ?
C3 C2 C1 123.20(14) . . ?
C2 C3 C4 118.60(14) . . ?
C2 C3 H3 120.7 . . ?
C4 C3 H3 120.7 . . ?
C5 C4 C3 118.50(14) . . ?
C5 C4 C7 120.69(14) . . ?
C3 C4 C7 120.81(14) . . ?
F2 C5 C6 119.34(14) . . ?
F2 C5 C4 117.94(14) . . ?
C6 C5 C4 122.72(14) . . ?
C5 C6 C1 118.97(14) . . ?
C5 C6 H6 120.5 . . ?
C1 C6 H6 120.5 . . ?
N1 C7 C4 179.12(18) . . ?
loop_
_geom_bond_atom_site_label_1
_geom_bond_atom_site_label_2
_geom_bond_distance
_geom_bond_site_symmetry_2
_geom_bond_publ_flag
S1 C1 1.7569(15) . ?
S1 H1 1.21(2) . ?
F1 C2 1.3494(18) . ?
F2 C5 1.3479(18) . ?
N1 C7 1.145(2) . ?
C1 C2 1.393(2) . ?
C1 C6 1.397(2) . ?
C2 C3 1.369(2) . ?
C3 C4 1.397(2) . ?
C3 H3 0.9500 . ?
C4 C5 1.390(2) . ?
C4 C7 1.435(2) . ?
C5 C6 1.373(2) . ?
C6 H6 0.9500 . ?
loop_
_geom_hbond_atom_site_label_D
_geom_hbond_atom_site_label_H
_geom_hbond_atom_site_label_A
_geom_hbond_distance_DH
_geom_hbond_distance_HA
_geom_hbond_distance_DA
_geom_hbond_angle_DHA
_geom_hbond_site_symmetry_A
S1 H1 N1 1.21(2) 2.47(2) 3.6485(17) 164.1(15) 1_564
S1 H1 F1 1.21(2) 2.25(2) 2.9913(11) 116.3(14) .
loop_
_geom_torsion_atom_site_label_1
_geom_torsion_atom_site_label_2
_geom_torsion_atom_site_label_3
_geom_torsion_atom_site_label_4
_geom_torsion
_geom_torsion_site_symmetry_1
_geom_torsion_site_symmetry_2
_geom_torsion_site_symmetry_3
_geom_torsion_site_symmetry_4
_geom_torsion_publ_flag
C6 C1 C2 F1 179.97(13) . . . . ?
S1 C1 C2 F1 -0.1(2) . . . . ?
C6 C1 C2 C3 0.3(2) . . . . ?
S1 C1 C2 C3 -179.80(12) . . . . ?
F1 C2 C3 C4 179.40(13) . . . . ?
C1 C2 C3 C4 -0.9(2) . . . . ?
C2 C3 C4 C5 0.7(2) . . . . ?
C2 C3 C4 C7 -178.14(14) . . . . ?
C3 C4 C5 F2 179.68(13) . . . . ?
C7 C4 C5 F2 -1.5(2) . . . . ?
C3 C4 C5 C6 0.1(2) . . . . ?
C7 C4 C5 C6 178.92(14) . . . . ?
F2 C5 C6 C1 179.69(13) . . . . ?
C4 C5 C6 C1 -0.7(2) . . . . ?
C2 C1 C6 C5 0.5(2) . . . . ?
S1 C1 C6 C5 -179.42(11) . . . . ?
