#------------------------------------------------------------------------------
#$Date: 2020-03-07 00:42:48 +0200 (Sat, 07 Mar 2020) $
#$Revision: 249127 $
#$URL: file:///home/coder/svn-repositories/cod/cif/4/51/74/4517463.cif $
#------------------------------------------------------------------------------
#
# This file is available in the Crystallography Open Database (COD),
# http://www.crystallography.net/
#
# All data on this site have been placed in the public domain by the
# contributors.
#
data_4517463
loop_
_publ_author_name
'Parr, Brendan T.'
'Pastor, Richard'
'Sellers, Benjamin D.'
'Pei, Zhonghua'
'Jaipuri, Firoz A.'
'Castanedo, Georgette M.'
'Gazzard, Lewis'
'Kumar, Sanjeev'
'Li, Xiaokai'
'Liu, Wen'
'Mendonca, Rohan'
'Pavana, Roheeth K.'
'Potturi, Hima'
'Shao, Cheng'
'Velvadapu, Venkata'
'Waldo, Jesse P.'
'Wu, Guosheng'
'Yuen, Po-wai'
'Zhang, Zuhui'
'Zhang, Yamin'
'Harris, Seth F.'
'Oh, Angela J.'
'DiPasquale, Antonio'
'Dement, Kevin'
'La, Hank'
'Goon, Leanne'
'Gustafson, Amy'
'VanderPorten, Erica C.'
'Mautino, Mario R.'
'Liu, Yichin'
_publ_section_title
;
 Implementation of the CYP Index for the Design of Selective
 Tryptophan-2,3-dioxygenase Inhibitors
;
_journal_name_full               'ACS Medicinal Chemistry Letters'
_journal_paper_doi               10.1021/acsmedchemlett.0c00004
_journal_year                    2020
_chemical_absolute_configuration ad
_chemical_formula_sum            'C15 H16 N2 O2'
_chemical_formula_weight         256.30
_chemical_name_common            ent-14
_chemical_name_systematic        ent-14
_space_group.centring_type       primitive
_space_group_crystal_system      monoclinic
_space_group_IT_number           4
_space_group_name_Hall           'P 2yb'
_space_group_name_H-M_alt        'P 1 21 1'
_atom_sites_solution_hydrogens   geom
_atom_sites_solution_primary     iterative
_atom_sites_solution_secondary   difmap
_audit_creation_method           SHELXL-2014/7
_cell_angle_alpha                90
_cell_angle_beta                 111.475(6)
_cell_angle_gamma                90
_cell_formula_units_Z            2
_cell_length_a                   9.9840(9)
_cell_length_b                   5.4028(3)
_cell_length_c                   12.6101(10)
_cell_measurement_reflns_used    3895
_cell_measurement_temperature    100(2)
_cell_measurement_theta_max      68.38
_cell_measurement_theta_min      3.77
_cell_volume                     632.99(9)
_computing_cell_refinement       'Bruker SAINT'
_computing_data_collection       'Bruker APEX2'
_computing_data_reduction        'Bruker SAINT'
_computing_molecular_graphics    ORTEP-32
_computing_publication_material  WinGX
_computing_structure_refinement  SHELXL-2014
_computing_structure_solution    SHELXT-2014
_diffrn_ambient_temperature      100(2)
_diffrn_detector_area_resol_mean 8.366
_diffrn_measured_fraction_theta_full 0.983
_diffrn_measured_fraction_theta_max 0.981
_diffrn_measurement_device_type  'Bruker APEX-II CCD'
_diffrn_measurement_method       '\f and \w scans'
_diffrn_radiation_type           CuK\a
_diffrn_radiation_wavelength     1.54178
_diffrn_reflns_av_R_equivalents  0.0768
_diffrn_reflns_av_unetI/netI     0.0721
_diffrn_reflns_Laue_measured_fraction_full 0.983
_diffrn_reflns_Laue_measured_fraction_max 0.981
_diffrn_refln_scan_rate          4
_diffrn_refln_scan_width         2.0
_diffrn_reflns_limit_h_max       11
_diffrn_reflns_limit_h_min       -12
_diffrn_reflns_limit_k_max       6
_diffrn_reflns_limit_k_min       -5
_diffrn_reflns_limit_l_max       15
_diffrn_reflns_limit_l_min       -15
_diffrn_reflns_number            7624
_diffrn_reflns_point_group_measured_fraction_full 0.923
_diffrn_reflns_point_group_measured_fraction_max 0.921
_diffrn_reflns_theta_full        67.000
_diffrn_reflns_theta_max         68.373
_diffrn_reflns_theta_min         3.767
_diffrn_source                   'microfocus rotating anode'
_exptl_absorpt_coefficient_mu    0.731
_exptl_absorpt_correction_T_max  0.929
_exptl_absorpt_correction_T_min  0.753
_exptl_absorpt_correction_type   multi-scan
_exptl_absorpt_process_details   SADABS
_exptl_crystal_colour            colorless
_exptl_crystal_density_diffrn    1.345
_exptl_crystal_description       plate
_exptl_crystal_F_000             272
_exptl_crystal_size_max          0.080
_exptl_crystal_size_mid          0.050
_exptl_crystal_size_min          0.020
_refine_diff_density_max         0.245
_refine_diff_density_min         -0.208
_refine_diff_density_rms         0.045
_refine_ls_abs_structure_details
; 
 Flack x determined using 657 quotients [(I+)-(I-)]/[(I+)+(I-)] 
 (Parsons, Flack and Wagner, Acta Cryst. B69 (2013) 249-259). 
;
_refine_ls_abs_structure_Flack   0.1(3)
_refine_ls_extinction_method     none
_refine_ls_goodness_of_fit_ref   1.036
_refine_ls_hydrogen_treatment    constr
_refine_ls_matrix_type           full
_refine_ls_number_parameters     173
_refine_ls_number_reflns         2136
_refine_ls_number_restraints     1
_refine_ls_restrained_S_all      1.035
_refine_ls_R_factor_all          0.0490
_refine_ls_R_factor_gt           0.0417
_refine_ls_shift/su_max          0.000
_refine_ls_shift/su_mean         0.000
_refine_ls_structure_factor_coef Fsqd
_refine_ls_weighting_details
'w=1/[\s^2^(Fo^2^)+(0.0547P)^2^] where P=(Fo^2^+2Fc^2^)/3'
_refine_ls_weighting_scheme      calc
_refine_ls_wR_factor_gt          0.0984
_refine_ls_wR_factor_ref         0.1019
_reflns_Friedel_coverage         0.682
_reflns_Friedel_fraction_full    0.848
_reflns_Friedel_fraction_max     0.844
_reflns_number_gt                1894
_reflns_number_total             2136
_reflns_threshold_expression     'I > 2\s(I)'
_cod_data_source_file            ml0c00004_si_008.cif
_cod_data_source_block           ent14
_cod_original_sg_symbol_H-M      'P 21'
_cod_database_code               4517463
_shelx_shelxl_version_number     2014/7
_shelx_space_group_comment
; 
The symmetry employed for this shelxl refinement is uniquely defined 
by the following loop, which should always be used as a source of 
symmetry information in preference to the above space-group names. 
They are only intended as comments. 
;
_shelx_estimated_absorpt_t_min   0.944
_shelx_estimated_absorpt_t_max   0.986
_shelx_res_file
; 
  
    shelx.res created by SHELXL-2014/7 
  
TITL gene488_a.res in P2(1) 
CELL  1.54178   9.9840   5.4028  12.6101   90.000  111.475   90.000 
ZERR     2.00   0.0009   0.0003   0.0010    0.000    0.006    0.000 
LATT  -1 
SYMM  - X, 1/2 + Y, - Z 
SFAC  C    H    N    O 
UNIT  30 32 4 4 
MERG   2 
FMAP   2 
PLAN   20 
SIZE     0.020   0.050   0.080 
ACTA   134.00 
BOND   $H 
LIST   4 
WPDB  -2 
L.S.  10 
TEMP  -173.00 
WGHT    0.054700 
FVAR       0.36737 
C1    1    0.615554    0.404868    0.295420    11.00000    0.01300    0.01658 = 
         0.01501   -0.00060    0.00321   -0.00055 
AFIX  13 
H1    2    0.608092    0.231359    0.320314    11.00000   -1.20000 
AFIX   0 
C2    1    0.474984    0.539330    0.275496    11.00000    0.01718    0.01534 = 
         0.01745    0.00221    0.00915   -0.00030 
C3    1    0.340483    0.489057    0.194769    11.00000    0.01520    0.02155 = 
         0.01784    0.00059    0.00305   -0.00150 
AFIX  43 
H3    2    0.326575    0.353429    0.143899    11.00000   -1.20000 
AFIX   0 
C4    1    0.225546    0.642078    0.189678    11.00000    0.01544    0.02898 = 
         0.02214    0.00491    0.00613   -0.00176 
AFIX  43 
H4    2    0.132314    0.608927    0.135171    11.00000   -1.20000 
AFIX   0 
C5    1    0.245598    0.842682    0.263372    11.00000    0.02206    0.02892 = 
         0.02379    0.00937    0.01281    0.00814 
AFIX  43 
H5    2    0.166134    0.944809    0.258589    11.00000   -1.20000 
AFIX   0 
C6    1    0.380809    0.894248    0.343667    11.00000    0.02614    0.02002 = 
         0.02180    0.00111    0.01422    0.00270 
AFIX  43 
H6    2    0.394734    1.031414    0.393709    11.00000   -1.20000 
AFIX   0 
C7    1    0.495458    0.742113    0.349701    11.00000    0.01808    0.01589 = 
         0.01570    0.00272    0.00907   -0.00231 
C8    1    0.646571    0.743278    0.424346    11.00000    0.02156    0.01440 = 
         0.01787    0.00262    0.01106    0.00155 
C9    1    0.748008    0.842679    0.520671    11.00000    0.02202    0.01816 = 
         0.01794   -0.00423    0.00982   -0.00358 
AFIX  43 
H9    2    0.734227    0.981990    0.561508    11.00000   -1.20000 
AFIX   0 
C10   1    0.846956    0.530162    0.469603    11.00000    0.01765    0.02277 = 
         0.01772    0.00025    0.00679    0.00016 
AFIX  43 
H10   2    0.914438    0.407750    0.467884    11.00000   -1.20000 
AFIX   0 
C11   1    0.660629    0.399667    0.190504    11.00000    0.01721    0.01371 = 
         0.01484   -0.00276    0.00545    0.00014 
AFIX  13 
H11   2    0.602736    0.267487    0.138197    11.00000   -1.20000 
AFIX   0 
C12   1    0.819136    0.334101    0.221631    11.00000    0.01576    0.01454 = 
         0.01569   -0.00024    0.00384   -0.00040 
AFIX  13 
H12   2    0.878951    0.468579    0.271011    11.00000   -1.20000 
AFIX   0 
C13   1    0.852526    0.320064    0.113087    11.00000    0.01924    0.01871 = 
         0.02032    0.00151    0.00705    0.00401 
AFIX  23 
H13A  2    0.796413    0.184559    0.063903    11.00000   -1.20000 
H13B  2    0.956114    0.284998    0.132489    11.00000   -1.20000 
AFIX   0 
C14   1    0.813485    0.566445    0.049830    11.00000    0.02150    0.02607 = 
         0.02401    0.00667    0.01135    0.00560 
AFIX  23 
H14A  2    0.873048    0.700183    0.097988    11.00000   -1.20000 
H14B  2    0.834111    0.558098   -0.021132    11.00000   -1.20000 
AFIX   0 
C15   1    0.630577    0.642942    0.123220    11.00000    0.01932    0.02038 = 
         0.02031    0.00252    0.00794    0.00360 
AFIX  23 
H15A  2    0.527694    0.686933    0.101288    11.00000   -1.20000 
H15B  2    0.688700    0.777253    0.171976    11.00000   -1.20000 
AFIX   0 
N1    3    0.873678    0.706159    0.548382    11.00000    0.01515    0.02712 = 
         0.01663   -0.00237    0.00412   -0.00341 
N2    3    0.712811    0.547832    0.393135    11.00000    0.01727    0.01578 = 
         0.01532   -0.00205    0.00609    0.00017 
O1    4    0.665105    0.621057    0.022696    11.00000    0.02143    0.03068 = 
         0.01865    0.00593    0.00902    0.00657 
O2    4    0.851313    0.108223    0.283628    11.00000    0.02004    0.01816 = 
         0.01968    0.00303    0.00412    0.00245 
AFIX 147 
H2    2    0.934368    0.116020    0.333808    11.00000   -1.50000 
AFIX   0 
HKLF    4 
  
REM  gene488_a.res in P2(1) 
REM R1 =  0.0417 for    1894 Fo > 4sig(Fo)  and  0.0490 for all    2136 data 
REM    173 parameters refined using      1 restraints 
  
END 
  
WGHT      0.0547      0.0000 
  
REM Highest difference peak  0.245,  deepest hole -0.208,  1-sigma level  0.045 
Q1    1   0.7406  0.3730  0.2065  11.00000  0.05    0.25 
Q2    1   0.4191  0.5123  0.2376  11.00000  0.05    0.20 
Q3    1   0.5412  0.4540  0.2723  11.00000  0.05    0.19 
Q4    1   0.9374  0.7241  0.6102  11.00000  0.05    0.18 
Q5    1   0.3201  0.8990  0.2800  11.00000  0.05    0.17 
Q6    1   0.4572  0.8557  0.3390  11.00000  0.05    0.17 
Q7    1   0.2941  0.8051  0.3188  11.00000  0.05    0.16 
Q8    1   0.5795  0.8014  0.3817  11.00000  0.05    0.16 
Q9    1   0.4943  0.6189  0.0689  11.00000  0.05    0.16 
Q10   1   0.8302  0.3232  0.1657  11.00000  0.05    0.16 
Q11   1   1.0676  0.2159  0.2969  11.00000  0.05    0.15 
Q12   1   0.6663  0.5774  0.4166  11.00000  0.05    0.15 
Q13   1   0.8510  0.4652  0.3187  11.00000  0.05    0.15 
Q14   1   0.7768  0.4728  0.4351  11.00000  0.05    0.14 
Q15   1   1.0305  0.4299  0.5562  11.00000  0.05    0.13 
Q16   1   0.5818  0.8186  0.3022  11.00000  0.05    0.13 
Q17   1   1.0192 -0.1029  0.3801  11.00000  0.05    0.12 
Q18   1   0.7036  0.8821  0.4407  11.00000  0.05    0.12 
Q19   1   0.0456  0.7038  0.2585  11.00000  0.05    0.12 
Q20   1   1.0176  0.4123  0.2772  11.00000  0.05    0.12 
;
_shelx_res_checksum              43025
_shelx_hkl_file
; 
  -1   0   0  103.59    7.62 
  -1   0   0  113.71    7.99 
  -2   0   0  442.73   31.20 
   2   0   0  482.69   30.93 
  -2   0   0  423.33   31.79 
   3   0   0   16.66    1.32 
   4   0   0  182.96   12.13 
  -4   0   0  162.86   12.33 
   4   0   0  155.49   12.25 
  -5   0   0    2.98    2.11 
   5   0   0    2.55    1.55 
   5   0   0    0.94    1.30 
   5   0   0    1.34    1.18 
  -6   0   0   99.38   10.00 
   6   0   0  144.32    9.05 
   6   0   0  143.79   10.01 
   6   0   0  114.96   10.02 
   7   0   0    6.02    1.09 
   7   0   0    6.92    2.43 
  -7   0   0    6.00    2.78 
   7   0   0    3.49    2.33 
   7   0   0    9.48    3.46 
   8   0   0   37.05    2.91 
   8   0   0   22.08    5.81 
  -9   0   0    2.85    0.99 
   9   0   0    4.18    1.03 
  -9   0   0    4.25    1.00 
  -9   0   0    3.73    0.70 
  -9   0   0    3.79    1.05 
  -9   0   0    2.76    0.87 
   9   0   0    3.85    1.09 
  10   0   0   18.66    1.69 
 -10   0   0   21.72    1.77 
 -10   0   0   19.21    1.72 
 -10   0   0   19.03    1.95 
 -11   0   0    0.19    0.28 
 -11   0   0    0.55    0.34 
 -11   0   0   -0.01    0.43 
  11   0   0    0.70    0.35 
   0  -1   0   -0.04    0.35 
   0   1   0    0.03    0.14 
  -1  -1   0  266.33   17.44 
   1  -1   0  244.01   17.37 
   1  -1   0  259.50   17.55 
   1  -1   0  238.04   17.49 
   1  -1   0  261.53   17.95 
   1   1   0  246.83   17.41 
   2  -1   0   73.75    5.19 
   2  -1   0   69.71    6.31 
  -2  -1   0   71.55    6.10 
   2  -1   0   79.66    5.49 
  -2  -1   0   68.11    5.40 
   2  -1   0   71.31    5.10 
  -2  -1   0   75.69    5.40 
   2  -1   0   70.97    5.55 
   2   1   0   75.48    5.21 
   2   1   0   81.17    5.24 
  -3  -1   0    9.07    2.31 
  -3  -1   0   10.77    1.29 
   3  -1   0   10.79    0.79 
   3  -1   0   10.24    0.94 
   3   1   0    9.69    1.24 
  -3   1   0   11.84    1.72 
   4  -1   0   87.88    5.37 
   4  -1   0   65.49    6.03 
   4   1   0   70.56    5.58 
  -4   1   0   69.34    5.87 
   5  -1   0   57.54    5.50 
   5  -1   0   59.38    4.57 
   5  -1   0   60.64    4.66 
   5   1   0   56.48    4.89 
   5   1   0   60.74    5.29 
   5   1   0   71.58    5.32 
  -5   1   0   71.08    5.46 
   6  -1   0   11.06    2.75 
  -6   1   0    8.73    2.26 
   6   1   0    8.89    2.31 
   6   1   0   17.39    3.33 
   6   1   0   10.93    2.18 
   6   1   0   11.35    1.13 
  -6   1   0   11.17    1.08 
   7  -1   0    1.14    1.80 
   7  -1   0    0.01    1.70 
   7   1   0    1.13    1.51 
  -7   1   0   -0.13    0.46 
   7   1   0   -0.03    2.08 
   7   1   0    0.37    0.67 
  -7   1   0   -1.05    2.08 
   8  -1   0   11.58    1.80 
   8   1   0   10.24    1.33 
  -8   1   0   11.02    1.24 
   9  -1   0    1.12    0.54 
   9  -1   0    0.82    0.76 
  -9  -1   0    0.28    1.25 
   9  -1   0    1.55    0.55 
  -9  -1   0    1.76    0.91 
  -9   1   0    1.15    0.71 
   9   1   0    3.53    0.87 
  -9   1   0    0.51    0.44 
  -9   1   0    1.42    0.67 
   9   1   0    0.37    0.67 
  -9   1   0    0.68    1.11 
  -9   1   0    1.37    0.57 
  10  -1   0    6.30    1.10 
 -10  -1   0    5.21    1.12 
 -10  -1   0    4.81    0.89 
 -10   1   0    5.96    0.84 
  10   1   0    4.67    0.79 
 -10   1   0    6.02    1.11 
 -11  -1   0    0.63    0.59 
 -11  -1   0    0.21    0.31 
  11  -1   0    0.78    0.34 
 -11  -1   0    0.30    0.28 
 -11   1   0    0.54    0.41 
  11   1   0    0.44    0.24 
   0  -2   0   22.48    2.54 
   1  -2   0   11.24    0.79 
   1  -2   0    9.41    0.95 
   1  -2   0    9.47    0.70 
  -1  -2   0    9.57    0.79 
   1  -2   0    9.84    1.03 
   1   2   0   10.86    0.92 
  -2  -2   0    5.08    0.48 
   2  -2   0    5.34    0.41 
  -2  -2   0    6.26    0.72 
   2  -2   0    3.83    0.54 
  -2  -2   0    4.68    0.69 
   2  -2   0    4.78    0.81 
   2   2   0    6.03    0.63 
   3  -2   0   32.54    2.40 
   3  -2   0   26.10    2.00 
   3  -2   0   26.37    2.16 
   3  -2   0   30.20    2.27 
  -3  -2   0   28.67    2.56 
   3   2   0   30.71    2.34 
   3   2   0   28.34    2.21 
   3   2   0   28.31    1.98 
  -3   2   0   24.21    2.03 
   4  -2   0    2.97    1.09 
   4  -2   0    2.71    0.53 
   4  -2   0    3.58    0.79 
   4  -2   0    2.22    0.79 
   4   2   0    3.03    0.64 
   4   2   0    4.65    1.58 
   4   2   0    2.36    0.29 
   5  -2   0   12.22    1.28 
   5  -2   0   12.97    1.76 
   5   2   0   12.54    0.94 
   5   2   0   13.04    1.11 
  -5   2   0   11.93    1.10 
   5   2   0    7.88    2.22 
   6  -2   0   19.19    2.19 
   6  -2   0   22.41    3.17 
  -6   2   0   17.47    1.62 
   6   2   0   18.36    1.58 
   6   2   0   27.86    3.28 
   7  -2   0    2.76    2.18 
   7   2   0    3.22    0.71 
  -7   2   0    2.52    0.69 
   8  -2   0    9.75    2.55 
   8  -2   0    7.06    1.65 
   8  -2   0   10.99    2.88 
   8   2   0   10.55    1.00 
  -8   2   0   10.10    1.96 
  -8   2   0    9.46    1.05 
  -8   2   0    8.76    1.01 
  -8   2   0    8.72    1.13 
   9  -2   0    3.51    2.09 
   9  -2   0    2.04    1.05 
  -9  -2   0    1.82    1.27 
  -9   2   0    3.03    1.14 
  -9   2   0    5.31    1.56 
  -9   2   0    3.92    1.30 
   9   2   0    3.79    0.61 
  -9   2   0    1.75    0.48 
  -9   2   0    1.39    0.58 
  10  -2   0    0.13    0.28 
  10  -2   0    0.59    0.59 
 -10  -2   0    0.67    0.94 
 -10   2   0    0.30    0.83 
  10   2   0   -0.43    0.31 
 -10   2   0    0.47    0.35 
   0  -3   0    0.09    0.13 
   0   3   0   -0.98    0.74 
   1  -3   0   18.87    1.29 
   1  -3   0   16.99    1.63 
   1  -3   0   17.13    1.69 
  -1   3   0   19.23    2.11 
   1   3   0   20.58    2.06 
   2  -3   0   20.58    1.48 
   2  -3   0   16.21    1.52 
  -2  -3   0   19.93    1.40 
   2  -3   0   20.90    1.35 
  -2  -3   0   21.14    1.66 
   2  -3   0   17.71    1.90 
  -2   3   0   19.09    1.29 
  -2   3   0   16.69    1.29 
   2   3   0   17.08    2.08 
   3  -3   0   56.80    4.23 
   3  -3   0   44.33    3.90 
   3  -3   0   57.07    4.06 
   3  -3   0   47.31    4.07 
   3  -3   0   55.01    3.77 
  -3   3   0   58.65    3.72 
   4  -3   0    1.14    1.19 
   4  -3   0    3.34    1.09 
   4  -3   0    3.94    0.91 
   4   3   0    3.62    0.86 
  -4   3   0    2.80    0.33 
   5  -3   0   28.27    2.69 
   5  -3   0   23.34    3.95 
   5  -3   0   31.37    2.89 
  -5   3   0   27.79    2.02 
   5   3   0   28.71    1.95 
   5   3   0   27.49    1.97 
   6  -3   0   -0.16    2.25 
   6  -3   0    0.37    1.54 
   7  -3   0    6.91    2.65 
   7  -3   0    9.14    2.04 
   7  -3   0    6.93    2.92 
  -7   3   0    8.17    0.87 
   7   3   0    7.70    0.67 
   7   3   0    7.06    0.90 
   7   3   0    8.31    0.59 
  -7   3   0    6.61    1.75 
  -7   3   0    5.37    1.17 
   8  -3   0    6.62    1.68 
   8  -3   0   12.35    3.03 
   8  -3   0    8.57    2.54 
  -8   3   0    7.86    1.81 
   8   3   0    9.71    0.99 
   8   3   0    8.93    0.76 
  -8   3   0   10.78    0.96 
   9  -3   0   14.30    2.25 
  -9  -3   0   17.52    2.18 
   9  -3   0   10.51    1.75 
  -9   3   0   12.19    1.11 
  -9   3   0   11.95    1.69 
  -9   3   0   11.94    1.94 
   9   3   0   14.23    1.01 
   0   4   0   37.94    3.59 
   1   4   0    2.93    1.27 
   2  -4   0   43.46    3.21 
   2  -4   0   37.23    2.97 
   2   4   0   34.08    3.68 
   2   4   0   38.36    2.72 
   3  -4   0   28.12    2.53 
   3  -4   0   29.64    2.72 
   3   4   0   30.40    2.21 
   4  -4   0   14.69    1.93 
   4  -4   0   18.21    1.92 
   4  -4   0   15.69    2.09 
   4   4   0   17.65    1.49 
   5  -4   0   10.65    1.91 
   5  -4   0    9.16    2.98 
  -5   4   0   12.74    1.14 
  -5   4   0   12.93    0.96 
   5   4   0   13.14    1.33 
   5   4   0   12.70    1.04 
   5   4   0   12.55    0.92 
  -5   4   0   12.71    0.97 
   6  -4   0    6.07    2.60 
   6   4   0    4.99    1.02 
  -6   4   0    3.99    0.45 
  -6   4   0    3.11    0.70 
   6   4   0    4.18    0.38 
   6   4   0    4.93    0.56 
   7  -4   0    9.95    3.05 
   7  -4   0    9.80    2.49 
   7  -4   0    6.80    1.46 
  -7   4   0    9.09    0.93 
  -7   4   0    9.72    1.58 
   7   4   0    8.25    0.79 
   7   4   0    8.68    0.66 
  -7   4   0    8.83    0.72 
   8  -4   0    4.83    1.17 
   8  -4   0    2.14    1.29 
  -8   4   0    4.43    0.61 
  -8   4   0    2.73    1.20 
  -8   4   0    4.94    1.36 
   8   4   0    4.69    0.35 
  -8   4   0    3.99    0.42 
   8   4   0    4.65    0.51 
   0   5   0   -0.30    0.42 
  -1   5   0   18.46    1.59 
  -2   5   0   79.15    5.44 
  -3   5   0    4.19    0.35 
  -4   5   0   10.08    0.76 
  -4   5   0   10.12    0.73 
  -4   5   0   10.67    0.89 
  -5   5   0    5.13    0.42 
  -5   5   0    4.60    0.59 
  -5   5   0    4.93    0.41 
  -6   5   0   13.46    1.06 
  -6   5   0   13.12    0.93 
  -6   5   0   12.62    0.94 
   7  -5   0   -0.32    1.02 
  -7   5   0    0.40    0.10 
  -7   5   0    0.18    0.19 
  -2   6   0    5.01    0.37 
  -2   6   0    5.33    0.38 
  -3   6   0    2.71    0.23 
  -4   6   0    3.82    0.30 
 -11   0   1    2.88    0.71 
 -11   0   1    3.55    0.59 
  11   0  -1    2.94    0.64 
 -11   0   1    1.23    0.59 
 -10   0   1    3.46    1.08 
 -10   0   1    3.99    0.52 
 -10   0   1    4.83    0.96 
 -10   0   1    4.16    0.54 
 -10   0   1    4.93    0.85 
  10   0  -1    4.30    0.89 
  -9   0   1   17.68    1.95 
   9   0  -1   17.57    1.90 
  -9   0   1   17.60    1.71 
  -9   0   1   18.69    1.82 
   9   0  -1   19.82    1.83 
   8   0  -1  136.10   10.22 
   8   0  -1  122.68   10.33 
   8   0  -1  111.91    8.77 
   7   0  -1   56.77    3.89 
   7   0  -1   52.58    5.20 
   7   0  -1   41.26    4.89 
  -7   0   1   44.67    5.28 
   7   0  -1   48.81    5.14 
  -6   0   1   21.36    3.30 
   6   0  -1   24.87    3.23 
   6   0  -1   22.75    2.98 
   6   0  -1   22.46    2.68 
  -5   0   1  262.33   20.24 
   5   0  -1  297.83   20.30 
   4   0  -1    6.68    0.83 
   4   0  -1    6.23    1.55 
  -4   0   1    7.14    2.13 
  -3   0   1    7.01    2.40 
   3   0  -1    8.23    0.77 
   2   0  -1   34.89    3.62 
  -2   0   1   37.77    2.91 
  -2   0   1   37.15    3.66 
   2   0  -1   37.41    2.64 
   0   0  -1   34.86    2.69 
   0   0   1   35.42    2.51 
   1   0   1   88.18    6.45 
  -1   0  -1   93.70    6.51 
   2   0   1    1.31    0.33 
   2   0   1    1.28    0.89 
  -2   0  -1    1.09    0.46 
   3   0   1   74.70    5.88 
  -3   0  -1   79.27    6.12 
   3   0   1   65.22    5.96 
   3   0   1   82.80    5.88 
   3   0   1   80.72    5.44 
   4   0   1    3.52    1.50 
   4   0   1    7.98    1.79 
  -4   0  -1    3.72    2.02 
   4   0   1    4.83    1.48 
   5   0   1   40.67    4.11 
   5   0   1   40.52    3.78 
  -5   0  -1   37.90    4.19 
  -6   0  -1   17.80    3.27 
   6   0   1   16.95    2.94 
   6   0   1   21.02    3.14 
   6   0   1   19.48    1.77 
  -7   0  -1    2.06    2.70 
   7   0   1    2.23    2.02 
   7   0   1    2.82    2.15 
   7   0   1    1.67    0.80 
  -8   0  -1    0.48    0.94 
   8   0   1   -0.64    0.75 
   8   0   1   -0.77    0.69 
  -9   0  -1    2.54    0.59 
  -9   0  -1    3.88    1.18 
   9   0   1    1.67    0.64 
  -9   0  -1    1.60    0.62 
  -9   0  -1    2.46    0.82 
  -9   0  -1    3.00    0.58 
   9   0   1    2.23    0.82 
 -10   0  -1    4.75    1.05 
 -10   0  -1    4.31    0.73 
  10   0   1    4.64    0.80 
 -10   0  -1    6.08    0.91 
  10   0   1    6.39    0.87 
 -11  -1   1    0.40    0.46 
 -11  -1   1    0.13    0.33 
 -11  -1   1    0.38    0.18 
 -11  -1   1    0.39    0.36 
 -11   1   1    0.42    0.49 
  11   1  -1    0.34    0.31 
 -11   1   1    0.40    0.29 
 -10  -1   1    0.00    0.48 
 -10  -1   1    0.24    0.64 
  10  -1  -1    0.05    0.64 
  10   1  -1    0.48    0.43 
 -10   1   1   -0.06    0.39 
 -10   1   1   -0.38    0.38 
 -10   1   1    0.11    0.61 
  -9  -1   1    1.82    1.53 
  -9  -1   1    1.92    0.90 
   9  -1  -1    2.52    0.86 
   9  -1  -1    2.37    0.73 
   9  -1  -1    1.25    0.79 
  -9   1   1    2.73    0.94 
  -9   1   1    0.69    1.21 
  -9   1   1    1.75    0.57 
   9   1  -1    0.81    0.68 
   9   1  -1    3.33    0.90 
  -9   1   1    2.02    0.70 
  -9   1   1    2.38    0.73 
   8  -1  -1    8.23    1.76 
   8  -1  -1   12.68    3.25 
   8   1  -1   13.75    3.08 
   8   1  -1   11.55    1.37 
  -8   1   1   11.75    1.26 
   7  -1  -1    5.73    2.38 
   7   1  -1    4.37    2.17 
   7   1  -1    5.25    0.86 
   7   1  -1    6.30    2.07 
   7   1  -1    8.60    2.64 
  -7   1   1    3.01    2.05 
  -7   1   1    5.77    0.90 
   6  -1  -1   35.39    3.81 
  -6   1   1   27.77    3.50 
   6   1  -1   36.69    3.62 
   6   1  -1   30.69    2.54 
  -6   1   1   34.24    2.54 
   5  -1  -1    9.35    2.01 
   5  -1  -1   11.29    1.13 
   5  -1  -1   15.55    1.52 
   5   1  -1   12.37    1.90 
  -5   1   1    9.88    2.19 
   5   1  -1   10.09    1.73 
   4  -1  -1   81.74    6.86 
   4  -1  -1   78.67    6.26 
  -4   1   1   86.68    6.81 
   4   1  -1   95.29    6.83 
   4   1  -1   99.26    6.58 
  -3  -1   1   30.90    2.58 
   3  -1  -1   29.42    2.06 
   3  -1  -1   29.66    2.20 
  -3  -1   1   32.27    3.56 
   3   1  -1   26.55    2.40 
  -3   1   1   26.74    2.67 
   2  -1  -1   71.00    4.78 
   2  -1  -1   72.63    4.68 
   2  -1  -1   67.34    5.01 
  -2  -1   1   65.58    4.93 
   2  -1  -1   80.58    5.94 
  -2  -1   1   62.95    5.56 
   2   1  -1   65.85    4.81 
   2   1  -1   59.67    4.80 
   1  -1  -1  337.51   21.56 
   1  -1  -1  321.40   22.24 
   1  -1  -1  325.89   21.43 
  -1  -1   1  285.33   21.49 
   1   1  -1  290.72   21.48 
   0  -1   1  265.03   18.86 
   0  -1  -1  293.08   19.60 
   0  -1   1  284.26   18.94 
   0  -1   1  266.49   18.87 
   0  -1  -1  263.26   18.81 
   0  -1   1  268.90   18.76 
   0   1  -1  273.56   18.83 
   1  -1   1  129.59    8.36 
  -1  -1  -1  132.37    8.27 
   1  -1   1  106.89    8.07 
  -1  -1  -1  105.99    8.22 
   1  -1   1  115.27    8.30 
   1   1   1  111.83    8.07 
  -2  -1  -1   64.70    4.76 
  -2  -1  -1   63.79    4.77 
   2  -1   1   62.61    4.46 
   2  -1   1   66.23    4.85 
   2   1   1   63.90    4.54 
   2   1   1   58.16    4.43 
   2   1   1   61.12    4.84 
  -2   1  -1   64.87    4.73 
   3  -1   1   19.78    2.84 
   3  -1   1   28.86    2.62 
   3  -1   1   30.05    2.11 
   3   1   1   27.62    2.18 
   3   1   1   23.61    2.56 
   3   1   1   21.43    2.77 
  -3   1  -1   36.24    2.80 
   3   1   1   29.61    2.35 
   4  -1   1   37.70    4.10 
   4  -1   1   39.99    3.68 
   4  -1   1   42.15    3.14 
  -4   1  -1   42.56    3.87 
   4   1   1   41.95    3.79 
   4   1   1   41.28    3.22 
   4   1   1   44.98    3.49 
   5  -1   1    1.36    1.42 
   5  -1   1    1.16    1.56 
   5  -1   1    1.61    0.49 
   5   1   1    1.46    0.88 
   5   1   1    0.89    1.55 
  -5   1  -1    2.21    1.83 
   5   1   1    1.39    1.18 
   6  -1   1   23.72    3.35 
   6  -1   1   18.96    3.52 
  -6   1  -1   24.45    3.18 
   6   1   1   22.14    1.93 
  -6   1  -1   23.06    1.85 
   6   1   1   22.86    3.08 
   6   1   1   22.72    3.05 
   7  -1   1   55.67    5.01 
   7  -1   1   47.69    5.61 
   7   1   1   57.07    5.51 
   7   1   1   56.62    4.08 
  -7   1  -1   52.05    3.98 
   7   1   1   47.05    5.22 
  -7   1  -1   53.55    5.06 
   8  -1   1   11.25    1.66 
  -8  -1  -1   14.11    1.69 
   8  -1   1    9.87    3.04 
   8   1   1   12.77    1.21 
  -8   1  -1   11.90    2.08 
   8   1   1    9.99    1.34 
   8   1   1    9.11    1.24 
  -8   1  -1   11.89    1.52 
  -8   1  -1   10.88    1.30 
  -8   1  -1   11.15    1.30 
  -9  -1  -1    6.84    1.30 
   9  -1   1    7.43    0.76 
  -9  -1  -1    5.91    1.87 
   9  -1   1    6.66    0.72 
   9  -1   1    6.88    1.33 
  -9   1  -1    6.40    1.22 
  -9   1  -1    7.51    1.04 
  -9   1  -1    5.67    0.99 
   9   1   1    7.92    0.97 
   9   1   1    5.75    1.03 
 -10  -1  -1    4.05    1.01 
 -10  -1  -1    5.33    0.81 
  10  -1   1    5.20    0.96 
 -10  -1  -1    4.54    0.64 
 -10  -1  -1    4.25    0.64 
  10   1   1    4.07    0.75 
 -10   1  -1    4.52    0.94 
 -10   1  -1    6.00    0.72 
 -10  -2   1    2.07    1.17 
  10  -2  -1    1.15    0.48 
  10  -2  -1    1.21    0.66 
  10  -2  -1    0.78    0.43 
 -10   2   1    0.33    0.49 
 -10   2   1    0.22    1.43 
  10   2  -1    0.45    0.26 
 -10   2   1    1.15    0.42 
 -10   2   1    1.24    0.92 
   9  -2  -1    2.82    2.05 
   9  -2  -1    7.96    3.03 
   9  -2  -1    5.93    1.62 
  -9  -2   1    8.73    2.05 
  -9   2   1    9.53    1.71 
  -9   2   1    8.21    1.08 
  -9   2   1   10.69    2.00 
  -9   2   1    9.85    1.36 
  -9   2   1    8.91    1.00 
   9   2  -1   10.08    0.93 
  -8  -2   1    3.28    1.54 
   8  -2  -1    3.06    1.17 
   8  -2  -1    0.61    2.18 
   8  -2  -1    3.97    1.89 
   8   2  -1    2.61    0.51 
  -8   2   1    2.96    0.74 
  -8   2   1    3.58    0.77 
  -8   2   1    2.76    0.98 
  -8   2   1    1.71    1.06 
  -8   2   1    3.05    0.76 
   7  -2  -1    7.40    2.53 
  -7   2   1    8.33    1.02 
   7   2  -1    7.79    0.89 
   7   2  -1    3.95    2.43 
   6  -2  -1    7.17    1.56 
   6  -2  -1    6.63    2.57 
  -6   2   1    3.54    0.72 
   6   2  -1    4.87    0.71 
   6   2  -1    4.14    0.61 
   6   2  -1    7.54    2.19 
   5  -2  -1   21.47    2.10 
   5  -2  -1   23.42    1.84 
  -5   2   1   19.15    1.63 
   5   2  -1   19.48    1.48 
   4  -2  -1    2.82    0.80 
   4  -2  -1    2.90    0.58 
   4  -2  -1    3.87    0.93 
   4  -2  -1    2.57    1.03 
   4   2  -1    2.39    0.50 
   4   2  -1    2.31    0.29 
   3  -2  -1   44.09    3.05 
   3  -2  -1   42.31    3.20 
  -3  -2   1   44.43    3.57 
   3  -2  -1   41.78    3.62 
   3  -2  -1   43.87    3.25 
   3   2  -1   41.41    3.02 
   3   2  -1   47.86    3.31 
   2  -2  -1   17.77    1.21 
  -2  -2   1   17.11    1.25 
   2  -2  -1   15.85    1.33 
   2  -2  -1   16.99    1.34 
  -2  -2   1   15.34    1.45 
   2  -2  -1   19.68    1.66 
   2   2  -1   17.66    1.43 
   1  -2  -1   49.09    4.91 
   1  -2  -1   56.84    3.90 
   1  -2  -1   52.31    4.48 
  -1  -2   1   49.78    3.78 
   1  -2  -1   49.30    3.72 
   1   2  -1   61.07    3.90 
   0  -2   1   34.34    2.29 
   0  -2  -1   32.42    2.35 
   0  -2  -1   31.86    3.54 
   0  -2   1   31.85    2.44 
   0  -2   1   32.52    2.46 
   0   2  -1   31.08    2.45 
  -1  -2  -1   16.10    1.28 
   1  -2   1   13.16    1.43 
  -1  -2  -1   14.84    1.26 
   1  -2   1   15.04    1.05 
   1  -2   1   14.52    1.40 
   1  -2   1   13.99    1.13 
   1   2   1   16.26    1.36 
   1   2   1   14.05    1.19 
  -2  -2  -1   31.15    2.65 
   2  -2   1   30.93    2.79 
   2  -2   1   35.41    2.56 
   2  -2   1   30.14    2.27 
  -2  -2  -1   30.69    2.67 
   2  -2   1   33.01    2.41 
   2   2   1   35.08    2.61 
   3  -2   1   23.29    2.42 
  -3  -2  -1   24.49    2.37 
   3  -2   1   23.39    2.15 
   3  -2   1   25.63    2.10 
   3  -2   1   27.67    1.99 
  -3   2  -1   26.12    1.75 
   3   2   1   26.56    2.13 
   3   2   1   22.99    2.43 
   3   2   1   21.93    1.73 
   4  -2   1    4.72    0.75 
   4  -2   1    4.98    1.99 
   4  -2   1    5.31    1.34 
   4  -2   1    5.25    1.13 
   4   2   1    4.81    1.69 
   4   2   1    5.90    0.85 
   4   2   1    5.61    0.47 
   5  -2   1    7.73    1.57 
   5  -2   1   11.18    2.45 
   5  -2   1    7.43    2.42 
   5  -2   1    6.10    0.94 
   5   2   1    8.72    1.90 
   5   2   1    6.52    0.85 
  -5   2  -1    8.61    0.84 
   5   2   1    7.77    0.64 
   6  -2   1    2.74    2.07 
   6  -2   1    4.95    2.35 
   6  -2   1    5.41    1.61 
   6   2   1    6.96    2.14 
  -6   2  -1    4.33    0.76 
   6   2   1    5.20    0.78 
   7  -2   1   62.31    5.42 
  -7   2  -1   56.27    4.25 
   7   2   1   55.47    4.19 
   8  -2   1   15.35    2.74 
   8  -2   1   13.46    3.14 
  -8  -2  -1   15.82    1.83 
  -8   2  -1   15.26    2.17 
  -8   2  -1   11.68    1.36 
  -8   2  -1   13.82    1.29 
   8   2   1   13.08    1.21 
  -8   2  -1   13.75    1.27 
   9  -2   1    2.96    1.10 
  -9  -2  -1    2.21    1.17 
   9  -2   1    5.77    1.09 
   9  -2   1    3.50    2.50 
  -9  -2  -1    4.32    1.14 
   9  -2   1    6.28    1.02 
   9   2   1    4.52    0.65 
  -9   2  -1    5.29    0.76 
  -9   2  -1    3.26    1.17 
  10  -2   1    1.32    0.54 
 -10  -2  -1    1.25    0.86 
 -10   2  -1    1.03    0.33 
 -10   2  -1    0.83    0.72 
  10  -3  -1    0.97    0.42 
 -10  -3   1    0.98    0.84 
 -10  -3   1    0.33    0.34 
  10  -3  -1    0.92    0.41 
  10   3  -1    0.47    0.13 
 -10   3   1    1.00    0.37 
  10   3  -1    0.17    0.23 
 -10   3   1    1.10    0.73 
   9  -3  -1    1.49    1.49 
  -9  -3   1    2.33    1.28 
   9  -3  -1    1.00    0.91 
  -9   3   1    1.58    1.03 
  -9   3   1    1.35    0.37 
  -9   3   1    1.22    0.92 
   9   3  -1    0.58    0.18 
   9   3  -1    1.02    0.35 
   8  -3  -1    2.06    2.02 
   8  -3  -1    6.33    1.71 
  -8  -3   1    8.00    1.96 
   8  -3  -1    6.98    2.49 
   8   3  -1    7.45    0.83 
   8   3  -1    5.33    0.58 
  -8   3   1    4.24    1.71 
  -8   3   1    6.16    0.82 
  -8   3   1   10.08    1.72 
   7  -3  -1    4.86    2.63 
   7  -3  -1   -0.02    1.55 
   7  -3  -1    1.64    2.13 
  -7   3   1    0.89    1.04 
   7   3  -1    1.07    0.46 
   7   3  -1    1.42    0.20 
   7   3  -1    0.98    0.24 
  -7   3   1    2.61    0.62 
   6  -3  -1    0.89    1.49 
   6  -3  -1   -2.44    2.52 
   6   3  -1    0.07    0.13 
  -6   3   1   -0.28    0.33 
   5  -3  -1   14.81    2.00 
   5  -3  -1   16.13    1.85 
   5   3  -1   15.87    1.08 
   5   3  -1   14.81    1.11 
  -5   3   1   15.30    1.16 
   4  -3  -1    6.07    0.57 
   4  -3  -1    5.03    1.28 
   4  -3  -1    6.60    0.90 
   4  -3  -1    6.50    1.15 
   4  -3  -1    5.96    1.08 
   4   3  -1    6.47    0.98 
  -4   3   1    5.88    0.51 
   3  -3  -1   14.00    1.38 
   3  -3  -1   18.39    1.59 
   3  -3  -1   16.09    1.23 
   3   3  -1   18.59    1.58 
  -3   3   1   16.71    1.18 
   2  -3  -1   11.58    1.16 
   2  -3  -1   13.36    0.93 
   2  -3  -1   13.25    1.10 
   2  -3  -1   12.28    1.43 
  -2  -3   1   11.59    1.16 
  -2  -3   1   13.03    0.96 
  -2   3   1   11.45    1.88 
   2   3  -1   13.22    1.71 
   2   3  -1   12.45    1.22 
  -1  -3   1   70.10    4.90 
   1  -3  -1   76.08    5.08 
  -1   3   1   68.61    5.28 
   1   3  -1   56.24    5.24 
   0  -3   1    4.11    0.60 
   0  -3   1    4.85    0.62 
   0  -3  -1    4.31    0.44 
   0  -3   1    3.52    0.30 
   0   3  -1    4.10    1.16 
   0   3   1    3.18    0.97 
   1  -3   1   30.04    1.98 
  -1  -3  -1   29.38    2.16 
  -1  -3  -1   27.81    2.16 
   1  -3   1   24.36    2.41 
   2  -3   1    1.57    0.54 
   2  -3   1    1.41    0.73 
   2  -3   1    1.34    0.37 
  -2   3  -1    2.04    0.19 
   2   3   1    2.63    0.93 
   3  -3   1   16.76    1.60 
   3  -3   1   13.61    1.70 
   3  -3   1   13.00    1.33 
   3  -3   1   15.95    1.65 
  -3   3  -1   15.76    1.11 
   4  -3   1   16.25    1.88 
   4  -3   1   16.28    2.06 
   4  -3   1   20.13    3.00 
   4  -3   1   18.38    1.89 
   4   3   1   15.34    1.54 
  -4   3  -1   15.62    1.20 
   5  -3   1   49.71    4.76 
   5  -3   1   44.57    4.06 
   5   3   1   49.66    3.29 
  -5   3  -1   45.29    3.35 
   6  -3   1   21.50    2.82 
   6  -3   1   28.03    3.97 
   6   3   1   28.68    1.90 
  -6   3  -1   25.59    2.31 
   7  -3   1   10.59    3.04 
   7  -3   1    3.67    2.38 
   7   3   1    5.05    0.54 
  -7   3  -1    5.70    0.69 
   7   3   1    5.14    0.79 
  -7   3  -1    5.09    1.74 
   8  -3   1    3.01    1.16 
   8  -3   1    3.94    1.90 
   8  -3   1    3.20    1.93 
   8   3   1    4.44    0.47 
   8   3   1    4.10    0.74 
  -8   3  -1    4.55    1.59 
  -8   3  -1    5.35    0.65 
   9  -3   1    4.60    1.25 
   9  -3   1    3.04    1.40 
  -9   3  -1    4.71    1.38 
  -9   3  -1    5.07    0.60 
   9   3   1    4.25    0.60 
   9   3   1    5.00    0.44 
  -9  -4   1    3.19    1.18 
   9  -4  -1    2.52    1.08 
  -9   4   1    4.68    1.84 
  -9   4   1    3.39    0.55 
  -9   4   1    2.55    0.38 
   9   4  -1    1.97    0.34 
   8  -4  -1    4.30    1.90 
  -8   4   1    5.38    1.38 
  -8   4   1    6.55    1.37 
  -8   4   1    6.31    0.73 
  -8   4   1    6.55    0.57 
   8   4  -1    6.13    0.49 
   8   4  -1    7.11    0.63 
   7  -4  -1   11.45    3.27 
   7  -4  -1   14.69    2.90 
   7  -4  -1    8.26    1.79 
  -7   4   1   16.16    1.14 
   7   4  -1   15.13    1.20 
  -7   4   1   14.94    1.31 
  -7   4   1   16.56    1.91 
   7   4  -1   15.85    1.09 
   6  -4  -1   21.64    2.53 
   6  -4  -1   21.93    3.74 
   6   4  -1   21.55    1.74 
   6   4  -1   24.01    1.64 
  -6   4   1   26.01    1.87 
   6   4  -1   21.71    2.03 
  -6   4   1   25.90    2.56 
  -6   4   1   22.74    1.68 
   5  -4  -1   15.55    2.18 
   5  -4  -1   15.94    2.20 
  -5   4   1   18.39    1.31 
   5   4  -1   18.54    1.66 
  -5   4   1   17.97    1.29 
  -5   4   1   16.40    1.46 
   5   4  -1   18.30    1.26 
   5   4  -1   17.17    1.36 
   4  -4  -1    8.16    1.38 
   4  -4  -1    5.16    1.17 
   4  -4  -1    4.02    1.48 
   4   4  -1    6.54    0.93 
   3  -4  -1    6.99    1.19 
   3  -4  -1    8.82    1.23 
   3   4  -1    8.14    0.87 
   2  -4  -1    7.42    0.63 
  -2  -4   1    7.69    0.83 
   2  -4  -1    7.77    0.96 
   2   4  -1    8.13    0.71 
   1  -4  -1   13.63    0.95 
   1   4  -1   12.76    0.95 
  -1   4   1   13.55    2.20 
   0  -4   1   27.12    2.08 
   0   4   1   26.89    3.08 
   1  -4   1   14.91    1.41 
   1   4   1   13.22    2.23 
   2  -4   1   28.85    2.33 
   2  -4   1   27.14    2.47 
   2   4   1   28.06    2.01 
   2   4   1   24.79    2.98 
   3  -4   1   21.12    2.02 
   3  -4   1   17.81    2.59 
   3  -4   1   19.94    2.11 
   3   4   1   19.85    1.60 
   4  -4   1   17.71    2.40 
   4  -4   1   20.22    2.25 
   4   4   1   23.04    1.80 
   5  -4   1   28.33    2.89 
   5  -4   1   26.59    4.20 
   5   4   1   26.42    1.93 
  -5   4  -1   27.99    1.98 
   5   4   1   26.51    2.04 
   5   4   1   27.45    2.27 
  -5   4  -1   30.81    2.14 
   6  -4   1    7.54    2.31 
   6  -4   1    3.43    2.19 
  -6   4  -1    7.68    0.65 
   6   4   1    9.30    1.14 
   6   4   1    7.24    0.58 
   6   4   1    7.09    0.73 
  -6   4  -1    7.93    0.88 
   7  -4   1    1.53    1.72 
   7   4   1    2.34    0.47 
  -7   4  -1    2.24    0.34 
  -7   4  -1    2.44    0.59 
   7   4   1    2.17    0.26 
  -8  -4  -1    5.30    1.33 
   8  -4   1    4.77    1.49 
   8  -4   1    4.48    1.63 
   8   4   1    5.41    0.40 
  -8   4  -1    5.14    1.33 
   8   4   1    5.79    0.53 
  -8   4  -1    4.88    0.46 
   7  -5  -1    0.56    0.95 
  -7   5   1    0.36    0.08 
  -7   5   1    0.47    0.22 
  -7   5   1    0.41    0.11 
  -6   5   1   16.85    1.40 
  -6   5   1   18.87    1.29 
  -6   5   1   18.73    1.30 
  -5   5   1    3.48    0.34 
  -5   5   1    3.29    0.31 
  -5   5   1    3.87    0.52 
  -4   5   1    5.23    0.44 
  -4   5   1    5.82    0.62 
  -3   5   1   29.56    2.22 
  -3   5   1   27.53    1.97 
  -2   5   1   15.18    1.38 
  -1   5   1    3.14    0.72 
   1   5  -1    3.16    0.24 
   0   5   1    6.88    0.89 
   0   5   1    7.36    0.52 
  -2   5  -1    1.42    0.17 
  -3   5  -1    6.50    0.49 
  -3   5  -1    6.20    0.63 
  -4   5  -1    8.92    0.83 
  -4   5  -1    8.99    0.68 
  -4   5  -1   10.17    0.70 
  -5   5  -1   27.30    1.82 
  -5   5  -1   24.63    1.92 
  -5   5  -1   25.84    1.83 
  -6   5  -1    7.25    0.67 
  -6   5  -1    6.64    0.53 
  -6   5  -1    7.93    0.55 
  -4   6   1    0.12    0.07 
  -3   6   1    1.09    0.13 
  -2   6  -1    7.71    0.56 
  -3   6  -1    7.36    0.54 
 -11   0   2    0.02    0.54 
  11   0  -2   -0.10    0.35 
  11   0  -2    0.29    0.35 
 -11   0   2   -0.31    0.33 
 -10   0   2    0.46    0.34 
 -10   0   2    0.50    0.48 
 -10   0   2    0.01    0.66 
  10   0  -2    0.65    0.70 
  10   0  -2    0.24    0.54 
 -10   0   2    0.73    0.55 
 -10   0   2    0.73    0.36 
  -9   0   2    0.03    0.51 
  -9   0   2    0.97    0.86 
   9   0  -2    0.54    0.66 
   9   0  -2   -0.28    0.79 
  -9   0   2    0.66    0.60 
   9   0  -2   -2.31    2.66 
   8   0  -2    0.99    2.43 
   8   0  -2    0.41    2.25 
   8   0  -2    0.65    1.88 
  -8   0   2   -0.67    2.49 
   8   0  -2    1.81    0.78 
   7   0  -2    7.80    1.05 
   7   0  -2    5.54    2.46 
  -7   0   2    7.48    3.03 
   7   0  -2    7.86    2.19 
   6   0  -2    2.27    1.42 
  -6   0   2    1.97    2.24 
  -5   0   2    1.46    1.88 
   5   0  -2    0.91    1.13 
   4   0  -2    6.29    0.66 
  -4   0   2    5.41    1.86 
   4   0  -2    4.37    1.37 
   3   0  -2   11.06    0.98 
   2   0  -2   29.78    3.40 
   2   0  -2   26.08    1.99 
   1   0  -2   21.51    1.59 
   0   0  -2   55.30    4.34 
   0   0   2   53.95    3.87 
   0   0  -2   56.27    4.07 
   0   0   2   54.99    3.99 
   1   0   2  131.57    8.24 
  -1   0  -2  107.69    8.49 
   1   0   2  115.27    8.41 
   2   0   2    4.84    0.55 
   2   0   2    3.71    1.06 
   2   0   2    4.36    1.32 
   3   0   2   68.06    4.76 
   3   0   2   49.72    4.88 
   3   0   2   58.29    4.75 
  -3   0  -2   58.33    5.05 
   4   0   2   28.46    2.94 
  -4   0  -2   26.73    3.40 
   4   0   2   29.25    3.11 
   4   0   2   31.86    3.37 
  -5   0  -2   26.62    3.39 
   5   0   2   20.61    3.23 
   5   0   2   19.21    2.58 
   5   0   2   24.22    2.93 
   6   0   2    0.69    2.07 
   6   0   2    2.69    1.97 
   6   0   2    2.35    0.86 
   6   0   2   -0.02    1.52 
  -6   0  -2   -1.86    2.13 
   7   0   2    2.74    1.96 
   7   0   2    8.73    1.18 
   8   0   2    2.90    0.80 
  -8   0  -2    2.51    0.70 
   8   0   2    2.81    0.97 
  -8   0  -2    3.12    0.98 
   9   0   2    6.14    1.07 
  -9   0  -2    6.87    0.71 
  -9   0  -2    6.92    0.73 
  -9   0  -2    6.96    1.30 
   9   0   2    7.90    1.28 
  -9   0  -2    7.93    1.10 
 -10   0  -2    0.88    0.59 
 -10   0  -2    3.45    0.69 
  10   0   2    2.75    0.68 
 -11  -1   2    3.02    0.44 
  11  -1  -2    3.07    0.78 
 -11  -1   2    3.27    0.49 
 -11  -1   2    2.47    0.62 
 -11  -1   2    2.25    0.76 
 -11   1   2    2.66    0.58 
 -11   1   2    2.69    0.81 
  11   1  -2    2.75    0.60 
 -10  -1   2    1.11    0.59 
 -10  -1   2    1.25    1.26 
  10  -1  -2    1.31    0.72 
 -10  -1   2    2.79    0.95 
  10   1  -2    1.37    0.50 
 -10   1   2    1.34    0.74 
 -10   1   2    1.05    0.47 
 -10   1   2    1.33    0.86 
 -10   1   2    0.53    0.47 
  -9  -1   2   38.41    3.12 
   9  -1  -2   29.14    3.05 
   9  -1  -2   33.18    2.97 
  -9  -1   2   36.90    3.76 
  -9   1   2   35.54    2.80 
   9   1  -2   33.10    2.70 
  -9   1   2   38.10    2.87 
  -9   1   2   34.86    3.06 
  -9   1   2   40.69    3.58 
   9   1  -2   34.05    2.75 
   9   1  -2   40.31    2.91 
  -9   1   2   33.11    2.86 
   8  -1  -2    0.35    1.69 
   8  -1  -2    1.45    1.01 
  -8   1   2    1.05    0.59 
   8   1  -2   -0.36    1.74 
   8   1  -2    2.56    2.67 
   8   1  -2    0.79    0.65 
   7  -1  -2    5.71    2.18 
   7  -1  -2    4.36    2.63 
  -7   1   2    5.21    0.82 
   7   1  -2    5.60    0.87 
   7   1  -2    7.93    2.40 
   7   1  -2    7.83    2.71 
  -7   1   2    4.92    2.15 
   6  -1  -2   10.16    2.31 
   6   1  -2    9.89    2.00 
  -6   1   2    7.89    2.17 
   6   1  -2   11.62    1.02 
   6   1  -2    4.55    1.68 
  -6   1   2    8.21    0.96 
   5  -1  -2    9.92    1.87 
   5  -1  -2    8.66    0.98 
   5  -1  -2    7.80    1.52 
  -5   1   2   11.47    2.14 
   5   1  -2   10.81    1.78 
   5   1  -2    8.03    1.50 
   4  -1  -2  144.33    9.32 
   4  -1  -2  117.37    8.72 
   4   1  -2  133.21    9.28 
  -4   1   2  101.25    9.09 
   3  -1  -2   14.78    1.16 
   3  -1  -2   12.76    0.98 
  -3   1   2   12.11    1.73 
   2  -1  -2   15.81    1.12 
  -2  -1   2   14.65    1.39 
   2  -1  -2   16.03    1.24 
   2  -1  -2   17.32    1.51 
   2   1  -2   15.03    1.27 
  -1  -1   2  801.08   60.33 
   1  -1  -2  882.55   61.41 
  -1  -1   2  841.65   60.49 
   1  -1  -2  885.07   60.53 
  -1  -1   2 1000.00   60.46 
   1  -1  -2  888.61   60.35 
   1   1  -2  859.51   60.38 
   0  -1  -2  112.01    8.32 
   0  -1  -2  133.02    9.28 
   0  -1   2  106.49    8.25 
   0  -1  -2  120.63    8.32 
   0  -1   2  108.33    8.34 
   0  -1   2  127.00    8.39 
   0  -1   2  119.17    8.11 
   0   1  -2  113.97    8.15 
  -1  -1  -2  290.84   22.60 
   1  -1   2  294.22   22.56 
   1  -1   2  371.37   22.97 
   1  -1   2  363.06   22.38 
   1  -1   2  342.37   22.73 
  -1  -1  -2  315.27   22.64 
   1   1   2  299.58   22.39 
  -2  -1  -2   59.69    4.18 
   2  -1   2   44.40    4.39 
   2  -1   2   52.55    3.74 
   2  -1   2   52.64    4.15 
   2   1   2   49.25    4.09 
   2   1   2   53.35    3.87 
  -2   1  -2   54.19    4.08 
   2   1   2   48.48    3.84 
   3  -1   2    3.75    1.67 
   3  -1   2    2.20    1.15 
   3  -1   2    2.42    0.50 
   3   1   2    3.83    0.95 
   3   1   2    3.51    1.23 
  -3   1  -2    5.26    1.48 
   3   1   2    3.91    0.66 
   3   1   2    3.65    1.45 
   4  -1   2   28.38    2.25 
   4  -1   2   19.78    1.87 
   4  -1   2   24.50    3.18 
   4  -1   2   19.55    2.62 
  -4   1  -2   22.40    2.73 
   4   1   2   21.38    2.61 
   4   1   2   25.19    2.30 
   4   1   2   24.33    2.06 
   4   1   2   23.42    2.66 
   5  -1   2   73.00    6.77 
   5   1   2   73.69    6.19 
  -5   1  -2   76.77    6.23 
   5   1   2   71.00    5.33 
   5   1   2   74.73    6.30 
  -5   1  -2   72.20    5.25 
   6  -1   2   45.57    5.15 
   6  -1   2   45.06    4.39 
  -6   1  -2   34.02    4.19 
  -6   1  -2   43.17    3.33 
   6   1   2   47.30    4.76 
   6   1   2   50.70    3.47 
   7  -1   2   47.64    5.71 
   7  -1   2   48.92    4.83 
  -7   1  -2   50.69    3.73 
   7   1   2   47.80    3.78 
   8  -1   2    3.15    0.81 
   8  -1   2    2.38    0.88 
   8  -1   2    0.85    2.12 
  -8  -1  -2    3.97    1.31 
   8  -1   2    2.60    0.83 
   8   1   2    3.09    0.87 
  -8   1  -2    5.02    1.82 
  -8   1  -2    3.56    0.90 
  -8   1  -2    3.38    0.86 
   8   1   2    2.15    0.60 
  -8   1  -2    1.98    0.87 
   9  -1   2    3.04    0.81 
  -9  -1  -2    2.63    0.94 
   9   1   2    3.60    0.77 
  -9   1  -2    2.51    0.79 
  -9   1  -2    2.89    0.99 
 -10  -1  -2    4.85    0.94 
 -10  -1  -2    6.38    0.58 
  10  -1   2    6.42    0.92 
 -10  -1  -2    6.55    0.57 
 -10  -1  -2    4.50    1.09 
 -10  -1  -2    5.51    0.75 
  10   1   2    5.62    0.71 
 -10   1  -2    5.57    0.85 
 -10   1  -2    6.12    0.69 
 -11  -2   2   -0.02    0.28 
  11  -2  -2    0.47    0.39 
 -11  -2   2    0.57    1.23 
 -11   2   2    0.07    0.40 
 -11   2   2    0.18    0.78 
 -11   2   2    0.27    0.27 
  10  -2  -2    5.03    1.44 
 -10  -2   2    3.09    0.75 
 -10  -2   2    3.69    1.67 
  10  -2  -2    3.84    0.78 
  10  -2  -2    3.15    0.78 
  10   2  -2    3.42    0.54 
 -10   2   2    6.17    1.61 
 -10   2   2    3.25    0.92 
 -10   2   2    2.76    1.03 
 -10   2   2    4.33    0.76 
 -10   2   2    3.82    0.66 
   9  -2  -2    5.14    2.11 
   9  -2  -2    3.19    1.21 
  -9  -2   2    3.78    1.64 
  -9   2   2    3.58    0.84 
  -9   2   2    3.27    1.06 
  -9   2   2    4.71    1.25 
  -9   2   2    2.76    0.78 
  -9   2   2    5.31    1.88 
  -9   2   2    3.21    0.77 
   9   2  -2    3.18    0.67 
   8  -2  -2    3.05    2.32 
  -8  -2   2    1.54    1.48 
   8  -2  -2   -0.60    1.00 
   8  -2  -2    0.98    2.00 
  -8   2   2    0.58    0.56 
  -8   2   2    0.38    0.88 
  -8   2   2    0.58    0.64 
  -8   2   2    1.87    1.12 
  -8   2   2    0.20    1.07 
  -8   2   2    0.74    0.57 
   8   2  -2    0.31    0.41 
   7  -2  -2    4.97    2.40 
   7  -2  -2    5.61    2.49 
  -7   2   2    6.27    0.89 
   7   2  -2    4.03    2.05 
   6  -2  -2   28.96    2.52 
  -6   2   2   25.50    2.08 
   6   2  -2   25.87    2.02 
   6   2  -2   22.89    3.61 
   5  -2  -2    6.41    0.88 
   5  -2  -2    8.93    1.34 
   5   2  -2    7.81    0.97 
   5   2  -2    6.52    0.58 
  -5   2   2    6.79    0.79 
   4  -2  -2   61.16    4.72 
   4  -2  -2   63.69    4.69 
   4  -2  -2   64.35    4.45 
   4  -2  -2   61.25    4.66 
   4   2  -2   68.26    4.76 
   4   2  -2   62.79    4.41 
   3  -2  -2   18.44    1.58 
  -3  -2   2   18.80    1.76 
   3  -2  -2   20.68    1.42 
   3  -2  -2   19.65    1.64 
   3  -2  -2   18.68    1.97 
   3   2  -2   21.21    1.69 
   3   2  -2   19.88    1.39 
   2  -2  -2    1.41    0.47 
  -2  -2   2    1.72    0.45 
   2  -2  -2    0.68    0.39 
   2  -2  -2    1.50    0.37 
  -2  -2   2    0.94    0.31 
   2   2  -2    0.97    0.33 
  -1  -2   2   80.64    6.24 
   1  -2  -2   79.78    6.04 
  -1  -2   2   87.07    6.31 
  -1  -2   2   88.19    6.01 
   1  -2  -2   86.61    6.27 
   1  -2  -2   84.00    7.60 
   1   2  -2  100.02    6.22 
   0  -2  -2   84.52    6.29 
   0  -2   2   97.83    6.31 
   0  -2  -2   95.07    8.00 
   0  -2   2   88.22    6.33 
   0  -2  -2   94.55    6.50 
   0  -2   2   84.58    6.57 
   0  -2   2   90.03    6.61 
   0   2   2   93.88    6.49 
   0   2  -2   85.99    6.43 
  -1  -2  -2   93.33    6.53 
   1  -2   2   89.79    6.65 
  -1  -2  -2   88.21    7.96 
  -1  -2  -2   82.57    6.49 
   1  -2   2   83.01    6.33 
   1  -2   2  100.13    6.25 
   1   2   2   84.61    6.41 
   1   2   2   88.75    6.48 
   2  -2   2   75.91    5.85 
   2  -2   2   70.78    6.58 
  -2  -2  -2   79.70    6.07 
   2  -2   2   86.18    5.69 
   2   2   2   81.11    5.98 
   2   2   2   80.79    5.50 
   2   2   2   78.96    5.93 
   2   2   2   82.04    5.89 
   3  -2   2   65.92    4.83 
   3  -2   2   60.71    4.96 
   3  -2   2   69.55    4.96 
   3  -2   2   52.29    5.71 
   3  -2   2   72.96    5.17 
   3   2   2   66.95    4.61 
   3   2   2   70.92    5.05 
   3   2   2   67.34    5.28 
   4  -2   2   17.58    1.74 
   4  -2   2   22.32    3.24 
   4  -2   2   22.18    2.22 
   4   2   2   20.50    1.95 
  -4   2  -2   20.35    1.63 
   4   2   2   24.45    2.56 
   4   2   2   21.13    1.50 
   5  -2   2   13.02    1.88 
   5  -2   2   10.89    2.87 
   5  -2   2   10.39    2.55 
   5   2   2   16.59    2.54 
  -5   2  -2   12.14    1.14 
   5   2   2   11.15    1.14 
   5   2   2   13.13    0.99 
   6  -2   2   24.21    3.30 
   6  -2   2   19.64    3.73 
   6   2   2   22.84    1.91 
   6   2   2   25.66    3.44 
  -6   2  -2   24.62    1.96 
   7  -2   2    3.96    2.34 
  -7  -2  -2    3.64    1.51 
   7  -2   2    3.10    2.26 
  -7   2  -2    4.00    0.77 
   7   2   2    2.88    0.68 
  -7   2  -2    4.37    0.83 
  -7   2  -2    2.48    1.06 
  -7   2  -2    5.04    0.78 
   7   2   2    3.98    0.81 
  -8  -2  -2   19.68    2.12 
   8  -2   2   20.70    3.36 
   8  -2   2   12.93    2.93 
  -8   2  -2   23.78    2.51 
  -8   2  -2   20.41    1.88 
  -8   2  -2   18.70    1.75 
   8   2   2   20.90    1.60 
  -8   2  -2   21.73    1.69 
   9  -2   2    6.54    0.83 
   9  -2   2    6.59    0.81 
  -9  -2  -2    6.85    1.18 
  -9  -2  -2    5.54    1.56 
   9  -2   2    3.85    1.23 
   9  -2   2    3.19    1.08 
  -9   2  -2    6.08    1.64 
   9   2   2    5.55    0.63 
  -9   2  -2    4.94    0.73 
  10  -3  -2    4.58    1.11 
 -10  -3   2    5.41    1.44 
  10  -3  -2    5.19    1.78 
 -10   3   2    5.80    0.56 
  10   3  -2    4.48    0.46 
 -10   3   2    5.79    1.35 
  10   3  -2    6.49    0.63 
   9  -3  -2    5.03    1.95 
   9  -3  -2    0.56    2.08 
  -9  -3   2    5.05    1.78 
   9  -3  -2    6.33    1.55 
   9   3  -2    3.01    0.39 
  -9   3   2    4.17    1.14 
   9   3  -2    3.43    0.60 
  -9   3   2    3.23    0.59 
  -9   3   2    4.10    1.22 
  -8  -3   2    2.27    1.37 
   8  -3  -2    3.48    2.03 
   8  -3  -2    4.66    2.39 
   8  -3  -2    2.63    1.19 
  -8   3   2    5.78    1.64 
   8   3  -2    3.91    0.45 
  -8   3   2    3.59    0.72 
  -8   3   2    3.37    1.25 
   8   3  -2    5.36    0.72 
   7  -3  -2    0.69    1.01 
   7  -3  -2    1.78    1.58 
   7  -3  -2    2.15    2.11 
   7  -3  -2    1.06    2.63 
   7   3  -2    2.01    0.47 
   7   3  -2    1.40    0.20 
   7   3  -2    0.71    0.23 
  -7   3   2    0.88    0.91 
  -7   3   2    1.65    0.52 
  -7   3   2    1.68    1.20 
  -7   3   2    1.34    0.59 
  -7   3   2    3.85    0.70 
   6  -3  -2    4.38    1.56 
  -6   3   2    3.99    0.46 
   6   3  -2    4.65    0.37 
   5  -3  -2    6.42    1.56 
   5  -3  -2    6.03    1.30 
  -5   3   2    6.67    0.56 
   5   3  -2    6.21    0.50 
   5   3  -2    6.49    0.47 
   4  -3  -2    5.21    1.30 
   4  -3  -2    5.62    0.50 
   4  -3  -2    4.96    1.04 
   4  -3  -2    4.93    0.77 
  -4   3   2    5.25    0.45 
   4   3  -2    6.40    0.97 
   4   3  -2    4.53    0.79 
   3  -3  -2   10.16    0.73 
   3  -3  -2    8.35    1.08 
  -3  -3   2    9.66    1.12 
   3  -3  -2    9.09    0.92 
   3   3  -2    8.24    1.01 
  -3   3   2    9.20    0.67 
  -3   3   2    7.93    1.62 
   2  -3  -2    1.84    0.63 
   2  -3  -2    1.59    0.50 
   2  -3  -2    2.24    0.24 
  -2  -3   2    2.43    0.41 
   2   3  -2    1.97    0.51 
  -2   3   2    2.06    1.00 
  -1  -3   2   52.59    4.50 
  -1  -3   2   68.13    4.29 
   1  -3  -2   63.30    4.55 
   1   3  -2   53.53    4.48 
  -1   3   2   62.33    4.75 
   0  -3  -2   80.54    6.03 
   0  -3  -2   87.33    6.13 
   0  -3   2   81.08    6.26 
   0  -3   2   81.89    5.94 
   0   3   2   88.48    6.32 
   1  -3   2   80.39    6.75 
  -1  -3  -2   88.26    6.52 
   1  -3   2   90.27    6.26 
   1  -3   2   83.67    6.42 
   1   3   2  100.93    6.75 
  -1   3  -2   89.20    6.09 
  -1   3  -2   89.36    6.09 
   2  -3   2   15.41    1.45 
   2  -3   2   18.48    1.74 
   2  -3   2   15.65    1.72 
  -2   3  -2   18.66    1.26 
   2   3   2   19.69    2.15 
   3  -3   2   23.56    2.26 
   3  -3   2   22.21    2.35 
   3  -3   2   25.76    2.40 
  -3   3  -2   25.48    1.79 
   3   3   2   26.77    2.05 
   4  -3   2   19.31    2.20 
   4  -3   2   16.95    2.64 
   4   3   2   14.77    1.06 
  -4   3  -2   17.00    1.15 
   4   3   2   14.84    1.06 
   5  -3   2   15.49    2.28 
   5  -3   2   14.87    2.95 
   5   3   2   17.38    1.21 
   6  -3   2    3.56    2.30 
   6  -3   2   10.01    2.71 
   6  -3   2    5.52    1.87 
   6   3   2    5.68    0.43 
   6   3   2    5.45    0.82 
  -6   3  -2    5.19    0.73 
   6   3   2    5.55    0.54 
  -6   3  -2    5.07    0.94 
  -6   3  -2    4.39    1.64 
   7  -3   2   17.59    3.34 
   7  -3   2   18.77    3.39 
  -7   3  -2   20.25    2.33 
   7   3   2   17.01    1.33 
  -7   3  -2   18.93    1.46 
   7   3   2   16.67    1.52 
   8  -3   2    1.96    1.65 
   8   3   2    2.08    0.32 
  -8   3  -2    1.04    0.89 
  -8   3  -2    2.44    0.53 
   8   3   2    2.30    0.60 
   9  -3   2    3.59    0.58 
   9  -3   2    3.73    0.64 
  -9  -3  -2    3.83    1.23 
   9   3   2    2.95    0.32 
  -9   3  -2    2.98    1.18 
   9   3   2    2.19    0.46 
  -9   3  -2    2.72    0.45 
   9  -4  -2    0.95    1.01 
  -9  -4   2    0.09    0.76 
  -9   4   2    0.62    0.64 
   9   4  -2    0.66    0.11 
  -9   4   2    0.40    0.15 
  -9   4   2    0.24    0.25 
   9   4  -2    0.24    0.18 
   8  -4  -2    1.17    0.86 
   8  -4  -2   -0.59    1.41 
  -8   4   2    0.23    0.91 
   8   4  -2    0.11    0.11 
   8   4  -2    0.29    0.24 
  -8   4   2    0.39    0.19 
  -8   4   2    0.48    0.33 
   7  -4  -2    2.53    2.49 
   7  -4  -2    5.04    2.26 
  -7   4   2    5.76    0.53 
   7   4  -2    5.60    0.46 
   7   4  -2    3.11    1.27 
   7   4  -2    5.96    0.61 
  -7   4   2    5.78    1.58 
  -7   4   2    4.92    0.73 
   6  -4  -2    7.81    1.75 
   6  -4  -2    2.53    2.89 
   6   4  -2    5.38    0.43 
  -6   4   2    5.16    0.84 
   6   4  -2    4.66    0.57 
   6   4  -2    5.46    1.10 
  -6   4   2    4.92    0.75 
  -6   4   2    3.93    0.49 
   5  -4  -2    2.18    1.05 
   5  -4  -2    2.02    1.38 
   5   4  -2    2.17    0.48 
   5   4  -2    2.25    0.67 
  -5   4   2    1.75    0.61 
   5   4  -2    1.82    0.26 
  -5   4   2    1.63    0.33 
  -5   4   2    1.93    0.44 
  -5   4   2    1.81    0.33 
   4  -4  -2    2.48    0.98 
   4  -4  -2    3.87    1.15 
   4  -4  -2    3.43    1.29 
   4   4  -2    3.33    0.83 
   3  -4  -2    9.62    1.24 
  -3  -4   2    9.55    1.23 
   3   4  -2   10.47    1.00 
  -2  -4   2   67.70    4.58 
   2  -4  -2   57.03    4.39 
   2  -4  -2   58.11    4.21 
  -2   4   2   58.25    5.16 
   2   4  -2   60.39    4.27 
  -1  -4   2   36.46    2.77 
   1  -4  -2   32.82    2.49 
  -1   4   2   41.75    3.57 
   0  -4   2   12.27    1.23 
   0   4   2   12.60    2.05 
   1  -4   2    2.93    0.73 
   1   4   2    1.95    0.47 
   1   4   2    2.73    1.20 
   2  -4   2    7.76    1.15 
   2   4   2    5.83    0.71 
   2   4   2    5.92    1.73 
   3  -4   2   13.75    1.77 
   3  -4   2   12.23    1.69 
   3  -4   2   15.28    1.96 
   3   4   2   13.90    1.26 
   4  -4   2   35.17    3.72 
   4  -4   2   36.46    3.32 
   4   4   2   33.90    2.46 
  -4   4  -2   33.67    2.48 
   4   4   2   34.26    2.55 
   4   4   2   38.88    2.76 
  -4   4  -2   37.35    2.50 
  -4   4  -2   33.83    2.60 
   4   4   2   36.44    2.74 
   5  -4   2   32.77    3.20 
  -5   4  -2   29.64    2.29 
   5   4   2   35.77    2.26 
   5   4   2   32.40    2.37 
   5   4   2   29.88    2.59 
  -5   4  -2   31.86    2.44 
   6  -4   2    1.08    1.92 
   6  -4   2    4.50    2.17 
   6   4   2    3.77    0.55 
  -6   4  -2    4.78    0.46 
   6   4   2    4.48    0.37 
  -6   4  -2    4.46    0.67 
   6   4   2    1.99    0.85 
   7  -4   2   -0.83    1.49 
  -7   4  -2    0.27    0.79 
  -7   4  -2    0.60    0.16 
  -7   4  -2    0.36    0.34 
   7   4   2    0.52    0.11 
   7   4   2    0.72    0.27 
  -8  -4  -2    1.31    0.92 
   8  -4   2    3.53    1.47 
   8   4   2    3.70    0.39 
  -8   4  -2    4.93    0.45 
  -8   4  -2    6.02    0.73 
  -8   4  -2    2.01    0.96 
   7  -5  -2   10.01    1.60 
  -7   5   2    8.89    0.81 
  -7   5   2   10.12    0.69 
  -7   5   2    9.55    0.71 
  -6   5   2    4.16    0.37 
  -6   5   2    4.19    0.35 
  -6   5   2    4.36    0.56 
  -5   5   2    1.73    0.25 
  -5   5   2    1.27    0.40 
  -5   5   2    2.43    0.46 
  -5   5   2    2.20    0.22 
  -4   5   2    3.53    0.67 
  -4   5   2    3.65    0.53 
  -4   5   2    3.72    0.32 
  -3   5   2    2.86    0.67 
  -3   5   2    2.95    0.25 
  -3   5   2    2.66    0.29 
  -2   5   2    3.87    0.35 
  -2   5   2    5.08    0.76 
  -1   5   2    2.38    0.65 
  -1   5   2    3.43    0.28 
   0   5   2   14.55    1.39 
   0   5   2   13.75    1.37 
   0   5   2   14.91    1.02 
  -1   5  -2   21.87    1.50 
   1   5   2   19.20    1.79 
   1   5   2   22.39    1.50 
  -2   5  -2    8.44    0.61 
   2   5   2    7.86    1.02 
  -3   5  -2   27.28    1.82 
   3   5   2   27.15    2.11 
  -3   5  -2   24.73    1.93 
  -3   5  -2   25.71    1.84 
  -4   5  -2    2.21    0.26 
  -4   5  -2    2.46    0.25 
  -4   5  -2    2.29    0.47 
  -5   5  -2    8.35    0.76 
  -5   5  -2    9.28    0.63 
  -5   5  -2    7.67    0.62 
   6  -5   2   -0.47    0.98 
  -6   5  -2    0.12    0.10 
  -6   5  -2    0.20    0.08 
  -6   5  -2    0.21    0.20 
  -4   6   2    0.24    0.07 
  -3   6   2    6.33    0.46 
  -1   6  -2    7.32    0.51 
  -1   6  -2    7.12    0.51 
  -2   6  -2    2.14    0.19 
  -3   6  -2    3.09    0.26 
  11   0  -3    0.81    0.47 
 -11   0   3    0.98    0.49 
 -11   0   3    0.90    0.58 
  11   0  -3    2.62    0.66 
 -10   0   3   27.54    2.52 
 -10   0   3   24.21    2.31 
 -10   0   3   25.69    2.15 
  10   0  -3   30.41    2.32 
 -10   0   3   30.31    2.15 
  10   0  -3   34.45    4.53 
 -10   0   3   25.95    2.31 
  10   0  -3   29.72    2.43 
   9   0  -3   27.79    2.48 
  -9   0   3   26.38    2.64 
  -9   0   3   31.50    2.66 
   9   0  -3   36.13    2.65 
  -9   0   3   27.06    2.44 
   9   0  -3   37.74    4.65 
   8   0  -3    9.30    2.92 
   8   0  -3    6.83    1.18 
  -8   0   3    9.04    3.29 
   8   0  -3    4.83    2.58 
   8   0  -3   10.42    2.70 
   7   0  -3   17.12    3.50 
   7   0  -3   20.45    2.90 
   7   0  -3   16.05    1.58 
  -7   0   3   13.72    3.29 
  -6   0   3    1.09    2.12 
   6   0  -3    1.54    1.30 
  -5   0   3    6.83    2.35 
   5   0  -3   11.55    1.86 
   4   0  -3    1.25    0.86 
   4   0  -3    0.99    0.39 
  -4   0   3    1.32    1.49 
   3   0  -3   25.04    2.04 
   3   0  -3   29.97    2.65 
   2   0  -3  331.86   22.89 
  -1   0   3  423.94   28.01 
   1   0  -3  461.73   28.39 
   1   0  -3  383.95   27.87 
   1   0  -3  351.61   28.54 
   0   0   3    4.67    0.84 
   0   0   3    4.52    0.53 
   0   0  -3    4.65    1.19 
   0   0  -3    5.58    0.83 
   1   0   3    0.00    0.26 
   1   0   3    0.08    1.08 
   1   0   3   -0.17    0.66 
   2   0   3    0.32    0.29 
  -2   0  -3    0.31    1.53 
   2   0   3    0.23    0.79 
   2   0   3    0.89    1.17 
   2   0   3    0.44    1.24 
   3   0   3   18.40    1.97 
  -3   0  -3   14.55    2.39 
   3   0   3   19.91    2.28 
   3   0   3   11.16    2.25 
   4   0   3   13.90    1.97 
  -4   0  -3   13.37    2.66 
   4   0   3   14.09    2.28 
   4   0   3   13.17    2.45 
  -5   0  -3   -0.78    2.19 
   5   0   3    1.07    0.76 
   5   0   3    0.21    1.60 
   5   0   3    1.59    1.67 
   6   0   3    1.34    0.85 
   6   0   3    1.70    1.98 
   6   0   3   -0.54    1.87 
  -6   0  -3   -0.45    2.53 
   6   0   3    4.22    2.23 
   7   0   3    2.99    1.02 
   7   0   3    2.65    2.05 
   8   0   3    8.27    1.76 
  -8   0  -3    6.65    1.11 
  -8   0  -3    6.11    1.24 
   8   0   3    6.19    1.15 
  -8   0  -3    7.44    0.83 
   8   0   3    7.25    1.25 
  -8   0  -3    5.76    0.82 
  -9   0  -3    4.72    1.15 
   9   0   3    3.76    0.87 
  -9   0  -3    5.66    0.94 
   9   0   3    5.57    0.91 
 -10   0  -3    6.29    0.90 
  10   0   3    8.23    0.82 
 -10   0  -3    8.83    0.84 
 -11  -1   3    1.84    0.61 
 -11  -1   3    2.52    0.46 
 -11  -1   3    2.41    0.52 
  11  -1  -3    3.41    0.86 
 -11   1   3    1.27    0.59 
 -11   1   3    2.66    0.59 
  11   1  -3    1.95    0.55 
 -10  -1   3    6.57    1.95 
  10  -1  -3    7.10    1.18 
  10  -1  -3    6.52    0.75 
  10  -1  -3    6.65    0.70 
 -10  -1   3    6.84    1.01 
 -10   1   3    6.44    0.96 
 -10   1   3    6.76    0.82 
 -10   1   3    7.12    1.26 
 -10   1   3    7.28    1.05 
  10   1  -3    6.91    0.91 
   9  -1  -3   32.71    2.87 
   9  -1  -3   31.97    5.01 
   9  -1  -3   30.74    3.52 
  -9  -1   3   42.68    3.90 
  -9   1   3   36.09    3.01 
  -9   1   3   32.02    2.79 
  -9   1   3   34.11    2.80 
  -9   1   3   31.24    2.73 
  -9   1   3   34.94    2.65 
   9   1  -3   33.89    2.67 
   9   1  -3   41.11    4.93 
  -9   1   3   35.22    3.40 
   9   1  -3   32.27    2.65 
   9   1  -3   41.16    2.86 
   8  -1  -3   12.18    4.24 
   8  -1  -3   15.54    3.33 
   8  -1  -3   16.33    1.98 
   8   1  -3   15.06    3.35 
  -8   1   3   14.57    1.50 
  -8   1   3   17.66    2.17 
   8   1  -3   16.11    1.58 
   8   1  -3   17.70    3.65 
  -7  -1   3    5.30    1.45 
   7  -1  -3    7.31    2.88 
   7  -1  -3    7.91    2.20 
   7   1  -3    5.73    2.44 
  -7   1   3    7.80    2.33 
   7   1  -3    8.79    1.03 
  -7   1   3    9.65    1.07 
   7   1  -3   10.87    2.45 
   6  -1  -3   71.23    5.18 
   6  -1  -3   81.22    6.16 
   6   1  -3   65.37    4.96 
  -6   1   3   63.92    4.97 
  -6   1   3   67.22    5.93 
   5  -1  -3    2.60    0.61 
   5  -1  -3    2.92    1.25 
   5  -1  -3    2.24    1.00 
   5   1  -3    4.29    1.54 
  -5   1   3    3.18    1.78 
   4  -1  -3   38.65    2.98 
   4  -1  -3   37.17    3.39 
   4   1  -3   48.12    3.71 
  -4   1   3   34.04    3.49 
   3  -1  -3   41.97    3.24 
   3  -1  -3   42.09    3.09 
  -3   1   3   44.24    3.68 
   3   1  -3   48.01    3.29 
   2  -1  -3  405.92   29.15 
   2  -1  -3  463.02   29.51 
  -2   1   3  410.30   29.28 
   2   1  -3  414.78   29.17 
  -1  -1   3  234.20   17.34 
   1  -1  -3  255.63   17.09 
   1  -1  -3  248.09   17.37 
   1  -1  -3  243.26   18.37 
  -1  -1   3  238.51   17.07 
  -1  -1   3  263.75   17.24 
   1   1  -3  246.30   17.09 
   0  -1   3   69.65    5.16 
   0  -1   3   66.81    4.92 
   0  -1  -3   75.19    6.27 
   0  -1  -3   72.69    5.30 
   0  -1  -3   74.27    5.27 
   0  -1   3   67.01    5.29 
   0   1  -3   68.47    5.08 
   0   1  -3   69.64    4.94 
   0   1   3   66.58    5.22 
   1  -1   3   21.48    1.72 
   1  -1   3   23.98    2.16 
  -1  -1  -3   23.45    2.12 
   1  -1   3   26.51    2.82 
  -1   1  -3   21.75    2.10 
   1   1   3   21.35    1.85 
   1   1   3   24.55    2.20 
   1   1   3   21.14    1.90 
   2  -1   3    2.10    0.45 
   2  -1   3    3.66    1.68 
   2  -1   3    1.25    0.93 
  -2   1  -3    3.00    1.18 
   2   1   3    3.82    1.29 
   2   1   3    2.21    0.60 
   2   1   3    2.00    0.66 
   3  -1   3   53.13    5.09 
   3  -1   3   51.01    3.90 
   3  -1   3   49.95    4.42 
   3   1   3   53.96    4.08 
   3   1   3   50.73    4.45 
   3   1   3   53.08    4.16 
  -3   1  -3   58.24    4.51 
   4  -1   3   33.26    4.01 
   4  -1   3   31.71    2.59 
   4  -1   3   26.28    3.24 
   4   1   3   39.64    2.85 
  -4   1  -3   33.19    3.34 
   4   1   3   29.85    2.92 
   4   1   3   29.76    3.44 
   5  -1   3    7.93    2.49 
   5  -1   3    9.49    2.87 
   5   1   3    7.69    1.03 
  -5   1  -3    6.22    2.07 
   5   1   3    6.82    2.11 
  -5   1  -3    8.01    0.89 
   6  -1   3   19.90    3.39 
   6  -1   3   18.54    3.61 
  -6   1  -3   17.33    1.56 
   6   1   3   19.58    3.33 
   6   1   3   19.07    1.70 
  -6   1  -3   13.89    2.49 
   7  -1   3   43.65    3.94 
   7  -1   3   43.07    5.11 
   7   1   3   47.47    3.64 
  -7   1  -3   58.09    3.80 
  -7   1  -3   48.57    3.74 
   7   1   3   56.98    3.72 
  -7   1  -3   46.89    3.47 
   7   1   3   48.41    3.82 
   8  -1   3    1.65    0.51 
   8  -1   3    1.09    0.77 
   8  -1   3    1.07    0.43 
   8  -1   3    1.70    2.01 
  -8  -1  -3    1.31    0.91 
   8   1   3    1.55    0.54 
  -8   1  -3    1.26    0.56 
  -8   1  -3    1.55    0.76 
  -8   1  -3    0.58    0.50 
  -8   1  -3    2.11    1.66 
   8   1   3    0.16    0.67 
  -9  -1  -3    0.68    0.72 
   9  -1   3    0.64    0.65 
  -9  -1  -3    1.07    0.52 
  -9  -1  -3    1.08    0.53 
  -9   1  -3    1.18    0.43 
  -9   1  -3    0.88    0.60 
   9   1   3    1.62    0.44 
 -11  -2   3    2.17    0.49 
 -11  -2   3    3.28    1.22 
  11  -2  -3    3.88    0.80 
 -11   2   3    3.10    1.20 
 -11   2   3    2.23    0.69 
 -11   2   3    2.12    0.47 
 -11   2   3    2.84    0.50 
  10  -2  -3    2.19    0.79 
  10  -2  -3    3.52    1.09 
 -10  -2   3    3.00    0.73 
 -10  -2   3    2.54    1.29 
  10  -2  -3    2.60    0.82 
 -10   2   3    2.60    0.71 
 -10   2   3    3.43    0.65 
 -10   2   3    1.41    1.07 
 -10   2   3    4.21    1.01 
 -10   2   3    2.32    1.06 
  10   2  -3    3.46    0.53 
   9  -2  -3    5.27    1.61 
   9  -2  -3    7.08    2.16 
  -9  -2   3    9.07    2.19 
  -9   2   3    8.50    1.09 
  -9   2   3    8.08    1.02 
  -9   2   3    8.14    1.02 
  -9   2   3    7.53    1.91 
  -9   2   3    8.45    0.93 
   9   2  -3    8.64    0.90 
  -9   2   3    7.78    1.27 
  -9   2   3    9.35    1.83 
  -8  -2   3    1.51    1.28 
   8  -2  -3    1.76    1.03 
   8  -2  -3    2.83    2.42 
  -8   2   3    2.88    0.79 
  -8   2   3    2.52    1.14 
   7  -2  -3    1.58    1.34 
  -7   2   3    2.35    0.98 
  -7   2   3    1.62    0.64 
   7   2  -3    2.97    2.56 
   6  -2  -3    4.39    1.31 
  -6   2   3    3.90    0.66 
   5  -2  -3   22.34    1.97 
   5  -2  -3   22.68    2.15 
   5  -2  -3   21.86    2.43 
   5   2  -3   24.29    2.06 
  -5   2   3   21.66    1.80 
   5   2  -3   23.31    1.65 
   4  -2  -3    0.46    0.62 
   4  -2  -3    0.55    0.35 
   4  -2  -3    0.08    0.87 
  -4  -2   3   -0.17    0.39 
   4  -2  -3    0.21    0.16 
   4   2  -3    0.46    0.32 
   4   2  -3    0.54    0.17 
  -3  -2   3    1.64    0.63 
   3  -2  -3    1.74    0.49 
   3  -2  -3    1.86    0.55 
   3  -2  -3    1.19    0.21 
   3   2  -3    1.48    0.21 
  -3   2   3    1.56    0.23 
   3   2  -3    1.38    0.44 
   2  -2  -3   66.86    4.59 
   2  -2  -3   52.10    6.17 
   2  -2  -3   60.02    4.52 
  -2  -2   3   62.67    4.69 
   2  -2  -3   66.00    4.95 
   2   2  -3   72.66    4.70 
  -2   2   3   63.06    4.78 
   1  -2  -3   11.45    1.22 
   1  -2  -3   11.05    2.31 
   1  -2  -3   10.36    0.89 
  -1  -2   3   10.86    1.28 
  -1  -2   3    9.86    0.93 
   1  -2  -3    9.30    0.91 
  -1  -2   3   11.43    1.03 
   1   2  -3   12.31    1.04 
  -1   2   3   10.36    1.38 
  -1   2   3   10.41    1.03 
   0  -2   3   51.44    3.61 
   0  -2   3   48.18    3.46 
   0  -2  -3   49.71    5.31 
   0  -2  -3   45.27    3.38 
   0  -2  -3   45.86    3.45 
   0  -2  -3   56.19    3.85 
   0  -2   3   45.56    3.87 
   0   2   3   46.42    3.61 
   0   2   3   47.84    3.77 
   0   2   3   44.83    3.85 
   1  -2   3   47.24    3.44 
  -1  -2  -3   49.60    5.39 
   1  -2   3   51.22    4.54 
   1  -2   3   48.21    3.65 
  -1  -2  -3   48.37    3.85 
   1  -2   3   44.50    4.21 
   1   2   3   45.99    3.62 
   1   2   3   46.47    3.83 
   1   2   3   46.02    3.27 
   1   2   3   47.26    3.79 
   2  -2   3  102.80    9.52 
   2  -2   3  126.82    8.73 
  -2  -2  -3  115.69    9.14 
   2  -2   3  116.23    8.60 
   2  -2   3  125.01    8.89 
   2   2   3  121.73    8.97 
   2   2   3  126.40    8.40 
   2   2   3  130.33    8.88 
   2   2   3  127.37    8.84 
   3  -2   3    4.96    1.06 
   3  -2   3    4.07    0.66 
   3  -2   3    4.10    2.29 
   3  -2   3    3.37    1.18 
   3   2   3    5.26    0.43 
   3   2   3    5.91    1.60 
   3   2   3    4.85    0.85 
   4  -2   3    4.91    1.39 
   4  -2   3    3.12    0.71 
   4  -2   3    3.02    1.61 
   4  -2   3    4.50    2.50 
   4   2   3    3.73    1.70 
  -4   2  -3    4.41    0.60 
   4   2   3    5.21    0.46 
   4   2   3    5.33    0.91 
   4   2   3    4.51    0.68 
   5  -2   3   19.67    2.95 
   5  -2   3   17.26    3.75 
   5  -2   3   20.87    2.39 
   5   2   3   23.96    1.73 
   5   2   3   14.92    1.92 
  -5   2  -3   23.88    1.72 
   5   2   3   17.50    2.78 
   6  -2   3   76.35    6.80 
   6  -2   3   89.45   10.89 
  -6   2  -3   83.13    5.62 
   6   2   3   70.46    5.56 
  -7  -2  -3   19.44    2.42 
   7  -2   3   16.93    3.52 
   7  -2   3   13.15    3.02 
  -7   2  -3   14.57    1.42 
  -7   2  -3   16.71    1.54 
  -7   2  -3   21.15    2.30 
   7   2   3   15.89    1.39 
  -7   2  -3   16.57    1.44 
   8  -2   3   21.12    3.32 
  -8  -2  -3   16.70    1.98 
  -8   2  -3   18.60    1.56 
  -8   2  -3   20.43    2.35 
   8   2   3   19.35    1.50 
  -9  -2  -3    1.23    0.64 
  -9  -2  -3    2.08    0.96 
   9  -2   3    1.48    0.65 
  -9   2  -3    2.32    0.52 
  -9   2  -3    1.87    0.88 
  10  -3  -3   11.18    1.75 
  10  -3  -3   12.76    1.64 
 -10  -3   3   10.83    1.80 
  10   3  -3   12.17    0.87 
 -10   3   3   10.99    0.92 
  10   3  -3   10.87    0.98 
 -10   3   3   11.52    1.62 
   9  -3  -3   12.26    1.86 
   9  -3  -3   13.28    2.29 
   9  -3  -3   10.68    3.06 
  -9  -3   3   14.13    2.31 
  -9   3   3   11.26    1.95 
  -9   3   3   10.12    0.99 
   9   3  -3    9.88    0.86 
  -9   3   3    8.70    1.78 
   9   3  -3   12.34    1.03 
   8  -3  -3   11.53    2.67 
   8  -3  -3   12.52    3.44 
  -8  -3   3    9.09    2.25 
   8  -3  -3   12.18    1.92 
  -8  -3   3   14.51    2.50 
  -8   3   3   15.04    2.19 
  -8   3   3   13.07    2.12 
   8   3  -3   12.24    1.13 
  -8   3   3   11.60    1.13 
   8   3  -3   11.84    0.96 
  -8   3   3   13.63    1.20 
   7  -3  -3   29.15    3.14 
   7  -3  -3   38.34    4.72 
   7  -3  -3   31.34    3.30 
   7   3  -3   41.75    2.75 
   7   3  -3   36.23    2.54 
  -7   3   3   42.94    2.93 
  -7   3   3   32.44    2.78 
  -7   3   3   35.67    3.25 
   7   3  -3   34.45    2.50 
  -7   3   3   36.10    2.74 
   6  -3  -3    2.16    1.35 
  -6   3   3    0.64    0.25 
   6   3  -3    0.87    0.19 
  -6   3   3    2.00    0.97 
   5  -3  -3    7.31    1.49 
   5  -3  -3    5.88    1.29 
   5   3  -3    8.23    0.60 
  -5   3   3    8.62    0.67 
   4  -3  -3    3.66    1.10 
   4  -3  -3    2.98    0.35 
   4  -3  -3    3.52    0.98 
  -4  -3   3    1.41    0.61 
   4   3  -3    2.68    0.87 
  -4   3   3    2.59    0.29 
   4   3  -3    3.18    0.76 
   3  -3  -3   15.15    1.26 
   3  -3  -3   17.47    1.48 
  -3  -3   3   17.97    1.74 
   3  -3  -3   18.60    1.59 
  -3   3   3   14.92    2.04 
   3   3  -3   15.66    1.58 
  -3   3   3   17.72    1.21 
   2  -3  -3   19.00    1.51 
  -2  -3   3   18.59    1.67 
   2  -3  -3   20.41    1.56 
  -2   3   3   16.41    2.01 
   2   3  -3   18.09    1.69 
   1  -3  -3   29.00    2.14 
  -1  -3   3   30.42    2.35 
  -1   3   3   26.99    2.66 
   0  -3   3   46.25    3.51 
   0  -3   3   45.67    3.33 
   0  -3  -3   45.45    3.23 
   0   3  -3   43.97    3.13 
   0   3   3   45.64    3.78 
   0   3  -3   46.40    3.13 
   1  -3   3    9.36    0.88 
   1  -3   3    9.11    1.11 
  -1   3  -3    8.28    0.64 
   1   3   3    8.26    1.75 
   2  -3   3   14.80    1.80 
   2  -3   3   12.95    1.63 
   2  -3   3   14.58    1.45 
   2  -3   3   16.48    1.77 
  -2   3  -3   19.01    1.22 
   2   3   3   17.41    2.11 
   2   3   3   18.93    1.80 
   2   3   3   17.31    1.64 
   3  -3   3   21.81    2.19 
   3  -3   3   19.72    2.00 
   3  -3   3   15.91    2.12 
   3   3   3   18.21    1.69 
   3   3   3   19.45    1.98 
  -3   3  -3   17.93    1.36 
   4  -3   3   36.85    4.27 
   4  -3   3   42.34    3.74 
   4   3   3   38.02    3.49 
   4   3   3   41.05    2.83 
  -4   3  -3   43.21    2.90 
   5  -3   3   19.08    3.24 
   5  -3   3   15.58    2.45 
  -5   3  -3   20.14    1.86 
   5   3   3   19.51    1.36 
   6  -3   3    5.23    2.32 
   6  -3   3   10.19    3.02 
   6  -3   3    2.45    2.18 
  -6   3  -3    4.21    0.63 
   6   3   3    6.20    0.80 
  -6   3  -3    2.34    1.16 
   6   3   3    4.29    0.46 
  -6   3  -3    2.63    0.79 
   7  -3   3    0.90    2.00 
   7  -3   3   -1.04    1.85 
   7   3   3    0.30    0.20 
   7   3   3   -0.01    0.40 
  -7   3  -3    0.53    0.34 
  -7   3  -3   -0.66    0.90 
   8  -3   3    8.41    1.50 
   8  -3   3   10.13    1.96 
  -8   3  -3   10.99    0.96 
   8   3   3   12.14    0.89 
   8   3   3   13.41    1.07 
  -8   3  -3   13.15    1.73 
  -9  -4   3    3.56    1.34 
   9  -4  -3    2.02    1.15 
  -9   4   3    1.43    0.25 
   9   4  -3    1.45    0.16 
   9   4  -3    1.60    0.32 
  -9   4   3    0.81    0.30 
  -9   4   3    1.04    0.77 
   8  -4  -3    2.60    1.03 
   8  -4  -3    1.55    1.46 
   8   4  -3    2.61    0.27 
  -8   4   3    2.02    0.58 
   8   4  -3    2.37    0.45 
  -8   4   3    2.33    0.36 
  -8   4   3    1.67    0.99 
   7  -4  -3   11.20    2.99 
   7  -4  -3    9.49    2.52 
  -7   4   3   11.03    1.10 
  -7   4   3    9.25    1.90 
   7   4  -3   11.64    0.97 
  -7   4   3   11.00    0.90 
  -7   4   3   10.23    1.09 
   7   4  -3   11.25    2.05 
   7   4  -3   12.33    0.84 
  -6  -4   3   12.10    1.72 
   6  -4  -3    7.73    1.81 
  -6   4   3   11.15    0.89 
   6   4  -3   11.98    0.84 
   6   4  -3    9.99    0.94 
   6   4  -3   13.24    1.39 
  -6   4   3   12.12    1.09 
  -6   4   3   10.40    1.12 
   5  -4  -3    5.92    1.58 
   5  -4  -3    5.26    1.31 
  -5   4   3    7.05    0.53 
  -5   4   3    5.92    0.55 
  -5   4   3    5.36    0.77 
  -5   4   3    5.31    0.79 
   5   4  -3    5.96    1.06 
   5   4  -3    4.88    0.63 
   5   4  -3    5.54    0.46 
   4  -4  -3   33.47    2.94 
   4  -4  -3   36.05    2.88 
   4   4  -3   32.05    2.62 
  -3  -4   3    9.45    1.40 
   3   4  -3   12.89    1.17 
  -3   4   3   12.09    2.28 
   2  -4  -3    2.14    0.69 
  -2  -4   3    1.77    0.66 
  -2   4   3    1.71    1.20 
  -1  -4   3   19.41    1.84 
   1  -4  -3   19.67    1.58 
  -1   4   3   21.20    2.67 
   0  -4  -3    1.96    0.45 
   0  -4   3    1.88    0.64 
   0   4   3    1.17    1.11 
   0   4   3    2.15    0.59 
   1  -4   3    7.36    1.16 
   1   4   3    7.29    0.84 
   1   4   3    7.60    1.93 
   2  -4   3   -0.33    0.41 
   2  -4   3    0.51    0.73 
   2  -4   3    0.36    1.02 
   2   4   3    0.11    0.92 
   2   4   3    0.12    0.39 
   3  -4   3    1.28    0.94 
   3  -4   3    0.65    1.31 
   3   4   3    1.89    0.53 
   4  -4   3   14.94    2.28 
   4   4   3   18.65    1.47 
  -4   4  -3   19.20    1.37 
  -4   4  -3   17.52    1.51 
   4   4   3   18.89    1.33 
   4   4   3   20.19    1.70 
   5  -4   3    7.77    2.87 
   5   4   3    9.50    0.69 
  -5   4  -3    8.18    0.73 
  -5   4  -3    8.82    0.94 
   5   4   3    9.14    1.14 
   5   4   3    9.99    0.87 
   6  -4   3    4.21    1.98 
  -6   4  -3    3.66    0.63 
   6   4   3    4.36    0.36 
  -6   4  -3    4.16    0.43 
   6   4   3    3.36    0.54 
   7  -4   3    0.29    1.22 
  -7   4  -3    1.72    0.48 
  -7   4  -3    1.25    0.20 
   7   4   3    1.19    0.17 
  -7   4  -3    0.93    0.72 
   7   4   3    1.25    0.35 
  -7   5   3    2.40    0.22 
  -7   5   3    2.82    0.43 
  -7   5   3    2.51    0.25 
  -6   5   3    3.87    0.36 
  -6   5   3    3.93    0.54 
  -6   5   3    4.66    0.35 
  -6   5   3    3.76    0.60 
  -5   5   3    3.03    0.27 
  -5   5   3    2.70    0.29 
  -5   5   3    3.57    0.63 
  -5   5   3    2.55    0.49 
  -4   5   3    8.37    0.78 
  -4   5   3    8.72    0.63 
  -4   5   3    8.20    0.93 
  -3   5   3   -0.05    0.39 
  -3   5   3    0.11    0.12 
  -2   5   3   12.54    0.93 
  -2   5   3   13.29    1.25 
  -1   5   3    5.75    0.43 
  -1   5   3    5.01    0.85 
   0   5  -3    6.09    0.43 
   0   5   3    5.10    0.92 
   0   5   3    6.26    0.45 
   0   5   3    5.25    0.88 
  -1   5  -3    0.16    0.09 
   1   5   3    0.67    0.12 
   1   5   3    0.36    0.40 
   2   5   3    3.87    0.75 
  -2   5  -3    3.72    0.32 
  -2   5  -3    3.73    0.47 
  -3   5  -3   12.00    0.90 
  -3   5  -3   13.23    1.03 
   3   5   3   13.34    1.24 
  -3   5  -3   12.60    0.91 
  -4   5  -3    1.09    0.21 
  -4   5  -3    1.16    0.28 
  -4   5  -3    0.99    0.19 
  -5   5  -3    2.73    0.24 
  -5   5  -3    2.17    0.41 
  -5   5  -3    2.32    0.26 
  -4   6   3    4.17    0.32 
  -4   6   3    4.01    0.55 
  -3   6   3    1.75    0.16 
   0   6  -3   20.64    1.43 
  11   0  -4   -0.36    0.39 
  11   0  -4   -0.10    0.40 
 -11   0   4   -0.37    0.52 
 -11   0   4    0.75    0.34 
 -11   0   4   -0.04    0.41 
 -10   0   4   49.88    3.47 
  10   0  -4   48.75    3.58 
 -10   0   4   48.11    3.50 
 -10   0   4   46.94    3.63 
 -10   0   4   43.73    3.76 
 -10   0   4   45.94    3.60 
  10   0  -4   40.32    5.67 
  -9   0   4    6.42    1.04 
   9   0  -4    3.53    2.98 
   9   0  -4    7.19    1.09 
  -9   0   4    5.77    1.08 
  -9   0   4    5.14    1.15 
   9   0  -4    5.79    1.05 
   8   0  -4    2.58    1.93 
  -8   0   4   -0.58    2.54 
   8   0  -4    2.52    0.80 
   8   0  -4    3.23    2.63 
   7   0  -4    8.58    3.33 
  -7   0   4    9.11    2.94 
   7   0  -4   14.68    2.61 
   7   0  -4   10.41    1.23 
   6   0  -4    3.07    1.54 
  -6   0   4    2.78    2.20 
   5   0  -4   16.63    2.22 
  -5   0   4   14.05    2.54 
  -4   0   4   26.09    2.80 
   4   0  -4   26.26    2.69 
   3   0  -4   68.11    5.13 
   3   0  -4   70.43    5.53 
  -3   0   4   77.19    5.72 
   2   0  -4  237.51   16.48 
  -1   0   4    2.56    0.48 
  -1   0   4    3.95    1.41 
   1   0  -4    2.40    0.37 
   1   0  -4    2.32    1.11 
  -1   0   4    3.79    0.93 
   1   0  -4    1.79    0.48 
   0   0   4   40.63    3.45 
   0   0   4   44.20    3.68 
   0   0   4   43.42    3.21 
   0   0  -4   48.37    4.22 
   1   0   4  162.11   10.23 
   1   0   4  141.24   10.61 
   1   0   4  148.61   10.52 
   1   0   4  121.11   10.76 
  -1   0  -4  149.75   10.75 
  -1   0  -4  151.86   11.36 
  -2   0  -4   -0.02    1.51 
   2   0   4    0.12    1.18 
   2   0   4   -0.52    0.76 
   2   0   4    0.49    1.28 
   3   0   4   28.07    2.68 
  -3   0  -4   24.07    3.00 
   3   0   4   21.76    3.05 
   3   0   4   24.58    2.83 
   4   0   4    0.18    1.49 
   4   0   4    1.71    0.78 
  -4   0  -4    1.72    1.92 
   4   0   4    1.26    1.62 
   5   0   4    0.88    2.05 
  -5   0  -4    0.56    2.14 
   5   0   4    0.94    0.80 
   5   0   4    1.09    1.73 
   5   0   4    1.21    2.11 
   6   0   4    1.10    0.96 
   6   0   4   -0.01    1.72 
   7   0   4    2.84    1.42 
   7   0   4    2.37    0.81 
   7   0   4    3.78    1.05 
  -7   0  -4    2.74    0.73 
  -7   0  -4    2.48    0.98 
  -8   0  -4    0.17    0.53 
   8   0   4   -0.07    0.57 
  -8   0  -4   -0.12    0.31 
  -8   0  -4    0.35    0.78 
  -8   0  -4    0.22    0.26 
   8   0   4    0.48    0.73 
   8   0   4    0.04    0.87 
   9   0   4    5.79    0.88 
  -9   0  -4    4.92    0.99 
  -9   0  -4    4.95    0.83 
   9   0   4    3.37    0.75 
 -11  -1   4    1.58    0.54 
  11  -1  -4    1.56    0.56 
 -11  -1   4    0.65    0.41 
 -11  -1   4    1.48    0.45 
 -11   1   4    1.89    0.70 
  11   1  -4    0.47    0.33 
 -11   1   4    0.48    0.38 
 -11   1   4    1.71    0.47 
 -10  -1   4   28.87    2.51 
  10  -1  -4   30.14    2.37 
 -10  -1   4   28.08    3.30 
  10  -1  -4   34.49    2.62 
  10  -1  -4   33.13    2.39 
  10  -1  -4   29.48    5.13 
 -10   1   4   34.98    2.62 
 -10   1   4   32.09    2.54 
 -10   1   4   27.51    3.28 
 -10   1   4   30.04    2.71 
 -10   1   4   31.12    2.41 
  10   1  -4   32.02    2.41 
  -9  -1   4    5.77    1.02 
   9  -1  -4    6.88    1.31 
  -9  -1   4    7.14    2.12 
   9  -1  -4    7.94    3.43 
   9  -1  -4    6.87    1.66 
  -9   1   4    2.90    1.35 
   9   1  -4    1.93    2.75 
  -9   1   4    5.02    0.96 
  -9   1   4    4.72    1.00 
   9   1  -4    4.48    0.84 
  -9   1   4    6.82    0.82 
   9   1  -4    6.36    0.90 
  -9   1   4    6.37    1.21 
   8  -1  -4    5.50    2.40 
   8  -1  -4    3.60    1.16 
   8  -1  -4    2.22    3.11 
  -8   1   4    3.07    0.80 
   8   1  -4    4.57    2.68 
  -8   1   4    3.84    1.17 
   7  -1  -4    0.86    1.69 
   7  -1  -4    2.19    2.65 
  -7  -1   4    1.47    1.47 
   7   1  -4    0.48    1.71 
   7   1  -4   -1.11    2.09 
  -7   1   4   -0.27    0.45 
   7   1  -4    0.53    0.50 
  -7   1   4    1.25    1.86 
   6  -1  -4    0.96    0.53 
   6  -1  -4    1.43    1.30 
  -6  -1   4    2.53    1.03 
  -6   1   4    1.43    0.51 
   6   1  -4    2.99    1.71 
  -6   1   4    0.29    1.69 
   6   1  -4    2.08    0.54 
   5  -1  -4   22.15    1.97 
   5  -1  -4   23.00    2.04 
   5  -1  -4   30.26    2.95 
  -5  -1   4   21.04    2.07 
  -5   1   4   19.87    2.80 
   4  -1  -4    6.06    0.78 
  -4   1   4    6.07    1.77 
   3  -1  -4   14.78    1.19 
  -3  -1   4   10.82    1.40 
   3   1  -4   11.23    1.10 
  -3   1   4   14.01    1.65 
   2  -1  -4  135.27   12.48 
   2  -1  -4  167.01   11.05 
   2   1  -4  154.13   11.02 
   2   1  -4  171.98   11.14 
  -2   1   4  155.77   11.21 
   1  -1  -4   10.95    2.21 
   1  -1  -4   13.56    1.19 
  -1  -1   4   15.75    1.54 
   1  -1  -4   12.97    1.49 
  -1  -1   4   13.61    1.15 
  -1   1   4   13.23    1.97 
   1   1  -4   11.99    1.45 
  -1   1   4   10.98    1.45 
   1   1  -4   14.61    1.12 
   0  -1   4   68.64    5.64 
   0  -1   4   74.96    5.38 
   0  -1  -4   78.66    6.94 
   0   1   4   77.04    5.79 
   0   1  -4   84.44    5.38 
   0   1   4   62.76    5.44 
   0   1  -4   84.19    5.67 
   1  -1   4    0.22    0.75 
  -1  -1  -4    0.43    0.94 
   1  -1   4    0.72    0.35 
   1  -1   4   -0.13    1.50 
   1   1   4   -0.03    0.56 
  -1   1  -4    1.00    1.02 
   1   1   4    0.70    0.49 
   1   1   4    0.59    1.00 
   2  -1   4    7.49    0.87 
   2  -1   4    7.17    1.52 
   2  -1   4    6.39    2.19 
   2   1   4   11.42    1.34 
   2   1   4    9.51    1.89 
  -2   1  -4   10.51    1.69 
   2   1   4    9.11    1.09 
   3  -1   4    7.27    0.89 
   3  -1   4    6.94    1.50 
   3  -1   4    9.17    1.55 
   3  -1   4    5.88    2.35 
   3   1   4    7.33    1.20 
   3   1   4    7.13    1.99 
  -3   1  -4    7.63    1.68 
   3   1   4   10.63    1.17 
   4  -1   4    0.64    1.94 
   4  -1   4    3.47    2.36 
   4   1   4    3.08    1.69 
   4   1   4    1.97    0.73 
   4   1   4    2.46    0.68 
  -4   1  -4    1.97    1.47 
   5  -1   4    8.32    2.50 
   5  -1   4    6.86    2.78 
   5   1   4    7.14    1.19 
   5   1   4    7.75    1.06 
  -5   1  -4    7.34    0.88 
   5   1   4    4.64    2.28 
  -5   1  -4    5.89    1.83 
   6  -1   4   13.10    3.56 
   6  -1   4   12.17    3.42 
   6   1   4   13.09    1.47 
  -6   1  -4   12.42    1.25 
   7  -1   4    0.23    0.76 
   7  -1   4    2.33    0.79 
   7  -1   4    2.11    0.69 
   7  -1   4    5.16    2.35 
   7   1   4    1.85    1.17 
  -7   1  -4    1.16    0.55 
  -7   1  -4    2.83    0.70 
  -7   1  -4    2.45    1.20 
   7   1   4    0.19    0.66 
   7   1   4    2.36    0.59 
  -8  -1  -4    0.87    0.85 
   8  -1   4    0.10    0.68 
   8   1   4    0.84    0.49 
   8   1   4    0.27    0.76 
  -8   1  -4    0.05    0.45 
  -9  -1  -4    0.26    0.27 
   9  -1   4   -0.51    0.49 
  -9  -1  -4    0.03    0.22 
  -9  -1  -4    0.49    0.63 
   9   1   4    0.24    0.32 
  -9   1  -4   -0.09    0.28 
 -11  -2   4    0.98    0.87 
  11  -2  -4    1.67    0.52 
 -11   2   4    1.32    0.81 
 -11   2   4    2.69    0.54 
 -11   2   4    0.59    0.46 
 -11   2   4    0.72    0.31 
  10  -2  -4    7.19    1.59 
 -10  -2   4    9.01    1.97 
 -10   2   4    7.75    0.83 
 -10   2   4    7.01    1.63 
 -10   2   4    8.60    0.95 
 -10   2   4    7.60    1.20 
  10   2  -4    7.19    0.77 
 -10   2   4    8.76    1.91 
 -10   2   4    8.51    0.94 
   9  -2  -4    1.37    1.54 
  -9  -2   4    1.14    1.54 
   9  -2  -4    2.40    1.27 
  -9   2   4    1.48    1.21 
  -9   2   4    0.97    0.49 
  -9   2   4    1.20    0.50 
  -9   2   4    1.61    1.23 
  -9   2   4    3.24    1.01 
   9   2  -4    0.18    0.33 
  -9   2   4    0.97    0.58 
  -9   2   4    0.86    0.43 
   8  -2  -4    6.48    1.69 
  -8  -2   4    6.24    1.69 
  -8   2   4    8.33    1.87 
   8   2  -4    6.83    2.82 
  -8   2   4   10.44    1.15 
  -7  -2   4   10.58    1.71 
   7  -2  -4    9.17    1.74 
  -7   2   4   10.49    1.73 
  -7   2   4   11.51    1.16 
  -6  -2   4   14.47    1.77 
   6  -2  -4   15.16    1.86 
  -6   2   4   16.30    1.42 
   5  -2  -4    8.85    1.41 
   5  -2  -4   11.60    1.23 
   5   2  -4   11.23    1.26 
  -5   2   4   10.58    1.04 
   5   2  -4   11.16    0.85 
  -4  -2   4   30.95    2.96 
   4  -2  -4   35.29    2.65 
   4  -2  -4   32.18    2.63 
   4  -2  -4   37.14    2.72 
   4   2  -4   32.93    2.34 
   4   2  -4   31.75    2.67 
   3  -2  -4   24.75    1.96 
  -3  -2   4   20.41    2.11 
   3  -2  -4   22.62    1.88 
   3  -2  -4   24.65    1.69 
   3  -2  -4   23.11    1.90 
   3   2  -4   21.22    1.64 
  -3   2   4   25.37    1.66 
   3   2  -4   23.79    1.95 
   2  -2  -4  113.19    7.59 
   2  -2  -4  100.24    9.76 
   2  -2  -4  100.42    7.98 
   2  -2  -4  107.95    7.51 
  -2  -2   4   97.06    7.74 
   2   2  -4  111.43    7.38 
  -2   2   4  111.01    7.75 
  -2   2   4  113.18    7.39 
   2   2  -4  103.64    7.64 
   1  -2  -4   70.87    4.63 
  -1  -2   4   62.66    4.61 
  -1  -2   4   61.62    5.11 
  -1  -2   4   60.95    4.78 
   1  -2  -4   64.67    4.54 
   1  -2  -4   62.54    6.67 
   1  -2  -4   66.46    5.06 
   1   2  -4   64.46    4.68 
  -1   2   4   65.76    4.94 
  -1   2   4   61.66    4.70 
   1   2  -4   61.77    4.42 
   0  -2  -4   25.24    2.38 
   0  -2   4   24.67    3.15 
   0  -2   4   25.56    2.18 
   0  -2  -4   24.27    1.89 
   0  -2   4   25.91    1.96 
   0  -2  -4   24.51    3.82 
   0  -2  -4   25.83    1.97 
   0   2  -4   23.69    1.75 
   0   2   4   24.50    2.46 
   0   2   4   23.87    2.08 
   0   2   4   25.42    1.76 
   0   2   4   25.24    2.46 
   1  -2   4   91.24    7.59 
  -1  -2  -4   91.37    6.33 
   1  -2   4   86.09    6.50 
   1  -2   4   93.12    6.72 
   1  -2   4   86.39    6.42 
  -1   2  -4   95.21    6.24 
   1   2   4   94.37    6.22 
   1   2   4   83.38    6.78 
   1   2   4   82.17    6.74 
   1   2   4   91.76    6.64 
   2  -2   4   26.16    2.50 
   2  -2   4   27.45    3.63 
   2  -2   4   27.89    2.25 
  -2  -2  -4   31.58    2.20 
   2  -2   4   25.90    2.42 
   2   2   4   28.63    2.00 
   2   2   4   24.27    2.78 
   2   2   4   29.56    2.49 
   2   2   4   27.52    2.73 
   3  -2   4   18.30    2.14 
   3  -2   4   15.63    3.35 
   3   2   4   21.33    2.00 
   3   2   4   19.35    2.38 
   3   2   4   17.39    1.58 
   3   2   4   20.71    2.41 
   3   2   4   20.56    1.43 
   4  -2   4   22.61    4.00 
   4  -2   4   28.16    2.72 
   4  -2   4   23.75    3.10 
   4   2   4   25.97    2.44 
   4   2   4   23.95    2.02 
  -4   2  -4   27.33    2.03 
   4   2   4   22.88    3.00 
   5  -2   4   18.20    4.33 
   5  -2   4   21.37    3.21 
   5   2   4   20.54    1.71 
  -5   2  -4   19.82    1.70 
   5   2   4   19.63    2.13 
  -6  -2  -4   62.45    5.52 
   6  -2   4   69.54    6.23 
  -6   2  -4   73.40    4.88 
   6   2   4   60.80    4.83 
  -6   2  -4   64.10    4.78 
  -6   2  -4   71.19    5.38 
   6   2   4   69.09    4.74 
  -6   2  -4   63.49    4.76 
  -7  -2  -4    7.10    1.76 
   7  -2   4    9.91    2.71 
   7  -2   4    4.83    2.04 
   7  -2   4    6.84    3.47 
  -7   2  -4    5.89    1.02 
  -7   2  -4    7.81    0.95 
  -7   2  -4   10.36    1.84 
   7   2   4    7.15    0.85 
  -7   2  -4    7.94    0.87 
   8  -2   4    5.74    0.82 
   8  -2   4    6.22    1.24 
   8  -2   4    5.63    0.84 
  -8  -2  -4    5.09    1.16 
   8   2   4    6.40    0.66 
  -8   2  -4    6.26    1.66 
  -8   2  -4    6.14    0.76 
  -9  -2  -4    2.89    0.76 
   9  -2   4    2.31    0.57 
  -9   2  -4    3.42    1.36 
  -9   2  -4    3.02    0.46 
  10  -3  -4    0.27    0.98 
  10  -3  -4    1.20    0.89 
 -10  -3   4    0.66    1.02 
  10   3  -4   -0.25    0.27 
 -10   3   4    0.06    0.85 
 -10   3   4    0.26    0.50 
  10   3  -4    0.18    0.15 
 -10   3   4    0.06    0.27 
 -10   3   4    0.21    0.26 
 -10   3   4    0.01    0.24 
   9  -3  -4    6.44    2.02 
   9  -3  -4    5.40    2.33 
  -9  -3   4    4.35    1.85 
   9  -3  -4    5.00    1.36 
   9   3  -4    4.07    0.64 
  -9   3   4    5.32    0.67 
  -9   3   4    5.09    0.67 
  -9   3   4    4.19    0.73 
  -9   3   4    4.88    1.05 
  -9   3   4    4.82    1.73 
   9   3  -4    4.50    0.48 
  -9   3   4    2.59    1.07 
   8  -3  -4   14.99    2.09 
  -8  -3   4   15.15    2.50 
  -8  -3   4   16.59    2.71 
   8  -3  -4   17.15    3.68 
   8  -3  -4   17.26    2.89 
  -8   3   4   16.19    1.77 
  -8   3   4   14.76    2.10 
  -8   3   4   17.09    1.51 
   8   3  -4   15.82    1.21 
  -8   3   4   16.27    1.42 
  -8   3   4   14.97    2.26 
  -8   3   4   16.78    1.36 
   8   3  -4   15.41    1.36 
   7  -3  -4   25.49    3.63 
  -7  -3   4   25.26    2.53 
   7  -3  -4   23.65    2.51 
   7  -3  -4   22.68    2.57 
   7   3  -4   23.58    1.75 
   7   3  -4   24.78    1.72 
  -7   3   4   25.95    2.21 
  -7   3   4   23.01    1.92 
  -7   3   4   23.98    2.67 
  -7   3   4   24.24    2.00 
   7   3  -4   24.38    1.89 
  -7   3   4   24.06    2.37 
  -7   3   4   26.85    2.05 
  -7   3   4   18.54    2.67 
  -6  -3   4   26.34    2.37 
   6  -3  -4   19.82    2.37 
   6   3  -4   23.52    1.60 
  -6   3   4   25.42    2.43 
  -6   3   4   19.84    1.65 
   5  -3  -4    0.21    0.77 
  -5  -3   4    1.95    0.94 
   5  -3  -4    1.22    1.18 
  -5   3   4    1.08    0.27 
   5   3  -4    0.91    0.18 
   4  -3  -4    2.59    0.92 
   4  -3  -4    2.78    0.37 
  -4  -3   4    1.65    0.71 
  -4  -3   4    3.51    1.01 
   4  -3  -4    3.70    1.07 
   4   3  -4    3.34    0.90 
   4   3  -4    2.81    0.24 
  -4   3   4    2.93    0.31 
   3  -3  -4   29.72    1.90 
  -3  -3   4   25.92    2.42 
   3  -3  -4   27.21    2.14 
   3  -3  -4   26.30    2.10 
   3  -3  -4   20.62    2.17 
  -3   3   4   26.84    2.84 
   3   3  -4   24.04    1.79 
   3   3  -4   29.09    2.30 
  -3   3   4   26.99    1.82 
   3   3  -4   25.12    1.79 
  -2  -3   4   10.87    1.22 
   2  -3  -4   10.58    1.01 
   2  -3  -4    8.62    0.91 
   2   3  -4    8.04    1.03 
   2   3  -4    9.35    0.66 
   2   3  -4    9.70    0.66 
  -2   3   4    8.62    0.67 
  -2   3   4   10.06    1.53 
  -1  -3   4   23.05    2.18 
   1  -3  -4   25.04    1.91 
   1   3  -4   25.68    1.72 
   1   3  -4   24.14    1.74 
  -1   3   4   24.95    2.45 
   0  -3  -4    1.51    0.47 
   0  -3   4    0.49    0.68 
   0  -3   4    0.83    0.41 
   0  -3   4    1.03    0.38 
   0   3   4    1.33    0.93 
   0   3  -4    1.01    0.16 
   1  -3   4    4.57    1.10 
   1  -3   4    4.07    0.91 
   1  -3   4    3.62    0.63 
  -1   3  -4    4.16    0.37 
   1   3   4    4.38    0.87 
   1   3   4    4.58    0.93 
   1   3   4    4.36    1.25 
   2  -3   4   12.31    1.52 
   2  -3   4   10.62    1.50 
   2  -3   4    9.94    1.59 
  -2  -3  -4    9.80    1.09 
   2   3   4   12.86    1.50 
  -2   3  -4    9.56    0.81 
   2   3   4   12.33    1.22 
   2   3   4   10.25    1.90 
   3  -3   4   41.46    3.85 
   3  -3   4   39.21    3.93 
   3   3   4   46.10    3.20 
   3   3   4   50.10    4.00 
  -3   3  -4   50.05    3.27 
   4  -3   4   20.35    2.62 
   4   3   4   22.87    1.56 
  -4   3  -4   21.96    1.86 
   4   3   4   20.91    2.30 
   5  -3   4   21.19    3.56 
   5  -3   4   15.74    3.44 
   5  -3   4   21.81    2.74 
   5   3   4   23.14    1.81 
  -5   3  -4   23.73    1.72 
  -5   3  -4   22.72    2.48 
   5   3   4   22.03    1.53 
  -5   3  -4   18.00    1.98 
   5   3   4   21.83    1.60 
  -6  -3  -4    5.26    1.63 
   6  -3   4    1.74    2.19 
   6  -3   4    3.30    2.03 
  -6   3  -4    4.33    0.64 
  -6   3  -4    4.10    1.55 
   6   3   4    4.91    0.49 
   6   3   4    5.32    0.77 
   7  -3   4    6.52    2.33 
   7   3   4   12.75    1.10 
   7   3   4   11.78    0.87 
  -7   3  -4   10.47    0.97 
  -7   3  -4   11.46    1.87 
   8  -3   4    2.87    0.56 
   8  -3   4    3.64    0.65 
  -8   3  -4    3.44    1.23 
   8   3   4    2.78    0.51 
   8   3   4    2.77    0.33 
  -8   3  -4    3.79    0.41 
  -9  -4   4    1.73    1.00 
   9  -4  -4    1.42    1.06 
   9   4  -4    1.90    0.35 
  -9   4   4    1.71    0.45 
  -9   4   4    2.25    0.81 
   9   4  -4    1.92    0.20 
  -9   4   4    1.83    0.39 
  -9   4   4    2.10    0.28 
   8  -4  -4    1.11    1.44 
   8  -4  -4    1.48    0.93 
   8   4  -4    0.85    0.15 
  -8   4   4    0.75    0.91 
  -8   4   4    1.28    0.40 
  -8   4   4    0.42    0.19 
  -8   4   4    1.83    0.49 
   8   4  -4    1.86    0.40 
   7  -4  -4   11.05    2.39 
  -7   4   4    9.37    1.00 
  -7   4   4    9.10    0.98 
  -7   4   4   10.15    0.78 
   7   4  -4    9.70    0.85 
   7   4  -4    8.88    0.71 
  -7   4   4    4.69    1.82 
  -6  -4   4    0.14    1.15 
   6  -4  -4    0.35    1.27 
   6   4  -4    1.18    0.23 
  -6   4   4    0.74    0.23 
  -6   4   4    1.27    0.36 
  -6   4   4    0.84    0.43 
   6   4  -4    0.97    0.70 
   6   4  -4    1.29    0.32 
  -6   4   4    1.35    0.48 
   5  -4  -4    7.08    1.63 
  -5  -4   4    9.55    1.57 
  -5   4   4    7.88    0.89 
  -5   4   4    7.34    0.91 
   5   4  -4    8.62    0.64 
   5   4  -4    8.55    1.16 
  -5   4   4    8.06    0.67 
   5   4  -4    8.10    0.76 
  -5   4   4    8.22    0.70 
   4  -4  -4   10.42    1.71 
  -4  -4   4   12.77    1.84 
   4  -4  -4   14.14    1.53 
   4   4  -4   14.54    1.42 
   3  -4  -4    1.95    0.69 
  -3  -4   4    1.52    0.66 
  -3   4   4   -0.25    1.12 
   3   4  -4    1.83    0.57 
   2  -4  -4    9.75    1.09 
  -2  -4   4    8.51    1.29 
  -2   4   4   10.09    1.94 
  -1  -4   4    6.27    1.04 
   1  -4  -4    5.33    0.78 
  -1   4   4    7.01    0.89 
  -1   4   4    8.71    1.98 
   0  -4   4   14.29    1.66 
   0   4   4   12.25    2.28 
   0   4   4   13.32    1.29 
   1  -4   4    5.21    1.32 
   1  -4   4    6.07    1.17 
   1   4   4    9.05    2.04 
   1   4   4    6.66    0.95 
   2  -4   4    1.48    1.20 
   2  -4   4    1.77    0.89 
   2   4   4    1.70    0.56 
   2   4   4    1.58    1.14 
   3  -4   4    4.64    1.63 
   3   4   4    5.36    0.61 
  -3   4  -4    5.26    0.48 
  -3   4  -4    6.83    0.68 
   3   4   4    5.94    0.93 
  -3   4  -4    4.75    0.45 
   3   4   4    4.49    0.42 
   3   4   4    4.80    0.81 
   4  -4   4    1.30    2.16 
   4   4   4    2.73    0.54 
   4   4   4    2.75    0.70 
  -4   4  -4    1.98    0.56 
   4   4   4    2.23    0.27 
  -4   4  -4    2.07    0.34 
   5  -4   4    2.44    1.84 
   5   4   4    2.95    0.53 
   5   4   4    1.81    0.88 
  -5   4  -4    2.57    0.36 
  -5   4  -4    2.58    0.58 
   5   4   4    2.61    0.29 
   6  -4   4    2.79    1.69 
  -6   4  -4    3.25    0.57 
   6   4   4    2.61    0.26 
   6   4   4    2.79    0.47 
  -6   4  -4    3.62    1.28 
  -6   4  -4    2.57    0.34 
   7  -4   4    1.34    1.12 
  -7   4  -4    0.78    0.30 
  -7   4  -4    2.17    0.25 
   7   4   4    2.63    0.34 
  -7   4  -4    0.82    0.72 
  -7   5   4    1.46    0.36 
  -7   5   4    0.99    0.14 
  -7   5   4    0.94    0.18 
  -7   5   4    0.80    0.29 
  -6   5   4    5.82    0.47 
  -6   5   4    6.62    0.66 
  -6   5   4    6.41    0.50 
  -6   5   4    6.93    0.76 
  -5   5   4    5.42    0.48 
  -5   5   4    5.30    0.78 
  -5   5   4    6.39    0.46 
  -5   5   4    7.29    0.68 
  -4   5   4    3.46    0.31 
  -4   5   4    3.33    0.67 
  -4   5   4    3.55    0.52 
  -3   5   4    6.54    0.88 
  -3   5   4    8.08    0.60 
  -2   5   4   14.11    1.00 
  -2   5   4   14.11    1.31 
   2   5  -4   13.53    0.96 
  -1   5   4    1.05    0.48 
  -1   5   4    1.09    0.40 
   1   5  -4    0.86    0.27 
   1   5  -4    0.84    0.11 
  -1   5   4    0.72    0.16 
   0   5  -4    0.73    0.13 
   0   5   4    0.97    0.15 
   0   5   4    0.42    0.37 
   1   5   4    0.37    0.39 
  -1   5  -4    0.86    0.16 
  -1   5  -4    1.00    0.24 
   1   5   4    0.93    0.15 
  -2   5  -4    0.66    0.13 
  -2   5  -4    0.62    0.13 
   2   5   4    0.60    0.39 
  -2   5  -4    0.73    0.24 
  -3   5  -4   12.30    0.87 
   3   5   4   12.61    1.17 
  -3   5  -4   12.28    1.00 
  -3   5  -4   11.77    0.88 
  -4   5  -4   10.36    0.73 
  -4   5  -4    9.65    0.85 
  -4   5  -4   10.18    0.75 
   5  -5   4    0.76    1.04 
  -5   5  -4    2.03    0.36 
  -5   5  -4    2.45    0.20 
  -5   5  -4    2.28    0.22 
  -4   6   4    0.16    0.06 
  -4   6   4    0.39    0.29 
  -3   6   4    3.57    0.27 
 -12   0   5    0.49    0.34 
 -11   0   5    3.04    0.85 
  11   0  -5    2.59    0.68 
 -11   0   5    2.28    0.56 
 -11   0   5    1.20    0.46 
 -10   0   5    7.36    1.23 
  10   0  -5    7.76    3.18 
 -10   0   5    8.09    0.82 
 -10   0   5    6.81    1.03 
  10   0  -5    8.58    1.12 
 -10   0   5    6.80    0.85 
  -9   0   5   62.81    4.65 
   9   0  -5   60.46    4.43 
  -9   0   5   63.78    4.52 
   9   0  -5   52.17    4.11 
   9   0  -5   67.34    6.51 
  -8   0   5   31.98    4.62 
   8   0  -5   38.30    4.93 
   7   0  -5  121.87    9.09 
   7   0  -5  112.98    7.80 
  -7   0   5   87.51    9.01 
  -6   0   5   -0.56    1.74 
  -5   0   5   33.12    3.64 
  -4   0   5   47.79    4.23 
   4   0  -5   46.63    4.13 
   3   0  -5  157.76   11.34 
   3   0  -5  152.11   10.90 
   2   0  -5   60.51    4.33 
   2   0  -5   56.92    4.78 
  -1   0   5   69.02    5.08 
  -1   0   5   70.06    5.28 
   1   0  -5   66.05    5.98 
   1   0  -5   59.37    4.76 
   1   0  -5   66.73    5.32 
  -1   0   5   65.30    4.76 
   0   0  -5    1.78    1.33 
   0   0   5    2.12    1.32 
   0   0  -5    0.82    0.82 
   0   0   5    1.95    0.46 
   0   0   5    2.51    1.45 
   0   0   5    1.57    0.94 
  -1   0  -5    0.43    1.29 
   1   0   5    1.12    1.49 
   1   0   5    0.72    0.72 
   1   0   5    0.92    1.24 
  -2   0  -5   43.48    3.97 
   2   0   5   36.87    3.51 
   2   0   5   43.00    3.88 
   2   0   5   39.11    4.33 
   3   0   5   87.68    8.22 
   3   0   5  105.13    7.97 
  -3   0  -5  106.28    8.20 
   4   0   5    1.56    1.52 
   4   0   5    0.24    1.72 
   4   0   5   -0.39    0.65 
   4   0   5    0.95    1.89 
  -4   0  -5    0.57    1.93 
  -5   0  -5   27.94    4.18 
   5   0   5   37.47    4.80 
   5   0   5   36.90    4.22 
   6   0   5   20.36    2.82 
   6   0   5   24.68    2.33 
   6   0   5   23.90    2.36 
  -7   0  -5   -0.16    0.55 
  -7   0  -5    0.26    0.83 
  -7   0  -5    0.17    0.39 
   7   0   5   -0.40    0.59 
   7   0   5   -1.03    1.12 
  -7   0  -5   -0.17    0.33 
   7   0   5    0.52    0.81 
  -8   0  -5   17.32    1.66 
  -8   0  -5   16.97    1.84 
   8   0   5   18.57    1.66 
   8   0   5   21.00    1.64 
   9   0   5    6.37    0.68 
  -9   0  -5    4.39    0.95 
  -9   0  -5    4.31    0.69 
  11  -1  -5    2.05    0.60 
 -11  -1   5    1.41    0.52 
 -11  -1   5    1.20    0.38 
 -11  -1   5    0.97    0.43 
  11   1  -5    0.85    0.35 
 -11   1   5    1.49    0.65 
 -11   1   5    1.96    0.64 
 -11   1   5    2.20    0.50 
  10  -1  -5    8.06    3.30 
  10  -1  -5    6.59    0.81 
  10  -1  -5    7.50    0.83 
  10  -1  -5    7.39    1.20 
 -10  -1   5    4.95    0.88 
 -10  -1   5    4.70    1.94 
 -10   1   5    6.70    0.84 
 -10   1   5    6.55    0.96 
 -10   1   5    6.50    1.22 
  10   1  -5    4.53    0.86 
  10   1  -5    9.45    3.41 
 -10   1   5    6.98    2.03 
  -9  -1   5   17.55    2.71 
   9  -1  -5   16.23    2.10 
   9  -1  -5   13.97    1.69 
   9  -1  -5   13.70    4.37 
  -9   1   5   17.28    1.87 
   9   1  -5   16.20    1.48 
   9   1  -5   21.36    3.96 
  -9   1   5   16.39    2.50 
  -9   1   5   16.68    2.38 
  -9   1   5   16.03    1.62 
  -9   1   5   16.72    1.62 
   9   1  -5   16.44    1.51 
  -9   1   5   17.66    1.48 
   8  -1  -5    3.69    1.21 
   8  -1  -5    3.13    3.09 
  -8   1   5    2.92    1.12 
   8   1  -5    4.78    2.58 
  -8   1   5    3.47    0.83 
   7  -1  -5   11.82    4.23 
   7  -1  -5    5.04    1.29 
  -7   1   5    4.41    0.83 
  -7   1   5    4.29    2.17 
   7   1  -5    6.97    2.51 
  -6  -1   5   10.10    1.56 
   6  -1  -5   10.75    1.53 
  -6   1   5   13.76    1.19 
  -6   1   5    9.65    2.31 
   5  -1  -5   13.59    1.78 
   5  -1  -5   24.16    1.76 
   5  -1  -5   17.24    1.68 
  -5  -1   5   17.14    1.82 
   5   1  -5   19.87    1.70 
  -5   1   5   17.06    2.57 
   4  -1  -5   10.13    1.15 
  -4  -1   5   13.14    1.48 
  -4   1   5   11.83    2.13 
   4   1  -5   10.72    1.12 
   3  -1  -5  132.79    9.31 
   3   1  -5  124.30    9.25 
  -3   1   5  137.51    9.61 
   2  -1  -5   15.84    1.42 
   2  -1  -5   14.21    2.73 
  -2  -1   5   16.54    1.95 
   2   1  -5   16.04    1.75 
  -2   1   5   15.84    1.78 
   2   1  -5   16.63    1.35 
  -1  -1   5    5.08    1.23 
  -1  -1   5    4.43    0.61 
   1  -1  -5    4.45    1.66 
   1  -1  -5    5.06    0.67 
  -1   1   5    4.02    0.64 
  -1   1   5    5.04    1.57 
   1   1  -5    4.49    0.67 
  -1   1   5    5.32    1.20 
   1   1  -5    3.23    1.14 
   0  -1   5   29.78    2.22 
   0  -1  -5   31.92    3.94 
   0  -1   5   28.90    2.64 
   0   1  -5   30.40    2.67 
   0   1   5   22.69    2.27 
   0   1   5   31.79    2.84 
  -1  -1  -5   23.15    3.46 
   1  -1   5   23.17    1.87 
   1  -1   5   24.32    3.25 
   1  -1   5   24.36    2.44 
  -1  -1  -5   24.35    1.93 
   1   1   5   25.11    2.68 
  -1   1  -5   22.04    2.36 
   1   1   5   21.91    2.13 
   1   1   5   19.31    1.98 
   2  -1   5    0.38    0.91 
   2  -1   5   -0.48    1.68 
   2  -1   5    0.73    0.40 
   2  -1   5    0.55    0.93 
   2   1   5    0.58    0.73 
  -2   1  -5    1.08    1.24 
   2   1   5    1.92    1.36 
   2   1   5    0.79    0.61 
   3  -1   5    2.24    2.05 
   3   1   5    2.73    0.73 
  -3   1  -5    2.93    1.52 
   3   1   5    2.89    0.81 
   3   1   5    3.62    1.52 
   4  -1   5    4.54    2.46 
   4  -1   5    3.10    1.61 
   4  -1   5    2.62    2.30 
   4   1   5    4.07    0.96 
   4   1   5    2.88    1.63 
   4   1   5    3.95    0.93 
  -4   1  -5    2.32    1.51 
   5  -1   5   15.54    3.07 
   5  -1   5   10.89    3.84 
   5   1   5   11.58    1.40 
  -5   1  -5   13.07    1.18 
   5   1   5   10.26    1.47 
  -5   1  -5    2.67    2.24 
  -6  -1  -5   19.02    2.50 
   6  -1   5   23.37    2.76 
   6  -1   5   22.78    3.60 
   6  -1   5   23.57    2.32 
  -6   1  -5   20.37    2.51 
  -6   1  -5   21.47    1.90 
   6   1   5   20.42    1.83 
  -6   1  -5   25.28    1.99 
   6   1   5   22.46    2.07 
   6   1   5   21.29    1.88 
   6   1   5   28.59    2.83 
   7  -1   5   11.80    1.06 
   7  -1   5    9.85    1.03 
   7  -1   5   12.49    2.09 
   7  -1   5    8.37    1.56 
   7   1   5   11.25    1.19 
  -7   1  -5    9.22    2.71 
  -7   1  -5   15.20    1.27 
   7   1   5    9.57    1.30 
   7   1   5   13.27    2.00 
  -7   1  -5    9.59    1.20 
  -8  -1  -5   12.47    1.31 
  -8  -1  -5   15.08    1.23 
   8  -1   5   12.43    1.50 
  -8  -1  -5   12.22    1.61 
   8   1   5   11.79    1.23 
  -8   1  -5   15.50    1.26 
 -11  -2   5    6.42    1.37 
  11  -2  -5    6.56    0.94 
 -11   2   5    4.64    0.67 
 -11   2   5    6.82    0.93 
 -11   2   5    6.29    0.64 
 -11   2   5    6.49    1.48 
 -11   2   5    6.12    0.72 
 -10  -2   5    5.20    1.94 
  10  -2  -5    4.44    1.41 
 -10   2   5    5.13    0.81 
 -10   2   5    5.48    0.73 
  10   2  -5    5.43    0.66 
 -10   2   5    5.00    1.77 
 -10   2   5    5.70    0.81 
 -10   2   5    5.32    1.09 
 -10   2   5    4.14    1.22 
  -9  -2   5   -0.35    1.42 
   9  -2  -5    0.43    1.06 
   9  -2  -5   -0.55    1.45 
  -9   2   5    0.30    0.41 
  -9   2   5    0.12    1.17 
   9   2  -5   -0.40    0.31 
  -9   2   5    0.11    0.69 
  -9   2   5    0.64    0.51 
  -9   2   5    0.14    0.43 
  -9   2   5   -0.61    0.53 
  -9   2   5    0.66    1.01 
  -8  -2   5    8.60    1.78 
   8  -2  -5    7.78    1.86 
   8  -2  -5   12.60    1.87 
  -8   2   5   10.28    1.49 
  -8   2   5   10.22    1.19 
  -8   2   5   12.37    2.06 
  -8   2   5    5.73    1.75 
  -8   2   5    7.65    1.28 
   7  -2  -5   12.41    1.67 
   7  -2  -5   15.27    5.04 
  -7  -2   5   16.52    1.98 
   7  -2  -5    9.63    2.06 
  -7   2   5   16.28    1.42 
  -7   2   5   10.59    1.85 
   6  -2  -5   13.34    1.63 
  -6  -2   5   13.32    1.73 
  -6   2   5   14.32    1.34 
   5  -2  -5   -0.38    0.36 
  -5  -2   5    0.82    0.96 
   5  -2  -5   -0.91    0.83 
   5   2  -5    0.01    0.28 
  -5   2   5    0.35    0.43 
  -4  -2   5   21.74    1.94 
  -4  -2   5   16.80    2.15 
   4  -2  -5   20.11    1.87 
   4  -2  -5   22.17    1.83 
   4  -2  -5   19.74    1.81 
   4   2  -5   22.18    1.87 
   4   2  -5   20.33    1.49 
  -3  -2   5   98.84    7.15 
   3  -2  -5  104.26    7.10 
   3  -2  -5   92.05    7.06 
   3  -2  -5  106.88    7.19 
  -3  -2   5   93.25    7.47 
   3   2  -5  106.16    6.90 
  -3   2   5  102.76    6.91 
   3   2  -5   92.06    7.18 
   2  -2  -5  134.23    8.91 
   2  -2  -5  124.97    9.01 
  -2  -2   5  124.32    9.30 
  -2  -2   5  119.08    8.97 
   2  -2  -5  127.38    8.92 
   2   2  -5  131.02    9.06 
   2   2  -5  117.55    8.76 
  -2   2   5  127.95    8.77 
  -2   2   5  138.79    9.22 
  -1  -2   5   46.02    3.64 
  -1  -2   5   45.48    3.60 
   1  -2  -5   50.86    3.55 
   1  -2  -5   50.86    3.52 
   1  -2  -5   49.76    3.62 
  -1  -2   5   49.62    3.91 
  -1   2   5   49.42    3.96 
   1   2  -5   47.57    3.37 
   1   2  -5   47.96    3.64 
  -1   2   5   44.52    4.04 
   0  -2  -5    7.37    0.85 
   0  -2   5    7.71    2.67 
   0  -2  -5    7.68    0.83 
   0  -2   5    8.66    0.90 
   0  -2   5    6.80    1.10 
   0  -2   5    6.41    1.08 
   0   2   5    7.66    0.97 
   0   2   5    7.57    0.61 
   0   2   5    7.04    1.73 
   0   2   5    6.84    1.64 
   1  -2   5   13.31    1.61 
  -1  -2  -5   14.21    1.26 
   1  -2   5   14.32    2.93 
   1  -2   5   13.66    1.29 
   1   2   5   12.27    1.44 
   1   2   5   14.54    1.03 
   1   2   5   12.30    2.03 
   2  -2   5    2.34    0.62 
  -2  -2  -5    2.87    0.73 
   2  -2   5    1.64    1.12 
   2  -2   5    2.36    2.06 
   2   2   5    2.57    0.76 
   2   2   5    2.95    0.63 
   2   2   5    2.94    1.44 
   2   2   5    3.43    0.36 
   3  -2   5    9.83    3.40 
   3  -2   5   15.69    2.89 
   3  -2   5   18.31    2.13 
   3   2   5   16.11    1.85 
   3   2   5   16.79    1.44 
   3   2   5   17.41    2.21 
   3   2   5   18.03    2.67 
   4  -2   5    6.42    2.16 
   4  -2   5    3.97    2.68 
  -4   2  -5    7.33    0.79 
   4   2   5    5.87    1.15 
   4   2   5    5.46    0.87 
   4   2   5    3.13    1.81 
   5  -2   5   11.49    3.33 
  -5   2  -5   12.27    1.19 
   5   2   5   12.27    1.24 
   6  -2   5   15.66    3.08 
  -6  -2  -5   16.63    2.34 
   6  -2   5   17.19    3.35 
   6  -2   5   17.04    2.99 
  -6   2  -5   17.09    1.51 
   6   2   5   19.18    1.47 
  -6   2  -5   18.49    1.52 
  -6   2  -5   16.16    2.24 
  -6   2  -5   17.83    1.56 
  -7   2  -5    2.27    1.03 
   7   2   5    0.87    0.35 
  -7   2  -5    0.63    0.39 
   8  -2   5    3.29    0.93 
  -8  -2  -5    3.03    1.00 
  -8   2  -5    2.27    0.84 
  -8   2  -5    2.83    0.57 
 -10  -3   5    1.38    1.07 
  10  -3  -5    5.00    1.25 
  10  -3  -5    2.45    1.12 
 -10   3   5    3.06    0.56 
 -10   3   5    3.78    0.51 
  10   3  -5    3.63    0.36 
 -10   3   5    3.72    0.52 
 -10   3   5    4.80    1.47 
  10   3  -5    3.63    0.54 
   9  -3  -5    0.30    1.29 
   9  -3  -5    2.14    2.22 
  -9  -3   5    0.19    1.21 
   9  -3  -5    0.75    1.06 
   9  -3  -5   -0.23    1.01 
  -9   3   5    0.23    0.60 
  -9   3   5    0.49    1.07 
  -9   3   5    0.71    0.37 
  -9   3   5   -0.10    1.05 
   9   3  -5    0.02    0.31 
  -9   3   5    0.33    0.40 
  -9   3   5    0.32    0.34 
   9   3  -5    0.53    0.20 
   8  -3  -5    9.49    2.07 
   8  -3  -5    9.24    1.82 
  -8  -3   5    9.39    2.33 
   8  -3  -5   11.59    2.47 
  -8   3   5   10.33    1.00 
  -8   3   5   10.16    2.02 
  -8   3   5    9.46    1.12 
   8   3  -5    9.89    0.82 
   8   3  -5    9.04    0.98 
  -8   3   5   10.11    1.04 
  -8   3   5   12.47    1.97 
  -8   3   5   10.32    1.47 
   7  -3  -5    4.60    1.88 
   7  -3  -5    5.05    1.63 
  -7  -3   5    1.61    1.29 
   7  -3  -5    3.08    1.31 
  -7   3   5    4.32    1.22 
   7   3  -5    2.53    0.31 
  -7   3   5    2.07    0.60 
  -7   3   5    2.55    0.74 
   7   3  -5    2.23    0.39 
  -7   3   5    4.37    0.75 
  -7   3   5    2.98    1.39 
   7   3  -5    2.10    0.58 
  -7   3   5    2.11    1.27 
  -7   3   5    2.57    0.53 
   6  -3  -5   -0.30    1.14 
  -6  -3   5   -0.49    1.07 
   6   3  -5    1.27    0.22 
  -6   3   5    0.35    0.26 
  -6   3   5    0.69    1.15 
   5  -3  -5   17.49    1.72 
   5  -3  -5   14.61    1.85 
  -5  -3   5   14.15    1.86 
   5   3  -5   15.88    1.12 
  -5   3   5   14.33    1.16 
  -4  -3   5   10.14    1.42 
  -4  -3   5    6.70    1.44 
   4  -3  -5   12.91    1.30 
   4  -3  -5   10.66    1.43 
  -4   3   5    9.29    0.76 
   4   3  -5   10.19    0.74 
   3  -3  -5   24.70    1.98 
  -3  -3   5   28.60    2.32 
   3  -3  -5   27.81    2.25 
  -3  -3   5   25.03    2.60 
   3   3  -5   28.19    1.90 
  -2  -3   5    1.22    0.55 
  -2  -3   5    1.91    0.77 
   2  -3  -5    1.47    0.52 
   2  -3  -5    1.41    0.45 
   2  -3  -5    2.99    0.72 
   2   3  -5    0.77    0.42 
  -2   3   5    1.57    0.80 
   2   3  -5    1.50    0.18 
   1  -3  -5    4.57    0.76 
  -1  -3   5    4.31    0.94 
   1  -3  -5    5.45    0.74 
  -1  -3   5    5.11    0.98 
  -1   3   5    2.77    1.06 
  -1   3   5    4.41    0.35 
   1   3  -5    4.52    0.37 
   0  -3   5   13.62    1.57 
   0  -3   5   12.71    1.63 
   0  -3  -5   12.99    1.27 
   0  -3  -5   14.57    1.27 
   0   3   5   12.49    1.00 
   0   3   5   14.40    0.99 
   0   3   5   15.68    1.45 
   0   3   5   16.39    2.13 
   0   3  -5   15.34    1.03 
   0   3   5   14.31    1.55 
  -1  -3  -5    8.80    1.00 
   1  -3   5    9.91    2.96 
   1  -3   5    7.48    1.47 
   1  -3   5    8.53    1.37 
   1   3   5   10.96    1.34 
   1   3   5    9.02    1.23 
   1   3   5    8.56    1.92 
  -1   3  -5    9.27    0.71 
   1   3   5    8.94    0.65 
   2  -3   5    0.60    1.20 
   2  -3   5    3.57    1.20 
  -2  -3  -5    1.74    0.67 
   2   3   5    0.95    0.16 
   2   3   5    1.42    0.81 
   2   3   5    0.02    0.96 
  -2   3  -5    1.33    0.27 
   3  -3   5   29.84    3.16 
   3   3   5   27.10    2.86 
   3   3   5   32.66    2.17 
   4  -3   5    3.03    2.19 
   4  -3   5    3.07    1.85 
   4   3   5    7.87    0.87 
  -4   3  -5    7.00    0.75 
   4   3   5    5.81    0.48 
  -4   3  -5    5.48    1.92 
   4   3   5    6.15    0.56 
  -4   3  -5    5.45    0.79 
  -4   3  -5    6.49    1.00 
   5  -3   5   11.84    2.86 
  -5  -3  -5    8.74    2.77 
   5  -3   5    8.95    3.02 
   5  -3   5   11.11    3.42 
  -5   3  -5   12.76    1.96 
  -5   3  -5   14.32    1.14 
   5   3   5   14.76    1.27 
   5   3   5   13.05    1.02 
   6  -3   5   14.04    2.86 
   6  -3   5   12.74    2.67 
  -6  -3  -5   14.61    2.06 
   6  -3   5    9.91    2.88 
  -6   3  -5   13.67    1.95 
   6   3   5   16.65    1.35 
   6   3   5   16.23    1.12 
  -6   3  -5   13.77    1.20 
   7  -3   5    5.99    1.73 
   7   3   5    6.47    0.56 
  -7   3  -5    6.86    1.52 
   7   3   5    6.80    0.76 
  -7   3  -5    6.31    0.64 
   9  -4  -5   10.89    1.67 
  -9  -4   5   10.01    1.75 
  -9   4   5    8.65    0.72 
  -9   4   5    8.87    1.52 
  -9   4   5    9.63    0.82 
   9   4  -5    9.56    0.68 
  -9   4   5   10.00    0.89 
   9   4  -5    9.09    0.77 
   8  -4  -5   13.05    2.19 
   8  -4  -5   12.44    1.74 
  -8   4   5   10.69    0.98 
   8   4  -5   12.91    0.95 
  -8   4   5   14.68    1.85 
  -8   4   5   13.44    1.15 
  -8   4   5   14.06    1.23 
  -8   4   5   13.01    1.16 
   8   4  -5   13.94    1.06 
   7  -4  -5    4.68    1.90 
   7   4  -5    5.46    0.58 
  -7   4   5    3.51    0.49 
   7   4  -5    5.03    0.44 
  -7   4   5    5.05    0.80 
  -7   4   5    4.94    0.74 
  -7   4   5    4.53    0.79 
  -6  -4   5    3.27    1.31 
   6  -4  -5    4.60    1.36 
   6  -4  -5    1.30    1.25 
  -6   4   5    3.32    0.77 
   6   4  -5    3.60    0.51 
   6   4  -5    2.94    0.89 
  -6   4   5    4.08    0.72 
  -6   4   5    2.85    0.69 
  -6   4   5    2.59    0.41 
   6   4  -5    2.93    0.34 
   5  -4  -5   14.99    1.95 
  -5  -4   5   21.37    2.05 
  -5   4   5   17.87    1.53 
  -5   4   5   19.36    1.36 
   5   4  -5   18.85    1.31 
  -5   4   5   18.69    1.65 
   5   4  -5   16.80    1.40 
  -5   4   5   17.84    1.33 
  -5   4   5   16.83    1.58 
   5   4  -5   19.83    1.78 
   4  -4  -5    7.18    1.31 
   4  -4  -5    9.50    1.35 
  -4  -4   5   10.30    1.52 
   4   4  -5   11.23    1.31 
  -3  -4   5    8.41    1.53 
   3  -4  -5   11.46    1.28 
   3  -4  -5   10.92    1.37 
   2  -4  -5    8.41    1.08 
  -2  -4   5   10.33    1.51 
  -2   4   5   10.86    1.97 
   1  -4  -5    2.96    0.72 
  -1  -4   5    2.40    0.90 
  -1   4   5    4.41    0.93 
  -1   4   5    2.41    1.30 
   0  -4   5    5.57    1.30 
   0  -4   5    5.20    1.18 
   0   4   5    7.14    1.90 
   0   4   5    5.95    1.00 
   1  -4   5    2.18    0.92 
   1  -4   5    1.97    1.17 
   1   4   5    1.20    1.17 
   1   4   5    2.12    0.65 
   2  -4   5    6.64    1.75 
   2   4   5    5.79    1.09 
  -2   4  -5    7.93    0.80 
  -2   4  -5    8.32    0.66 
   2   4   5    8.00    0.80 
   2   4   5    8.78    0.62 
   2   4   5    8.66    1.01 
  -2   4  -5    7.93    0.64 
   3  -4   5    7.24    1.92 
   3  -4   5    9.97    2.66 
  -3   4  -5    8.51    0.81 
   3   4   5    6.82    0.60 
   3   4   5    7.60    0.96 
  -3   4  -5    8.31    0.65 
   3   4   5    8.18    0.79 
   3   4   5    6.70    1.13 
   4  -4   5    1.23    1.65 
   4  -4   5    2.48    1.64 
  -4   4  -5    3.16    0.38 
  -4   4  -5    3.38    0.59 
   4   4   5    0.73    0.68 
   4   4   5    3.25    0.31 
   4   4   5    3.71    0.57 
   5  -4   5    3.67    1.78 
   5   4   5    5.90    0.68 
  -5   4  -5    5.87    0.73 
  -5   4  -5    6.81    0.55 
   5   4   5    6.00    0.48 
   6  -4   5    0.04    1.24 
   6   4   5    0.73    0.25 
  -6   4  -5    0.89    0.17 
  -6   4  -5    0.55    0.28 
  -6   4  -5    1.20    0.70 
   6   4   5    0.72    0.14 
  -7   5   5    3.05    0.49 
  -7   5   5    3.29    0.44 
  -7   5   5    3.26    0.29 
  -6   5   5    9.39    0.81 
  -6   5   5    8.93    0.57 
   6   5  -5    6.63    0.51 
   5   5  -5   22.74    1.52 
   5   5  -5   20.00    1.62 
  -5   5   5   23.54    1.80 
  -5   5   5   22.15    1.67 
  -4   5   5    1.84    0.62 
  -4   5   5    2.20    0.41 
   4   5  -5    2.53    0.20 
   4   5  -5    2.81    0.46 
   3   5  -5    4.08    0.53 
  -3   5   5    3.37    0.33 
  -3   5   5    4.25    0.71 
  -3   5   5    1.38    0.65 
   3   5  -5    3.36    0.26 
  -2   5   5   12.38    0.95 
  -2   5   5   12.46    1.24 
   2   5  -5   13.45    0.92 
   2   5  -5   13.61    1.11 
  -2   5   5   13.08    1.30 
  -1   5   5   10.88    1.16 
   1   5  -5   12.23    0.84 
  -1   5   5    9.61    1.24 
  -1   5   5   12.59    1.20 
  -1   5   5   12.38    0.87 
   0   5   5    3.35    0.75 
   0   5  -5    3.95    0.45 
   0   5  -5    4.50    0.34 
   0   5   5    4.42    0.36 
   0   5   5    4.10    0.85 
  -1   5  -5   11.05    0.81 
  -1   5  -5   11.12    0.92 
  -1   5  -5   12.72    0.83 
   1   5   5   11.31    1.12 
   1   5   5   11.20    0.84 
  -2   5  -5    2.21    0.39 
  -2   5  -5    1.98    0.22 
  -2   5  -5    1.47    0.20 
   2   5   5    2.58    0.65 
  -3   5  -5    0.86    0.15 
  -3   5  -5    0.60    0.13 
  -3   5  -5    0.59    0.24 
   3   5   5    0.52    0.31 
   4  -5   5    3.49    1.61 
  -4   5  -5    7.69    0.58 
  -4   5  -5    7.90    0.68 
  -4   5  -5    8.16    0.56 
  -3   6   5    0.46    0.08 
 -12   0   6    2.88    0.44 
 -11   0   6    7.39    0.84 
 -11   0   6    6.73    0.90 
  11   0  -6   10.45    0.98 
 -10   0   6    0.04    0.33 
 -10   0   6    0.06    0.47 
  10   0  -6   -1.53    2.60 
 -10   0   6   -0.30    0.31 
  10   0  -6    0.02    0.53 
  -9   0   6   16.62    1.71 
   9   0  -6   19.71    1.81 
   9   0  -6   26.45    4.60 
   8   0  -6   17.85    4.14 
   7   0  -6   64.69    6.64 
  -7   0   6   60.98    6.21 
  -6   0   6   25.44    3.36 
   5   0  -6   35.64    2.94 
  -5   0   6   35.37    3.79 
  -4   0   6   20.37    2.84 
   4   0  -6   26.66    2.75 
   3   0  -6  228.14   16.47 
   2   0  -6    0.97    0.49 
   2   0  -6    2.07    1.55 
   1   0  -6   30.15    3.12 
  -1   0   6   29.38    3.21 
   1   0  -6   32.51    2.52 
  -1   0   6   33.68    3.03 
   0   0   6    1.89    1.40 
   0   0   6    0.83    1.69 
   0   0  -6    0.74    1.41 
   0   0   6    0.60    0.84 
   1   0   6   11.58    1.72 
   1   0   6   12.29    2.09 
   1   0   6    6.95    2.25 
  -1   0  -6   11.51    2.15 
   2   0   6    0.40    0.73 
  -2   0  -6    1.85    1.57 
   2   0   6    0.74    1.48 
   2   0   6    0.65    1.71 
   3   0   6    5.31    0.98 
   3   0   6    2.55    1.84 
  -3   0  -6    4.31    1.95 
   3   0   6    1.88    1.99 
   4   0   6    3.77    2.48 
   4   0   6    4.64    1.03 
   4   0   6    0.56    1.94 
  -4   0  -6    3.06    1.98 
   5   0   6   16.94    1.88 
  -6   0  -6    5.38    0.96 
  -6   0  -6    4.11    1.04 
   6   0   6    5.11    1.56 
   6   0   6    2.07    1.03 
   6   0   6    5.71    1.14 
  -7   0  -6   -0.05    0.50 
  -7   0  -6    0.19    0.28 
   7   0   6   -0.47    1.01 
  -7   0  -6   -0.14    0.17 
   7   0   6    0.25    0.54 
  -7   0  -6    0.38    0.74 
  -8   0  -6    1.47    0.65 
   8   0   6    0.75    0.41 
  -8   0  -6    1.47    0.45 
  11  -1  -6   25.74    2.22 
 -11  -1   6   25.64    2.08 
 -11  -1   6   26.01    2.12 
 -11   1   6   29.64    2.12 
 -11   1   6   30.56    2.20 
  11   1  -6   26.94    2.07 
 -11   1   6   29.66    2.33 
  10  -1  -6    0.66    0.36 
  10  -1  -6    0.85    0.63 
  10  -1  -6    1.26    0.51 
  10  -1  -6    3.39    3.22 
  10   1  -6    1.18    0.47 
 -10   1   6    2.31    1.32 
 -10   1   6    0.24    0.64 
 -10   1   6    1.26    0.47 
 -10   1   6    1.19    0.53 
  10   1  -6   -2.09    2.44 
 -10   1   6    0.88    0.76 
  -9  -1   6   14.98    2.65 
   9  -1  -6   18.32    1.77 
   9  -1  -6   13.76    1.99 
   9  -1  -6   15.64    5.10 
  -9   1   6   18.75    1.89 
  -9   1   6   16.59    2.22 
  -9   1   6   17.61    2.64 
  -9   1   6   18.59    1.63 
   9   1  -6   15.43    1.47 
   9   1  -6   15.61    1.46 
   9   1  -6   16.97    3.70 
  -9   1   6   14.42    1.45 
  -9   1   6   17.25    1.64 
   8  -1  -6   40.02    3.37 
   8  -1  -6   41.12    5.45 
  -8   1   6   39.34    3.45 
  -8   1   6   37.92    3.10 
   8   1  -6   35.59    4.65 
   7  -1  -6   11.13    1.58 
   7  -1  -6   10.89    1.63 
   7  -1  -6   15.20    4.45 
   7   1  -6   13.16    3.76 
  -7   1   6   13.43    1.34 
  -7   1   6    7.92    2.41 
  -7   1   6   10.30    2.75 
  -6  -1   6   17.35    2.00 
   6  -1  -6   19.49    2.05 
   6  -1  -6   18.30    1.96 
  -6   1   6   22.53    1.78 
  -6   1   6   21.16    2.86 
   6   1  -6   19.72    2.04 
   5  -1  -6   30.10    2.46 
  -5  -1   6   32.38    2.55 
   5  -1  -6   30.05    2.39 
   5  -1  -6   25.84    2.51 
  -5   1   6   31.05    2.26 
   5   1  -6   22.83    2.32 
  -5   1   6   31.28    3.26 
   4  -1  -6    8.54    1.23 
   4  -1  -6    8.85    1.06 
  -4  -1   6    9.16    1.26 
   4  -1  -6    9.20    1.08 
   4   1  -6    8.59    0.99 
  -4   1   6    9.77    1.76 
   3  -1  -6  125.46    8.70 
  -3  -1   6  114.19    8.61 
   3  -1  -6  116.38    8.51 
   3   1  -6  132.62    8.89 
  -3   1   6  125.44    9.00 
   3   1  -6  114.99    8.59 
  -2  -1   6  121.32    8.68 
   2  -1  -6   98.59   10.20 
   2  -1  -6  127.82    8.33 
   2   1  -6  111.66    8.49 
   1  -1  -6    7.46    2.21 
  -1  -1   6    9.83    1.46 
   1  -1  -6    8.69    0.89 
   1  -1  -6    8.17    0.96 
  -1  -1   6    7.19    0.90 
  -1   1   6    7.95    0.99 
  -1   1   6    6.86    1.91 
   1   1  -6    9.67    1.48 
   0  -1   6   70.16    5.15 
   0  -1   6   87.47    6.63 
   0  -1  -6   69.13    5.02 
   0  -1   6   71.28    5.22 
   0  -1   6   65.16    5.54 
   0  -1  -6   69.18    7.19 
   0   1  -6   69.53    5.56 
   0   1   6   64.31    5.26 
   0   1   6   72.84    5.77 
   1  -1   6   13.72    1.63 
   1  -1   6   14.20    2.93 
   1  -1   6   14.75    1.37 
   1  -1   6   13.44    1.87 
  -1  -1  -6   13.83    1.29 
   1   1   6   17.28    2.49 
  -1   1  -6   14.76    1.97 
   1   1   6   12.67    1.81 
   1   1   6   14.12    1.57 
   2  -1   6   16.41    3.38 
   2  -1   6   30.26    4.04 
   2   1   6   27.47    2.96 
   2   1   6   30.11    3.32 
   2   1   6   33.42    2.36 
   2   1   6   31.27    2.67 
  -2   1  -6   23.88    2.87 
   3  -1   6    6.83    2.31 
   3  -1   6    4.68    1.78 
   3  -1   6    3.51    2.42 
  -3   1  -6    1.59    1.37 
   3   1   6    3.54    2.05 
   3   1   6    3.05    0.88 
   3   1   6    5.29    0.98 
   4  -1   6    2.54    2.07 
   4  -1   6   -0.75    2.16 
   4  -1   6    1.64    1.68 
  -4   1  -6    0.22    1.38 
   4   1   6   -0.03    1.80 
   4   1   6    0.50    0.74 
   4   1   6    0.58    0.72 
  -5   1  -6    6.80    0.93 
   5   1   6    6.52    1.22 
   6  -1   6    7.41    0.96 
  -6  -1  -6    5.03    1.55 
   6  -1   6    6.45    1.46 
   6  -1   6    5.98    0.89 
   6  -1   6    7.01    1.83 
   6   1   6    8.07    0.96 
   6   1   6    6.54    1.11 
  -6   1  -6    6.60    1.83 
  -6   1  -6    5.40    0.96 
   6   1   6    7.74    1.85 
  -6   1  -6    6.17    0.94 
   7  -1   6    4.23    0.94 
   7  -1   6    4.37    1.52 
  -7   1  -6    3.20    0.76 
   7   1   6    3.97    0.80 
   7   1   6    4.65    1.50 
  -8  -1  -6    6.15    1.02 
   8  -1   6    7.13    0.96 
  -8  -1  -6    6.10    0.57 
  -8  -1  -6    6.52    1.00 
  -8  -1  -6    7.40    0.55 
  -8   1  -6    5.64    0.68 
   8   1   6    4.86    0.71 
 -11  -2   6   18.46    2.12 
  11  -2  -6   19.08    1.65 
 -11   2   6   17.95    1.66 
 -11   2   6   17.42    2.03 
 -11   2   6   18.85    1.52 
 -11   2   6   18.47    1.47 
 -11   2   6   20.63    1.47 
  10  -2  -6   -0.34    0.93 
 -10  -2   6    0.92    1.27 
  10   2  -6    0.95    0.33 
 -10   2   6    0.99    0.45 
 -10   2   6    2.08    1.24 
 -10   2   6    0.62    0.35 
 -10   2   6    1.45    0.77 
 -10   2   6   -0.08    0.99 
 -10   2   6    0.65    0.43 
   9  -2  -6   17.00    2.20 
   9  -2  -6   16.43    2.58 
   9  -2  -6   18.30    2.20 
  -9  -2   6   20.89    2.90 
   9  -2  -6   12.46    2.19 
   9  -2  -6   22.68    7.89 
  -9   2   6   15.52    1.69 
  -9   2   6   23.26    1.68 
  -9   2   6   19.91    1.98 
  -9   2   6   19.45    1.68 
   9   2  -6   19.97    1.51 
  -9   2   6   17.22    2.40 
  -9   2   6   20.92    2.61 
  -9   2   6   16.66    1.56 
   8  -2  -6    2.69    1.15 
  -8  -2   6    3.87    1.74 
   8  -2  -6    3.24    1.21 
   8  -2  -6    0.95    1.13 
  -8  -2   6    1.18    1.18 
   8  -2  -6   -0.74    3.38 
   8  -2  -6    4.47    1.81 
  -8   2   6    2.13    0.94 
   8   2  -6    3.78    0.67 
  -8   2   6    2.56    1.25 
  -8   2   6    3.17    0.81 
  -8   2   6    5.02    1.60 
  -8   2   6    3.37    0.85 
  -8   2   6    2.70    0.66 
  -8   2   6    2.87    0.78 
  -7  -2   6    7.75    1.65 
   7  -2  -6    5.95    1.62 
   7  -2  -6    9.10    3.80 
   7  -2  -6    8.15    1.51 
  -7   2   6    8.94    1.77 
  -7   2   6    7.91    1.06 
   6  -2  -6    4.11    1.13 
   6  -2  -6    5.59    1.36 
  -6  -2   6    4.42    1.23 
  -6   2   6    3.93    0.80 
   5  -2  -6    1.93    0.99 
  -5  -2   6    3.05    1.00 
   5  -2  -6    1.39    0.89 
  -5   2   6    1.40    0.48 
  -4  -2   6   37.94    2.96 
   4  -2  -6   34.92    3.07 
   4  -2  -6   37.46    2.83 
   4  -2  -6   37.76    2.94 
   4   2  -6   35.45    2.93 
  -4   2   6   33.89    2.70 
  -3  -2   6   46.68    3.31 
   3  -2  -6   43.01    3.28 
   3  -2  -6   42.93    3.18 
  -3  -2   6   36.29    3.64 
   3  -2  -6   46.85    3.17 
   3  -2  -6   39.93    3.36 
   3   2  -6   36.89    3.22 
   2  -2  -6    2.00    0.61 
   2  -2  -6    2.47    0.61 
   2  -2  -6    1.99    0.60 
  -2  -2   6    1.40    0.63 
  -2  -2   6    2.27    0.80 
  -2   2   6    3.45    1.15 
  -2   2   6    2.06    0.28 
   2   2  -6    1.56    0.47 
   1  -2  -6   27.53    1.98 
  -1  -2   6   23.69    2.16 
  -1  -2   6   23.52    2.06 
   1  -2  -6   22.19    2.04 
  -1   2   6   25.43    2.59 
   0  -2  -6    2.73    0.63 
   0  -2   6    2.15    0.82 
   0  -2   6    1.09    0.45 
   0  -2   6    1.60    2.02 
   0  -2  -6    1.88    0.58 
   0   2   6    1.72    0.53 
   0   2   6    1.64    0.30 
   0   2   6    2.18    0.63 
   0   2   6    1.64    1.50 
   1  -2   6   -0.01    2.19 
   1  -2   6   -0.16    0.36 
   1  -2   6   -0.37    2.19 
  -1  -2  -6    0.06    0.51 
   1  -2   6    1.55    1.03 
   1   2   6    0.68    1.28 
  -1   2  -6   -0.30    0.82 
   1   2   6    0.06    0.57 
   1   2   6   -0.37    0.37 
   1   2   6    0.08    0.23 
   2  -2   6   22.35    4.03 
   2  -2   6   23.61    2.43 
   2  -2   6   23.40    2.98 
   2   2   6   23.86    2.36 
   2   2   6   27.01    3.01 
   2   2   6   22.56    1.92 
   3  -2   6    0.89    2.70 
   3  -2   6    2.12    1.59 
   3  -2   6    1.71    2.94 
   3  -2   6    0.77    1.44 
   3   2   6    1.79    0.90 
   3   2   6    2.14    1.24 
   3   2   6    3.26    0.74 
   3   2   6    2.28    1.77 
   4  -2   6   25.63    3.41 
   4  -2   6   22.81    3.18 
   4   2   6   19.14    1.86 
   4   2   6   23.41    2.60 
  -4   2  -6   22.73    1.85 
   5  -2   6   10.50    3.17 
   5  -2   6   12.68    2.95 
  -5  -2  -6   12.87    2.13 
   5  -2   6   14.73    3.03 
  -5   2  -6   14.10    1.34 
   5   2   6   15.45    1.61 
  -5   2  -6   13.70    1.27 
  -5   2  -6   15.68    2.15 
   5   2   6   15.69    1.25 
  -5   2  -6   13.86    1.28 
   6  -2   6    0.53    1.65 
  -6  -2  -6    0.65    1.09 
  -6   2  -6    2.29    0.57 
   6   2   6    2.34    0.56 
  -6   2  -6    1.41    1.06 
  -6   2  -6    1.88    0.46 
   7  -2   6    0.58    0.67 
   7  -2   6    0.64    0.38 
   7  -2   6    0.58    0.36 
  -7   2  -6    0.73    0.91 
   7   2   6    0.30    0.24 
  -7   2  -6    0.57    0.33 
 -10  -3   6    1.64    1.06 
  10  -3  -6    1.54    0.88 
  10  -3  -6    0.77    0.95 
 -10   3   6    1.31    0.42 
 -10   3   6    1.05    0.86 
 -10   3   6    1.05    0.29 
  10   3  -6    1.69    0.26 
  10   3  -6    1.13    0.33 
 -10   3   6    1.81    0.41 
   9  -3  -6    0.61    1.07 
  -9  -3   6    1.25    1.39 
   9  -3  -6    0.68    0.90 
   9  -3  -6    1.12    1.27 
   9   3  -6    0.83    0.24 
   9   3  -6    0.76    0.35 
  -9   3   6    1.34    0.36 
  -9   3   6   -0.18    1.02 
  -9   3   6    1.14    0.39 
  -9   3   6    0.70    0.44 
  -9   3   6    1.47    1.13 
   8  -3  -6    6.42    1.87 
   8  -3  -6    6.02    1.78 
   8  -3  -6    6.75    2.15 
  -8  -3   6    7.63    2.23 
   8  -3  -6    8.19    1.72 
  -8   3   6    7.78    0.89 
  -8   3   6    7.52    2.05 
   8   3  -6    6.37    0.68 
  -8   3   6    6.54    0.82 
  -8   3   6    6.92    0.93 
  -8   3   6    8.27    1.90 
   8   3  -6    6.47    0.80 
  -7  -3   6    8.52    1.59 
   7  -3  -6    7.64    1.39 
   7  -3  -6    6.13    2.18 
   7  -3  -6    7.64    1.76 
   7  -3  -6    2.26    1.37 
  -7   3   6    9.90    1.76 
  -7   3   6    7.43    0.86 
  -7   3   6    6.95    0.93 
  -7   3   6    8.71    0.93 
   7   3  -6    6.71    0.57 
  -7   3   6    5.93    2.03 
   7   3  -6    7.26    0.81 
  -7   3   6    7.59    1.01 
   7   3  -6    6.59    0.62 
   6  -3  -6    6.63    1.89 
  -6  -3   6    7.74    1.46 
   6  -3  -6    7.58    1.99 
   6  -3  -6    9.33    1.47 
  -6   3   6    6.95    0.65 
  -6   3   6    7.15    1.65 
   6   3  -6    7.72    0.61 
  -5  -3   6   11.55    2.40 
   5  -3  -6   11.58    1.86 
   5  -3  -6   11.88    2.06 
   5  -3  -6   12.35    1.80 
   5  -3  -6   13.99    1.56 
  -5  -3   6   11.88    1.63 
  -5   3   6   10.45    0.91 
   5   3  -6   12.48    0.89 
   4  -3  -6   10.71    2.38 
  -4  -3   6   10.79    1.86 
   4  -3  -6   12.82    1.45 
   4  -3  -6   11.60    1.74 
   4  -3  -6   16.69    1.54 
  -4  -3   6   13.45    1.62 
  -4   3   6   13.10    0.99 
   4   3  -6   13.76    0.98 
   3  -3  -6   16.73    1.56 
   3  -3  -6   15.73    1.54 
  -3  -3   6   16.55    2.06 
   3  -3  -6   16.06    1.33 
  -3  -3   6   19.33    1.81 
   3   3  -6   16.36    1.20 
  -2  -3   6   17.23    2.21 
  -2  -3   6   18.76    1.96 
   2  -3  -6   21.69    1.82 
   2  -3  -6   23.04    1.80 
   2   3  -6   20.60    1.49 
  -2   3   6   23.70    2.42 
   1  -3  -6    1.00    0.56 
  -1  -3   6    0.18    0.45 
  -1  -3   6    0.20    0.78 
  -1   3   6   -0.37    1.04 
  -1   3   6    0.45    0.16 
   1   3  -6    0.22    0.16 
   0  -3   6    6.50    1.28 
   0  -3   6    5.17    1.34 
   0  -3  -6    6.06    0.87 
   0   3   6    5.69    0.45 
   0   3  -6    5.48    0.49 
   0   3   6    5.49    1.79 
   0   3   6    5.21    0.99 
   1  -3   6   14.44    1.93 
  -1  -3  -6   12.81    1.33 
   1  -3   6   13.42    2.54 
   1   3   6   12.58    0.94 
   1   3   6   13.07    2.29 
  -1   3  -6   12.61    0.99 
   1   3   6   15.18    1.73 
   2  -3   6   21.16    2.93 
   2  -3   6   18.51    2.37 
  -2   3  -6   17.81    1.34 
   2   3   6   13.76    2.52 
   2   3   6   18.32    1.29 
   2   3   6   17.70    2.01 
   3  -3   6   28.47    3.01 
   3  -3   6   22.67    5.24 
   3  -3   6   25.69    3.43 
   3   3   6   18.78    3.02 
   3   3   6   29.48    2.45 
   3   3   6   26.87    1.80 
   3   3   6   23.62    1.91 
   4  -3   6    6.75    2.69 
   4  -3   6    4.08    2.23 
   4  -3   6    4.44    2.23 
   4   3   6    3.72    0.49 
  -4   3  -6    5.72    0.66 
  -4   3  -6    4.86    1.30 
   4   3   6    4.97    0.81 
   5  -3   6    9.88    2.62 
   5  -3   6    8.49    2.68 
  -5  -3  -6    9.55    1.83 
  -5   3  -6   10.21    1.73 
   5   3   6    9.09    0.78 
   5   3   6    8.13    1.00 
  -5   3  -6   10.46    0.90 
   6  -3   6    0.72    1.48 
  -6  -3  -6    0.76    0.96 
  -6   3  -6    0.95    0.28 
  -6   3  -6    1.13    0.83 
   6   3   6    0.99    0.20 
   6   3   6    1.16    0.43 
   7  -3   6    0.08    0.30 
   7  -3   6    0.12    0.33 
  -7  -3  -6    0.11    0.49 
   7   3   6    0.23    0.13 
  -7   3  -6    0.78    0.67 
   7   3   6    0.60    0.27 
  -9  -4   6   10.59    1.69 
   9  -4  -6   10.18    1.53 
   9   4  -6    8.73    0.70 
  -9   4   6    8.60    0.82 
  -9   4   6    8.52    1.47 
   9   4  -6    8.45    0.62 
  -9   4   6    7.31    0.81 
  -9   4   6    8.17    0.75 
  -9   4   6    9.12    0.67 
   8  -4  -6    7.22    1.75 
   8  -4  -6    7.19    1.38 
   8   4  -6    6.57    0.54 
  -8   4   6    4.27    1.40 
   8   4  -6    7.45    0.66 
  -8   4   6    7.35    0.60 
  -8   4   6    6.85    0.82 
  -8   4   6    6.54    0.84 
  -8   4   6    7.12    0.79 
   7  -4  -6   15.05    2.11 
   7  -4  -6   16.03    2.46 
  -7   4   6   18.89    1.57 
   7   4  -6   19.21    1.34 
  -7   4   6   17.56    1.37 
  -7   4   6   20.00    1.58 
  -7   4   6   20.00    1.67 
   7   4  -6   18.40    1.43 
   6  -4  -6   11.42    2.56 
   6  -4  -6    9.59    2.03 
   6   4  -6   13.70    1.00 
  -6   4   6   13.68    1.27 
  -6   4   6   13.98    1.35 
  -6   4   6   13.28    1.29 
  -6   4   6   14.55    1.05 
   6   4  -6   12.96    1.10 
   5  -4  -6    9.96    1.38 
  -5  -4   6   10.25    1.62 
   5   4  -6   10.22    1.39 
  -5   4   6   11.17    1.08 
  -5   4   6   11.40    1.11 
  -5   4   6   12.03    0.85 
  -5   4   6   10.41    1.19 
   5   4  -6   10.64    0.80 
  -5   4   6    9.23    0.81 
   5   4  -6    9.37    0.92 
  -4  -4   6   13.72    1.82 
   4  -4  -6   14.63    1.63 
  -4   4   6   15.84    1.13 
  -4   4   6   15.94    1.39 
  -4   4   6   14.48    1.33 
   4   4  -6   14.54    1.61 
  -4   4   6   16.24    1.50 
   4   4  -6   14.90    1.10 
  -4   4   6   14.50    1.15 
   4   4  -6   16.13    1.23 
   4   4  -6   15.36    1.11 
   3  -4  -6   40.01    3.25 
   3  -4  -6   41.41    3.30 
  -3  -4   6   36.79    3.41 
  -3   4   6   42.11    3.74 
   3   4  -6   47.40    2.94 
  -3   4   6   45.39    3.26 
   3   4  -6   39.42    2.93 
  -3   4   6   42.79    3.39 
  -3   4   6   38.77    2.95 
   2  -4  -6   17.89    1.62 
   2  -4  -6   17.58    1.66 
  -2  -4   6   15.64    1.89 
  -2   4   6   17.55    2.51 
   1  -4  -6    6.81    0.94 
  -1  -4   6    5.49    1.28 
  -1   4   6    5.02    1.08 
  -1   4   6    4.49    1.50 
   0  -4   6    7.48    1.60 
   0  -4  -6    9.12    1.17 
   0   4  -6   10.68    0.80 
   0   4   6   11.27    1.33 
   0   4   6   10.31    1.13 
   0   4  -6   11.69    0.82 
   0   4  -6   10.14    0.94 
   0   4   6   14.68    1.43 
   0   4   6   10.03    1.00 
   0   4   6   11.11    0.81 
   0   4   6    9.41    2.19 
   1  -4   6    7.78    1.70 
  -1  -4  -6    6.69    1.06 
  -1   4  -6    7.84    0.79 
  -1   4  -6    7.74    0.64 
   1   4   6   10.38    1.20 
   1   4   6    8.74    0.95 
   1   4   6    9.75    1.21 
   1   4   6    8.94    0.85 
   1   4   6    7.92    0.64 
  -1   4  -6    8.05    0.66 
   2  -4   6    8.86    1.96 
   2   4   6   11.00    0.84 
   2   4   6   10.39    1.01 
  -2   4  -6   11.52    0.87 
   2   4   6   12.65    1.20 
   2   4   6   11.87    1.41 
  -2   4  -6   12.01    1.02 
   3  -4   6    2.12    1.80 
   3  -4   6    1.77    1.75 
  -3   4  -6    4.52    0.61 
   3   4   6    3.10    0.88 
   3   4   6    3.60    0.72 
   3   4   6    3.79    0.36 
  -3   4  -6    3.94    0.40 
   3   4   6    3.99    0.58 
   4  -4   6    2.33    2.75 
   4  -4   6    1.35    1.60 
  -4   4  -6    2.01    0.32 
   4   4   6    1.98    0.25 
  -4   4  -6    1.83    0.50 
   4   4   6    2.23    0.51 
  -5  -4  -6    2.72    1.65 
   5  -4   6    1.27    1.30 
   5   4   6    4.70    0.36 
   5   4   6    5.08    0.55 
  -5   4  -6    5.92    1.14 
  -5   4  -6    4.03    0.41 
  -5   4  -6    4.63    0.63 
   7  -5  -6    0.66    0.89 
  -7   5   6    1.18    0.36 
  -7   5   6    1.17    0.30 
  -6   5   6    7.05    0.81 
  -6   5   6    6.64    0.65 
  -6   5   6    6.85    0.77 
   6   5  -6    7.19    0.49 
  -5   5   6   11.40    1.12 
   5   5  -6   11.63    0.80 
  -5   5   6   10.78    1.07 
  -5   5   6   11.21    0.95 
   4   5  -6    2.62    0.22 
  -4   5   6    3.17    0.65 
  -4   5   6    2.16    0.68 
   4   5  -6    2.15    0.54 
  -4   5   6    2.88    0.44 
  -3   5   6    3.80    0.74 
  -3   5   6    3.99    0.69 
   3   5  -6    3.49    0.29 
   3   5  -6    3.31    0.61 
   2   5  -6    6.66    0.85 
   2   5  -6    8.40    0.57 
  -2   5   6    8.60    0.61 
  -2   5   6    6.40    0.90 
  -2   5   6    6.72    0.99 
  -1   5   6   19.52    1.64 
   1   5  -6   19.94    1.47 
   1   5  -6   20.50    1.40 
  -1   5   6   19.62    1.42 
  -1   5   6   20.37    1.78 
   0   5   6    1.20    0.19 
   0   5   6    1.35    0.38 
   0   5  -6    0.82    0.22 
   0   5  -6    1.12    0.17 
   1   5   6    4.31    0.76 
  -1   5  -6    6.00    0.43 
  -1   5  -6    5.25    0.55 
  -1   5  -6    6.08    0.45 
  -2   5  -6    1.18    0.18 
   2   5   6    2.32    0.59 
  -2   5  -6    1.58    0.35 
  -2   5  -6    1.86    0.21 
  -3   5  -6    5.28    0.44 
  -3   5  -6    5.72    0.56 
  -3   5  -6    5.97    0.42 
   3   5   6    5.80    0.64 
 -11   0   7    2.76    0.59 
 -11   0   7    2.66    0.59 
  11   0  -7    3.30    0.72 
 -10   0   7    8.18    0.80 
  10   0  -7    9.59    3.56 
  10   0  -7    9.45    1.15 
   9   0  -7    6.65    1.22 
   9   0  -7    8.44    3.25 
  -9   0   7    9.02    1.12 
   8   0  -7   18.13    4.58 
   7   0  -7    5.42    2.75 
  -7   0   7    2.46    2.65 
  -6   0   7    2.88    2.13 
   6   0  -7    3.92    2.94 
   6   0  -7    1.88    0.86 
  -5   0   7    4.12    2.01 
   5   0  -7    1.39    0.71 
  -4   0   7   47.75    4.64 
   4   0  -7   53.41    4.60 
   4   0  -7   47.64    3.82 
   3   0  -7    3.09    1.62 
   3   0  -7    3.44    0.81 
   2   0  -7   10.94    1.96 
  -1   0   7   10.00    1.71 
  -1   0   7    5.95    2.10 
   1   0  -7   10.87    2.03 
   0   0   7   10.64    1.82 
   0   0   7   16.37    2.71 
   0   0   7   12.66    2.31 
   0   0  -7   13.83    1.44 
   0   0  -7   11.36    2.07 
   1   0   7    8.47    2.40 
  -1   0  -7    8.02    2.14 
   1   0   7    9.11    1.19 
   1   0   7    9.24    2.26 
   2   0   7   -0.72    1.72 
   2   0   7    0.50    2.09 
   2   0   7   -0.62    2.28 
   2   0   7    0.26    0.67 
  -2   0  -7   -1.23    1.56 
  -3   0  -7    2.26    2.06 
   3   0   7    4.64    2.14 
   3   0   7    3.56    0.98 
   3   0   7    4.35    2.47 
   4   0   7   20.47    1.91 
   4   0   7   14.98    2.02 
   5   0   7    2.44    1.27 
   5   0   7    1.15    1.01 
   5   0   7    2.60    0.81 
  -5   0  -7    1.40    0.58 
   6   0   7    0.52    0.58 
   6   0   7    1.14    0.86 
  -6   0  -7    1.57    0.47 
   6   0   7    1.74    1.21 
  -6   0  -7    1.44    0.41 
  -6   0  -7    0.74    0.50 
   7   0   7   20.34    2.03 
  -7   0  -7   13.73    1.31 
   7   0   7   13.29    1.30 
   7   0   7   12.22    1.23 
  11  -1  -7    3.38    0.87 
 -11  -1   7    3.03    0.52 
 -11  -1   7    5.57    0.60 
  11   1  -7    4.60    0.68 
 -11   1   7    4.49    0.66 
 -11   1   7    3.96    0.60 
 -11   1   7    4.29    0.89 
  10  -1  -7    1.82    0.48 
  10  -1  -7    1.32    0.63 
  10  -1  -7    0.49    3.02 
  10  -1  -7    1.28    0.43 
  10   1  -7    1.33    0.47 
 -10   1   7    1.65    0.73 
  10   1  -7   -0.52    2.43 
 -10   1   7    1.65    1.28 
 -10   1   7    2.05    0.80 
 -10   1   7    1.93    0.64 
 -10   1   7    1.76    0.49 
   9  -1  -7    9.25    1.43 
   9  -1  -7   12.62    3.95 
   9  -1  -7    9.47    1.91 
  -9   1   7    9.69    1.29 
  -9   1   7    9.25    1.49 
   9   1  -7   10.23    1.11 
  -9   1   7   10.98    1.21 
   9   1  -7   10.81    1.11 
  -9   1   7    9.92    1.09 
  -9   1   7    9.31    1.92 
   9   1  -7    9.88    3.47 
  -9   1   7   10.28    2.29 
   8  -1  -7   37.92    3.42 
   8  -1  -7   41.17    3.48 
   8  -1  -7   51.93    6.32 
   8   1  -7   42.73    5.24 
  -8   1   7   38.39    3.62 
  -8   1   7   40.87    3.22 
   7  -1  -7   37.94    3.12 
   7  -1  -7   34.80    3.21 
   7  -1  -7   28.61    4.99 
  -7   1   7   39.74    3.25 
  -7   1   7   36.14    2.84 
  -7   1   7   26.81    3.71 
   6  -1  -7   54.77    4.49 
   6  -1  -7   59.52    4.45 
  -6   1   7   54.71    4.20 
  -6   1   7   57.20    5.16 
   5  -1  -7   12.92    2.02 
  -5  -1   7   19.47    1.80 
   5  -1  -7   14.83    1.69 
   5  -1  -7   17.37    1.61 
  -5   1   7   14.02    1.35 
  -5   1   7   14.22    2.49 
   5   1  -7   12.45    1.41 
  -4  -1   7   13.44    1.47 
   4  -1  -7   12.20    1.25 
   4  -1  -7   13.42    1.50 
   4  -1  -7   11.74    1.36 
  -4   1   7    9.74    1.91 
  -4   1   7   11.76    1.22 
   4   1  -7   14.55    1.44 
  -3  -1   7    0.50    0.77 
   3  -1  -7    0.98    0.74 
   3  -1  -7    0.94    0.49 
   3  -1  -7    1.01    0.57 
  -3   1   7    0.93    1.13 
   3   1  -7    1.06    0.60 
   3   1  -7    2.10    1.20 
  -2  -1   7   76.92    6.31 
   2  -1  -7   89.36    6.40 
   2  -1  -7   80.55    6.18 
   2  -1  -7   81.16    6.34 
   2   1  -7   95.06    6.38 
   2   1  -7   86.08    6.66 
  -2   1   7  102.14    6.81 
  -1  -1   7    7.18    1.14 
   1  -1  -7    7.40    0.86 
  -1  -1   7    7.16    0.94 
   1  -1  -7    7.21    0.97 
  -1  -1   7    4.80    1.44 
   1  -1  -7    7.32    0.98 
  -1   1   7    7.38    2.11 
   1   1  -7    7.51    1.10 
   1   1  -7    7.90    1.55 
   0  -1   7   14.39    3.14 
   0  -1  -7   19.46    1.55 
   0  -1  -7   18.92    1.72 
   0  -1   7   16.55    2.31 
   0  -1   7   15.77    1.61 
   0   1  -7   17.45    2.22 
   0   1   7   16.55    2.59 
   0   1   7   18.10    1.60 
   0   1   7   16.01    1.74 
   1  -1   7    2.74    1.73 
   1  -1   7    1.91    2.20 
   1   1   7    2.64    0.77 
  -1   1  -7    2.01    0.61 
   1   1   7    2.51    0.89 
   1   1   7    4.09    1.99 
  -1   1  -7    2.15    1.34 
   2  -1   7   11.10    2.55 
   2  -1   7    8.18    3.14 
  -2   1  -7    9.96    1.58 
   2   1   7   13.08    2.56 
   2   1   7   13.37    1.61 
  -2   1  -7    8.18    1.86 
   2   1   7   11.27    1.26 
   3  -1   7   10.03    2.60 
   3  -1   7    6.47    3.04 
   3   1   7    9.78    1.31 
   3   1   7   11.95    1.60 
  -3   1  -7    5.39    1.79 
   3   1   7   10.34    2.55 
   4  -1   7   16.92    3.30 
   4   1   7   16.57    1.77 
   5  -1   7   11.88    1.59 
  -5  -1  -7    8.34    1.72 
   5  -1   7   12.12    2.31 
   5  -1   7   10.35    1.23 
  -5   1  -7   11.18    1.20 
  -5   1  -7    6.65    1.89 
   5   1   7    9.90    1.92 
  -5   1  -7    9.43    1.12 
   5   1   7    9.28    1.34 
   5   1   7   11.59    1.15 
   5   1   7    8.92    1.38 
   6  -1   7    0.18    0.72 
   6  -1   7   -0.31    0.99 
   6   1   7    0.70    0.49 
   6   1   7    0.04    0.95 
   6   1   7   -0.30    0.75 
  -6   1  -7    0.62    0.67 
  -6   1  -7   -0.16    0.43 
   7  -1   7    1.29    0.78 
  -7  -1  -7    1.43    0.44 
  -7  -1  -7    1.90    0.41 
  -7  -1  -7    1.01    0.67 
   7  -1   7    1.65    0.60 
   7   1   7    0.78    0.36 
  -7   1  -7    1.32    0.40 
 -11  -2   7    3.76    1.73 
 -11   2   7    4.32    0.60 
 -11   2   7    4.18    1.46 
 -11   2   7    4.15    0.55 
 -11   2   7    4.27    0.63 
  10  -2  -7    4.71    1.41 
 -10  -2   7    6.94    1.92 
  10  -2  -7    6.19    1.05 
  10  -2  -7    6.58    1.18 
 -10   2   7    5.72    1.09 
  10   2  -7    5.95    0.69 
 -10   2   7    8.07    1.92 
 -10   2   7    6.78    0.78 
 -10   2   7    6.95    0.88 
 -10   2   7    5.93    1.39 
 -10   2   7    6.90    0.89 
   9  -2  -7   16.32    2.39 
   9  -2  -7   15.39    2.09 
   9  -2  -7   16.42    2.16 
  -9  -2   7   18.28    2.77 
   9  -2  -7   30.84    5.46 
  -9   2   7   17.87    1.65 
  -9   2   7   24.35    2.74 
  -9   2   7   18.85    1.62 
   9   2  -7   18.65    1.48 
  -9   2   7   16.74    2.35 
  -9   2   7   18.91    1.93 
  -9   2   7   17.79    1.55 
   8  -2  -7    0.65    1.44 
   8  -2  -7   -1.00    0.91 
   8  -2  -7    0.22    1.17 
  -8  -2   7    0.36    1.50 
   8  -2  -7    1.22    1.02 
   8  -2  -7   -4.02    3.19 
  -8   2   7   -0.75    1.22 
  -8   2   7    0.78    0.83 
   8   2  -7    0.08    0.38 
  -8   2   7    0.11    0.40 
  -8   2   7    0.56    1.24 
  -8   2   7    0.95    0.54 
  -8   2   7    0.14    0.45 
  -8   2   7   -0.41    0.52 
   7  -2  -7    9.80    3.75 
  -7  -2   7    8.56    1.57 
   7  -2  -7    6.49    1.52 
   7  -2  -7    5.47    1.59 
   7  -2  -7    6.04    1.48 
  -7   2   7    6.21    1.58 
  -7   2   7    5.49    0.96 
  -6  -2   7   17.29    2.01 
   6  -2  -7   16.17    1.74 
   6  -2  -7   17.23    2.03 
   6  -2  -7   16.43    2.06 
  -6   2   7   17.21    2.14 
  -6   2   7   17.67    1.59 
   5  -2  -7    1.37    0.84 
   5  -2  -7    4.32    1.19 
   5  -2  -7    2.83    0.86 
  -5  -2   7    2.45    1.01 
  -5   2   7    2.63    0.67 
   4  -2  -7   99.56    6.65 
   4  -2  -7   84.40    6.72 
  -4  -2   7   99.20    6.81 
   4  -2  -7   81.86    6.82 
  -4   2   7   95.26    6.58 
   3  -2  -7   56.91    4.64 
   3  -2  -7   61.71    4.72 
   3  -2  -7   67.43    4.51 
  -3  -2   7   62.22    4.66 
  -3   2   7   56.66    4.43 
   2  -2  -7    9.83    1.08 
  -2  -2   7    9.34    1.30 
   2  -2  -7    9.22    1.11 
  -2   2   7    9.94    1.97 
  -2   2   7    9.69    1.01 
  -1  -2   7   10.89    3.01 
   1  -2  -7   12.07    1.33 
  -1  -2   7   13.29    1.52 
   1  -2  -7   13.84    1.25 
  -1   2   7   11.19    1.14 
  -1   2   7   11.07    2.17 
   0  -2   7   30.01    4.19 
   0  -2  -7   26.62    2.07 
   0  -2   7   24.10    2.38 
   0  -2   7   30.27    3.45 
   0   2   7   23.84    3.04 
   0   2   7   24.38    2.31 
   0   2  -7   23.09    2.21 
   0   2   7   22.43    1.98 
   1  -2   7    1.42    1.09 
  -1  -2  -7    0.61    0.63 
   1  -2   7    1.50    2.35 
   1  -2   7    1.02    1.57 
  -1   2  -7    2.07    0.83 
   1   2   7    1.31    0.54 
   1   2   7    1.41    0.77 
   1   2   7    0.50    1.80 
   2  -2   7   36.87    5.08 
   2  -2   7   30.62    3.01 
   2  -2   7   34.24    3.70 
   2   2   7   29.53    2.86 
   2   2   7   28.92    3.50 
   2   2   7   27.50    2.39 
   3  -2   7    3.15    1.84 
   3  -2   7    3.02    4.15 
   3   2   7    1.80    1.49 
   3   2   7    2.56    0.96 
   3   2   7    2.61    0.74 
   4  -2   7   10.16    2.79 
  -4  -2  -7   11.96    2.04 
   4  -2   7   13.24    3.05 
  -4   2  -7   14.97    1.25 
   4   2   7   10.12    1.26 
  -4   2  -7   13.07    1.27 
  -4   2  -7   13.40    2.07 
   4   2   7   12.78    1.19 
  -4   2  -7   13.68    1.20 
  -5  -2  -7   11.63    1.92 
   5  -2   7    6.73    2.37 
   5  -2   7    8.22    2.74 
  -5   2  -7    9.07    1.11 
  -5   2  -7   13.00    1.97 
  -5   2  -7   14.78    1.36 
  -5   2  -7   12.53    1.09 
   5   2   7   10.19    1.03 
  -6  -2  -7    4.72    1.43 
   6  -2   7    4.77    0.78 
   6  -2   7    4.58    0.77 
  -6   2  -7    3.76    0.65 
  -6   2  -7    5.10    1.45 
   6   2   7    5.32    0.61 
  -7  -2  -7    3.88    0.87 
   7  -2   7    4.00    0.89 
  -7   2  -7    3.95    0.53 
  -7   2  -7    5.77    1.29 
 -10  -3   7    2.02    1.15 
  10  -3  -7    1.36    0.88 
  10  -3  -7    0.48    0.91 
  10   3  -7    0.52    0.15 
 -10   3   7    1.63    0.48 
 -10   3   7    1.52    0.35 
  10   3  -7    0.75    0.27 
 -10   3   7    1.75    0.92 
   9  -3  -7   14.56    2.13 
  -9  -3   7   14.92    2.42 
   9  -3  -7   14.69    1.81 
   9  -3  -7    9.29    2.16 
   9   3  -7   14.37    1.16 
   9   3  -7   10.66    1.09 
  -9   3   7   14.11    1.22 
  -9   3   7   12.99    2.16 
  -9   3   7   12.38    1.92 
  -9   3   7   13.82    1.28 
  -9   3   7   12.47    1.13 
   8  -3  -7    1.34    0.94 
   8  -3  -7    0.30    1.51 
  -8  -3   7    2.11    1.61 
   8  -3  -7    2.62    1.69 
   8  -3  -7    2.44    1.31 
  -8   3   7    2.70    0.65 
  -8   3   7    2.59    1.27 
   8   3  -7    1.47    0.41 
  -8   3   7    2.74    0.66 
  -8   3   7    1.60    0.50 
  -8   3   7    2.17    1.26 
   7  -3  -7   11.24    1.90 
  -7  -3   7   11.53    1.78 
  -7  -3   7   11.82    2.59 
   7  -3  -7   14.04    2.49 
   7  -3  -7    9.43    1.54 
   7  -3  -7   10.46    2.00 
   7  -3  -7   11.64    1.98 
  -7   3   7   11.86    1.14 
  -7   3   7   13.41    2.33 
  -7   3   7   12.21    2.05 
  -7   3   7   11.84    1.27 
  -7   3   7   11.78    1.27 
  -7   3   7   13.07    1.21 
   7   3  -7   11.80    1.11 
   6  -3  -7   23.62    3.89 
   6  -3  -7   18.14    2.26 
   6  -3  -7   15.97    2.14 
   6  -3  -7   17.60    2.17 
   6  -3  -7   14.26    1.76 
  -6  -3   7   16.33    2.04 
   6   3  -7   15.10    1.36 
  -6   3   7   16.24    1.58 
  -6   3   7   17.87    2.26 
  -6   3   7   11.75    1.70 
   6   3  -7   21.97    1.61 
  -6   3   7   18.02    1.72 
  -6   3   7   22.51    1.90 
   6   3  -7   18.22    1.26 
  -6   3   7   16.48    1.29 
   5  -3  -7   11.90    1.82 
   5  -3  -7   14.66    1.53 
  -5  -3   7   13.94    1.77 
   5  -3  -7   11.48    1.77 
  -5   3   7   12.97    0.96 
   5   3  -7   10.91    0.92 
   4  -3  -7   44.23    3.59 
   4  -3  -7   43.56    3.54 
   4  -3  -7   42.54    4.45 
  -4  -3   7   45.16    3.71 
   4   3  -7   48.92    3.20 
   3  -3  -7   12.77    1.47 
   3  -3  -7   14.91    1.49 
  -3  -3   7   15.39    1.73 
   3   3  -7   14.79    1.07 
  -2  -3   7   16.80    1.86 
   2  -3  -7   19.65    1.60 
  -2   3   7   15.82    2.20 
  -2   3   7   15.29    1.19 
   2   3  -7   15.86    1.20 
   1  -3  -7    1.38    0.67 
  -1  -3   7    0.84    0.92 
  -1   3   7    0.64    0.20 
  -1   3   7    0.67    1.05 
   1   3  -7    0.92    0.22 
   0  -3  -7    0.32    0.63 
   0  -3   7   -0.23    1.00 
   0  -3   7    2.93    3.94 
   0   3   7    0.40    0.17 
   0   3  -7   -0.20    0.17 
   0   3   7   -0.95    1.18 
  -1  -3  -7   23.70    2.10 
   1  -3   7   25.99    3.57 
   1  -3   7   25.68    2.60 
   1  -3   7   16.75    4.51 
   1   3   7   24.43    1.70 
   1   3   7   20.70    2.88 
   1   3   7   25.77    2.51 
  -1   3  -7   23.25    1.74 
   2  -3   7    2.73    2.03 
   2  -3   7    1.25    1.44 
   2  -3   7    2.77    2.01 
   2   3   7    2.40    0.42 
   2   3   7    4.68    0.77 
   2   3   7    1.82    0.61 
   2   3   7    2.12    1.35 
  -2   3  -7    3.42    0.63 
   2   3   7    3.84    0.33 
  -2   3  -7    3.86    0.58 
   3  -3   7    7.94    2.89 
   3  -3   7    3.16    1.89 
   3  -3   7    5.04    2.23 
   3   3   7    5.97    0.88 
  -3   3  -7    5.83    0.70 
  -3   3  -7    4.36    1.69 
   3   3   7    8.01    0.61 
   4  -3   7   36.29    4.18 
  -4  -3  -7   36.63    3.37 
  -4   3  -7   34.20    2.56 
   4   3   7   34.43    2.50 
   4   3   7   35.90    2.67 
  -4   3  -7   34.70    3.21 
   5  -3   7    5.16    2.12 
  -5  -3  -7    7.54    1.63 
  -5   3  -7    8.14    1.58 
   5   3   7    8.72    0.67 
   5   3   7    8.12    0.92 
  -5   3  -7    7.35    0.74 
   6  -3   7    7.56    1.02 
  -6  -3  -7    4.88    1.19 
  -6   3  -7    5.75    0.54 
  -6   3  -7    6.42    1.24 
   6   3   7    5.59    0.66 
   6   3   7    5.84    0.50 
   9  -4  -7   -0.08    0.81 
  -9  -4   7    0.48    0.93 
   9   4  -7    0.09    0.08 
  -9   4   7    0.06    0.20 
   9   4  -7    0.16    0.08 
  -9   4   7    1.80    1.24 
  -9   4   7    0.19    0.14 
   9   4  -7    0.31    0.18 
  -9   4   7    0.10    0.25 
  -9   4   7    0.01    0.23 
   8  -4  -7   12.77    1.95 
  -8  -4   7   12.61    2.13 
   8  -4  -7   11.93    1.53 
  -8   4   7    9.87    1.06 
  -8   4   7   11.25    0.89 
   8   4  -7   13.05    0.96 
  -8   4   7   10.80    1.06 
  -8   4   7   11.74    1.04 
   8   4  -7   11.25    0.84 
   7  -4  -7    0.99    1.17 
   7  -4  -7    1.65    1.39 
   7   4  -7    0.86    0.29 
  -7   4   7    1.07    0.41 
   7   4  -7    0.43    0.15 
  -7   4   7    0.93    0.22 
  -7   4   7    0.66    0.44 
   6   4  -7    6.35    0.54 
   6   4  -7    6.79    0.70 
  -6   4   7    7.06    0.60 
  -6   4   7    5.80    0.88 
  -6   4   7    5.89    0.91 
  -6   4   7    5.82    0.81 
  -5  -4   7    3.01    1.64 
  -5   4   7    2.18    0.32 
  -5   4   7    1.89    0.50 
   5   4  -7    1.92    0.27 
   5   4  -7    2.41    0.48 
  -5   4   7    2.94    0.76 
   5   4  -7    1.95    0.29 
  -5   4   7    1.67    0.28 
  -5   4   7    1.78    0.49 
   4  -4  -7   23.38    2.22 
  -4  -4   7   27.67    2.51 
  -4   4   7   24.51    2.01 
   4   4  -7   27.03    1.79 
  -4   4   7   24.61    2.13 
  -4   4   7   24.04    1.95 
  -4   4   7   25.89    1.81 
   4   4  -7   24.39    1.77 
   4   4  -7   24.47    1.88 
  -3  -4   7    3.00    1.09 
   3  -4  -7    1.72    0.79 
   3   4  -7    2.24    0.25 
  -3   4   7    2.15    0.60 
   3   4  -7    2.27    0.44 
  -3   4   7    2.14    0.71 
   3   4  -7    1.85    0.28 
   2  -4  -7    9.23    1.10 
  -2  -4   7    6.16    1.43 
  -2   4   7    6.86    1.22 
   2   4  -7    7.75    0.60 
  -2   4   7    5.92    0.93 
   2   4  -7    7.61    0.58 
  -2   4   7    6.61    0.82 
   2   4  -7    8.30    0.74 
  -2   4   7    6.98    1.01 
   1  -4  -7    2.05    0.73 
  -1  -4   7    1.83    1.13 
  -1   4   7    1.27    0.68 
   1   4  -7    1.58    0.27 
   1   4  -7    1.93    0.42 
  -1   4   7    2.00    0.31 
  -1   4   7    1.81    0.42 
  -1   4   7    2.60    0.72 
  -1   4   7    1.89    0.47 
   1   4  -7    2.54    0.28 
   0  -4   7    1.18    1.07 
   0  -4  -7    0.54    0.62 
   0   4   7    0.69    0.65 
   0   4  -7    0.48    0.15 
   0   4   7    0.40    0.32 
   0   4   7    0.58    0.41 
   0   4   7    0.69    0.15 
   0   4  -7    0.56    0.15 
   0   4   7    1.18    0.62 
   0   4  -7    1.16    0.32 
  -1   4  -7    1.68    0.45 
   1   4   7    1.28    0.26 
   1   4   7    1.31    0.45 
  -1   4  -7    1.64    0.28 
   1   4   7    1.47    0.37 
   1   4   7    1.26    0.71 
   2  -4   7    3.83    1.79 
  -2   4  -7    5.96    0.69 
   2   4   7    5.73    0.85 
   2   4   7    5.86    0.47 
  -2   4  -7    5.58    0.51 
   2   4   7    5.11    0.67 
   3  -4   7    1.30    1.54 
   3  -4   7    2.99    2.82 
  -3   4  -7    1.42    0.29 
   3   4   7    1.38    0.38 
   3   4   7    2.29    0.50 
   3   4   7    1.25    0.24 
  -3   4  -7    1.16    0.34 
   4  -4   7    2.34    1.42 
  -4   4  -7    4.19    0.55 
   4   4   7    4.04    0.32 
   4   4   7    4.08    0.54 
  -4   4  -7    3.30    0.38 
  -4   4  -7    2.87    1.07 
   5  -4   7    3.64    1.59 
  -5  -4  -7    4.78    1.24 
  -5   4  -7    6.82    0.56 
  -5   4  -7    8.57    1.50 
  -5   4  -7    7.74    0.70 
   5   4   7    6.34    0.59 
  -7   5   7    6.34    0.67 
  -7   5   7    5.66    0.68 
  -6   5   7    7.88    0.83 
   6   5  -7    6.93    0.50 
  -6   5   7    7.30    0.66 
  -6   5   7    7.32    0.72 
  -5   5   7    4.57    0.73 
   5   5  -7    5.58    0.40 
  -5   5   7    5.24    0.58 
  -5   5   7    5.67    0.68 
  -4   5   7    5.11    0.68 
  -4   5   7    5.39    0.77 
   4   5  -7    4.40    0.35 
  -4   5   7    4.61    0.54 
   3   5  -7    3.88    0.39 
   3   5  -7    3.64    0.30 
  -3   5   7    4.09    0.54 
  -3   5   7    2.66    0.70 
  -3   5   7    3.91    0.68 
   2   5  -7    1.71    0.50 
   2   5  -7    2.22    0.21 
   2   5  -7    2.01    0.34 
  -2   5   7    2.34    0.71 
  -1   5   7    1.77    0.54 
  -1   5   7    0.84    0.33 
   1   5  -7    1.07    0.16 
   1   5  -7    1.51    0.29 
   0   5   7    3.76    0.66 
   0   5  -7    3.38    0.30 
   0   5  -7    3.40    0.43 
   0   5  -7    3.97    0.30 
   1   5   7    4.13    0.64 
  -1   5  -7    5.14    0.36 
  -1   5  -7    4.81    0.38 
  -1   5  -7    4.09    0.48 
  -2   5  -7    0.36    0.09 
  -2   5  -7    0.37    0.19 
   2   5   7    0.41    0.26 
  -2   5  -7    0.28    0.06 
  11   0  -8    0.19    0.39 
 -11   0   8    0.31    0.32 
  10   0  -8    0.98    0.56 
  10   0  -8    2.06    2.27 
 -10   0   8    1.21    0.43 
   9   0  -8   16.71    4.61 
   9   0  -8   18.38    1.92 
  -9   0   8   22.82    1.74 
   8   0  -8    3.74    3.19 
  -7   0   8   28.48    4.15 
   7   0  -8   30.69    4.59 
  -7   0   8   32.23    3.07 
   6   0  -8    9.93    1.34 
  -6   0   8    8.17    2.56 
   6   0  -8    9.03    1.34 
   5   0  -8    5.58    2.07 
   5   0  -8    3.50    0.93 
   5   0  -8    2.24    0.69 
  -5   0   8    4.78    2.10 
  -4   0   8    1.84    1.70 
   4   0  -8    1.54    0.73 
  -4   0   8    1.43    0.61 
   4   0  -8    1.39    1.66 
  -3   0   8    4.94    0.90 
   3   0  -8    5.70    1.94 
   3   0  -8    5.28    0.93 
   2   0  -8   54.51    4.84 
   2   0  -8   50.48    4.03 
   1   0  -8   54.15    4.82 
  -1   0   8   44.91    3.74 
   1   0  -8   50.44    3.89 
  -1   0   8   50.89    5.22 
   0   0  -8   -0.05    1.50 
   0   0   8    1.52    1.82 
   0   0  -8    2.19    0.68 
   0   0   8    0.81    1.88 
   0   0   8    1.50    0.68 
   0   0   8    0.08    1.61 
   1   0   8   17.61    4.99 
   1   0   8   24.35    3.33 
  -1   0  -8   23.58    3.21 
   1   0   8   26.99    2.30 
  -1   0  -8   28.20    2.32 
   1   0   8   26.43    3.58 
   2   0   8   15.26    1.59 
  -2   0  -8   10.72    2.64 
   2   0   8   12.83    2.90 
   3   0   8    0.38    0.79 
   4   0   8   26.26    2.97 
   4   0   8   28.71    2.49 
  -4   0  -8   28.96    2.33 
   4   0   8   28.52    2.58 
   5   0   8   12.00    1.55 
  -5   0  -8   10.25    1.24 
  -5   0  -8   11.98    1.05 
   5   0   8   12.43    1.44 
   5   0   8   13.24    2.09 
  -5   0  -8   11.34    1.04 
   6   0   8    0.86    0.48 
  -6   0  -8    0.71    0.49 
   6   0   8    1.08    1.05 
   6   0   8   -0.14    0.47 
   7   0   8    0.01    0.54 
   7   0   8    0.18    0.31 
  -7   0  -8    0.00    0.32 
 -11  -1   8    3.75    0.55 
  11  -1  -8    5.19    0.82 
  11   1  -8    3.03    0.57 
 -11   1   8    3.50    0.55 
 -11   1   8    2.89    0.55 
 -11   1   8    3.07    0.80 
 -11   1   8    3.63    0.78 
  10  -1  -8   25.43    1.74 
  10  -1  -8   18.34    4.84 
  10  -1  -8   22.34    2.06 
 -10   1   8   22.33    1.93 
 -10   1   8   26.31    2.18 
  10   1  -8   24.28    1.88 
 -10   1   8   20.84    4.11 
 -10   1   8   21.29    1.87 
  10   1  -8   20.98    3.82 
   9  -1  -8    3.45    0.84 
  -9  -1   8    3.26    1.64 
   9  -1  -8    5.66    3.16 
   9  -1  -8    3.62    1.08 
   9  -1  -8    3.94    0.85 
  -9   1   8    5.04    1.63 
  -9   1   8    4.90    1.46 
  -9   1   8    3.69    0.94 
   9   1  -8    4.41    3.71 
  -9   1   8    4.48    0.73 
   9   1  -8    3.22    0.82 
  -9   1   8    4.91    1.14 
  -9   1   8    3.85    0.78 
   9   1  -8    4.57    0.78 
   8  -1  -8    6.93    1.63 
   8  -1  -8    7.83    1.57 
   8  -1  -8    8.86    3.95 
   8  -1  -8    6.66    1.60 
  -8  -1   8    8.73    2.36 
   8   1  -8    8.11    1.00 
  -8   1   8    9.31    1.41 
  -8   1   8    5.73    1.94 
  -8   1   8    6.92    0.95 
   8   1  -8    7.56    0.94 
  -8   1   8    7.13    1.16 
  -8   1   8    9.21    2.28 
   7  -1  -8    9.38    1.66 
   7  -1  -8    8.85    3.66 
   7  -1  -8    7.43    1.46 
   7  -1  -8   11.30    1.60 
  -7   1   8    8.79    1.96 
  -7   1   8    6.98    1.07 
   6  -1  -8    7.25    1.32 
   6  -1  -8    8.66    1.40 
  -6   1   8    6.33    0.95 
  -6   1   8    6.38    2.32 
  -6   1   8    4.91    1.56 
   5  -1  -8    0.81    0.80 
   5  -1  -8    2.70    0.86 
  -5   1   8    1.57    0.56 
  -5   1   8    3.97    1.94 
   4  -1  -8    8.04    1.30 
   4  -1  -8    9.63    1.41 
   4  -1  -8    8.67    1.21 
   4   1  -8   11.82    1.32 
  -4   1   8    7.46    1.78 
  -4   1   8   11.95    1.15 
   4   1  -8   11.04    1.68 
   3  -1  -8   12.93    1.45 
   3  -1  -8   13.36    1.60 
   3  -1  -8   12.36    1.33 
   3   1  -8   13.44    1.46 
  -3   1   8   13.38    1.89 
  -3   1   8   14.24    1.34 
   3   1  -8   16.02    1.94 
   2  -1  -8   88.87    6.77 
   2  -1  -8   85.08    6.57 
   2  -1  -8   94.48    6.85 
  -2   1   8   95.47    6.64 
   2   1  -8   99.70    6.83 
   2   1  -8   89.28    7.09 
   1  -1  -8    8.56    1.09 
   1  -1  -8   12.98    1.38 
  -1  -1   8   16.31    2.56 
  -1  -1   8   12.05    3.22 
   1  -1  -8   12.01    1.37 
  -1   1   8   11.00    1.77 
   1   1  -8   10.37    1.78 
  -1   1   8   10.72    1.17 
   1   1  -8   10.10    1.21 
   0  -1  -8    7.76    1.20 
   0  -1   8   10.21    3.01 
   0  -1   8   10.12    2.46 
   0   1  -8   10.88    1.88 
   0   1   8   11.25    2.52 
   0   1  -8   10.50    1.26 
   0   1   8   10.21    1.36 
   0   1   8   13.38    1.23 
   1  -1   8   49.59    4.75 
   1  -1   8   42.31    5.43 
   1   1   8   49.23    4.06 
  -1   1  -8   39.19    4.16 
   1   1   8   49.49    4.88 
  -1   1  -8   48.59    3.75 
   1   1   8   50.58    3.69 
   2  -1   8    3.90    2.76 
   2  -1   8    6.09    2.14 
  -2   1  -8    7.16    1.43 
   2   1   8    7.09    1.15 
   2   1   8    6.88    2.67 
  -2   1  -8    2.70    1.56 
   2   1   8    5.98    1.20 
   3  -1   8   22.48    3.75 
   3   1   8   26.44    2.31 
   4  -1   8    1.81    2.40 
   4  -1   8    1.04    0.83 
  -4  -1  -8    0.68    1.00 
   4  -1   8    0.10    0.52 
   4  -1   8    0.58    1.20 
   4   1   8    1.25    0.50 
   4   1   8    0.56    0.80 
   4   1   8    2.20    1.11 
  -4   1  -8    0.03    0.51 
  -4   1  -8    0.62    0.46 
  -4   1  -8    0.41    1.02 
   4   1   8    1.03    0.59 
   5  -1   8    1.09    1.13 
  -5  -1  -8    1.13    1.05 
   5  -1   8    1.66    0.44 
   5  -1   8    1.75    0.43 
   5  -1   8    0.83    0.81 
  -5   1  -8    2.62    1.72 
   5   1   8    2.06    1.14 
   5   1   8   -0.35    0.64 
  -5   1  -8    1.17    0.46 
  -5   1  -8    1.22    0.58 
   5   1   8    1.83    0.53 
  -6  -1  -8    2.19    0.51 
   6  -1   8    0.29    0.76 
  -6  -1  -8    2.24    0.47 
   6  -1   8    2.58    0.69 
   6   1   8    3.74    0.69 
  -6   1  -8    2.27    0.63 
   6   1   8    4.50    1.27 
  -7  -1  -8    0.55    0.42 
   7  -1   8    2.04    0.45 
   7   1   8    3.17    0.50 
 -11  -2   8   15.23    1.21 
  11  -2  -8   18.20    1.36 
 -11  -2   8   15.37    1.25 
 -11   2   8   14.67    1.23 
 -11   2   8   13.30    1.80 
 -11   2   8   14.47    1.22 
 -11   2   8   13.18    1.17 
  10  -2  -8    3.50    1.16 
 -10  -2   8    3.43    1.39 
  10  -2  -8    3.51    0.73 
  10  -2  -8    2.69    0.73 
 -10   2   8    3.62    0.59 
  10   2  -8    3.84    0.55 
 -10   2   8    1.94    1.06 
 -10   2   8    3.07    0.65 
 -10   2   8    2.58    1.24 
 -10   2   8    3.02    0.74 
  -9  -2   8   11.56    2.26 
   9  -2  -8    8.24    1.86 
   9  -2  -8    9.93    3.67 
   9  -2  -8   10.56    1.66 
   9  -2  -8    7.93    1.71 
  -9   2   8    9.30    0.98 
  -9   2   8    9.72    1.09 
  -9   2   8    8.84    1.12 
  -9   2   8    7.72    2.00 
  -9   2   8   11.79    2.40 
   9   2  -8    8.66    0.93 
  -9   2   8    9.25    1.11 
   8  -2  -8    2.77    3.68 
   8  -2  -8    1.36    1.00 
  -8  -2   8    4.08    1.81 
   8  -2  -8    0.48    1.26 
   8  -2  -8    1.08    1.08 
   8  -2  -8    4.01    1.28 
  -8   2   8    1.56    1.33 
   8   2  -8    3.06    0.63 
  -8   2   8    3.38    0.84 
  -8   2   8    1.67    1.27 
  -8   2   8    2.03    0.60 
  -8   2   8    2.23    0.60 
  -8   2   8    2.39    0.64 
   7  -2  -8   29.06    2.96 
   7  -2  -8   30.33    2.70 
   7  -2  -8   29.48    2.68 
   7  -2  -8   36.82    4.34 
  -7  -2   8   23.09    4.48 
  -7   2   8   30.79    2.97 
  -7   2   8   22.64    2.78 
  -7   2   8   29.72    2.37 
  -7   2   8   19.40    3.35 
   6  -2  -8   25.15    2.74 
  -6  -2   8   24.23    2.48 
   6  -2  -8   30.67    2.60 
   6  -2  -8   25.71    2.49 
   6  -2  -8   24.65    2.59 
  -6   2   8   26.54    2.64 
  -6   2   8   25.86    2.20 
   5  -2  -8    7.70    1.09 
   5  -2  -8    6.82    1.51 
  -5  -2   8    6.59    1.32 
   5  -2  -8    5.56    1.45 
  -5   2   8    6.65    0.96 
  -5   2   8    5.54    1.48 
   4  -2  -8   16.21    1.94 
  -4  -2   8   25.04    2.05 
   4  -2  -8   20.38    1.76 
   4  -2  -8   13.75    1.98 
  -4   2   8   20.03    1.68 
   3  -2  -8   70.36    5.67 
  -3  -2   8   81.76    5.79 
   3  -2  -8   77.91    5.56 
   3  -2  -8   72.84    5.77 
  -3   2   8   78.72    5.52 
  -2  -2   8    5.74    1.16 
   2  -2  -8    4.37    0.84 
  -2   2   8    3.98    0.76 
   2   2  -8    3.77    0.97 
  -2   2   8    3.39    1.40 
   1  -2  -8   69.26    5.32 
  -1  -2   8   61.21    6.12 
  -1  -2   8   75.97    5.62 
  -1  -2   8   80.76    7.51 
  -1   2   8   69.40    5.94 
   1   2  -8   71.28    5.38 
  -1   2   8   84.17    5.34 
   0  -2  -8    1.18    0.68 
   0  -2   8    0.48    2.41 
   0  -2   8    0.42    1.07 
   0  -2   8    0.63    1.74 
   0   2   8    1.07    0.56 
   0   2   8    0.96    0.84 
   0   2  -8    1.74    0.76 
   1  -2   8    1.33    2.58 
   1  -2   8    1.91    1.71 
   1   2   8   -0.52    1.78 
  -1   2  -8    0.08    0.89 
   1   2   8    1.53    0.83 
   1   2   8    1.43    0.58 
   2  -2   8   22.41    3.49 
   2   2   8   20.32    1.86 
   2   2   8   23.26    2.88 
   3  -2   8   15.59    2.44 
  -3  -2  -8   11.91    1.97 
   3  -2   8    9.63    2.77 
   3  -2   8   14.03    3.08 
  -3   2  -8   11.60    1.13 
   3   2   8   11.88    1.27 
   3   2   8   11.60    1.15 
  -3   2  -8   13.36    1.14 
  -3   2  -8   11.93    2.07 
   4  -2   8    2.44    1.74 
  -4  -2  -8    6.44    1.58 
   4  -2   8    5.46    2.09 
   4  -2   8    2.92    1.34 
  -4   2  -8    5.24    0.78 
  -4   2  -8    5.35    0.83 
  -4   2  -8    5.58    1.67 
  -4   2  -8    5.58    0.74 
   4   2   8    5.51    0.71 
  -5  -2  -8    8.92    1.70 
   5  -2   8   12.28    1.61 
   5   2   8   12.60    1.01 
  -5   2  -8   11.25    1.05 
  -5   2  -8   10.49    1.83 
   6  -2   8    0.67    0.56 
  -6   2  -8    0.43    0.27 
  -6   2  -8    0.89    0.71 
 -10  -3   8    4.31    1.39 
  10  -3  -8    5.60    1.67 
  10   3  -8    5.50    0.56 
 -10   3   8    4.61    1.47 
 -10   3   8    5.24    0.59 
 -10   3   8    5.53    0.64 
  10   3  -8    5.37    0.46 
   9  -3  -8   14.32    1.70 
  -9  -3   8   13.34    2.24 
   9  -3  -8   13.48    2.00 
  -9   3   8   12.53    2.33 
  -9   3   8   13.63    1.19 
  -9   3   8   13.48    1.28 
  -9   3   8   11.26    1.87 
   9   3  -8   13.51    1.13 
  -8  -3   8   10.19    2.34 
   8  -3  -8    6.27    1.69 
   8  -3  -8   14.64    1.76 
   8  -3  -8    8.22    2.04 
   8   3  -8    9.62    0.95 
  -8   3   8    9.78    2.04 
  -8   3   8    9.86    1.00 
  -8   3   8    9.98    1.14 
  -8   3   8    9.72    2.26 
   7  -3  -8    7.17    1.84 
   7  -3  -8    7.15    1.73 
   7  -3  -8    9.04    2.15 
  -7  -3   8   10.03    2.36 
   7  -3  -8    9.34    1.64 
   7   3  -8    8.48    0.88 
  -7   3   8    8.52    0.96 
  -7   3   8    6.75    1.87 
  -7   3   8    8.59    1.23 
  -7   3   8    9.40    1.14 
  -7   3   8    6.39    2.34 
  -6  -3   8    8.25    1.46 
   6  -3  -8    7.55    1.65 
   6  -3  -8    7.81    1.64 
   6  -3  -8    9.18    2.14 
   6  -3  -8    6.50    1.25 
  -6  -3   8   13.19    2.60 
   6  -3  -8    7.55    1.81 
  -6   3   8    8.37    0.98 
  -6   3   8    7.78    1.67 
  -6   3   8    7.84    0.71 
  -6   3   8    8.20    2.45 
   6   3  -8    8.36    0.68 
  -6   3   8    9.69    1.13 
  -6   3   8    7.43    1.07 
   6   3  -8    9.42    0.89 
  -6   3   8    8.99    0.97 
   5  -3  -8   42.03    3.40 
   5  -3  -8   35.51    3.25 
   5  -3  -8   36.34    3.43 
   5  -3  -8   35.16    3.01 
  -5  -3   8   39.28    3.25 
   5   3  -8   35.44    2.60 
   4  -3  -8  117.75    8.71 
  -4  -3   8  126.17    8.95 
   3  -3  -8    9.24    1.22 
  -3  -3   8    9.21    1.55 
   3   3  -8   11.28    0.83 
  -2  -3   8   15.69    1.85 
  -2  -3   8   11.72    3.70 
   2  -3  -8   15.55    1.52 
  -2   3   8   15.16    1.08 
   2   3  -8   12.79    1.07 
  -2   3   8   13.77    2.37 
   1  -3  -8    2.74    0.82 
  -1  -3   8    2.82    1.21 
  -1  -3   8    2.13    2.68 
   1   3  -8    2.92    0.35 
  -1   3   8    3.40    0.35 
  -1   3   8    1.85    1.39 
   0  -3  -8    5.90    1.00 
   0  -3   8    5.43    1.56 
   0   3  -8    5.88    0.55 
   0   3   8    6.40    0.52 
   0   3   8    4.39    1.62 
   1  -3   8   29.26    3.73 
   1  -3   8   28.69    3.84 
   1  -3   8   24.46    2.92 
   1   3   8   31.54    2.12 
  -1   3  -8   26.03    2.15 
   1   3   8   28.89    2.07 
   1   3   8   28.52    2.31 
  -1   3  -8   32.10    2.24 
   1   3   8   31.86    2.33 
   2  -3   8    7.11    2.67 
   2  -3   8    7.23    2.22 
  -2  -3  -8    8.02    1.62 
   2  -3   8    8.33    2.48 
   2   3   8    8.23    0.74 
  -2   3  -8    9.60    0.82 
   2   3   8    8.89    0.99 
   2   3   8    7.72    1.01 
  -2   3  -8   10.05    2.05 
   3  -3   8    8.67    2.61 
   3  -3   8    9.91    2.63 
  -3  -3  -8    9.34    1.76 
   3   3   8    9.18    1.02 
  -3   3  -8    7.30    1.76 
  -3   3  -8   10.70    0.90 
   3   3   8   10.51    0.80 
   4  -3   8    5.46    2.30 
  -4  -3  -8   10.55    1.73 
   4  -3   8    4.47    2.54 
   4   3   8   11.29    0.78 
  -4   3  -8    8.71    0.83 
   4   3   8   10.06    1.00 
  -4   3  -8    9.14    1.57 
  -5  -3  -8    0.87    0.90 
   5  -3   8    0.74    1.14 
   5   3   8    0.98    0.19 
   5   3   8    0.83    0.30 
  -5   3  -8    0.87    0.70 
  -5   3  -8    1.15    0.23 
   8  -4  -8    0.97    0.86 
  -8  -4   8    1.87    1.24 
   8  -4  -8    1.75    1.02 
  -8   4   8    2.26    0.45 
  -8   4   8    2.74    0.56 
  -8   4   8    1.53    0.32 
  -8   4   8    2.21    0.48 
   8   4  -8    1.89    0.39 
   8   4  -8    1.80    0.22 
   8   4  -8    1.57    0.22 
   7  -4  -8    0.70    0.80 
  -7  -4   8    2.12    1.98 
   7  -4  -8    1.73    1.28 
  -7   4   8    1.32    0.49 
  -7   4   8    1.00    0.40 
   7   4  -8    1.09    0.20 
   7   4  -8    1.05    0.29 
  -7   4   8    0.72    0.34 
  -7   4   8    0.53    0.21 
   7   4  -8    0.71    0.15 
   6  -4  -8    0.29    1.27 
   6   4  -8    0.17    0.28 
  -6   4   8    0.30    0.33 
  -6   4   8    0.57    0.21 
  -6   4   8    0.79    0.44 
   6   4  -8    0.38    0.14 
   6   4  -8    0.47    0.14 
  -6   4   8    0.67    0.39 
   5   4  -8   10.08    0.77 
  -5   4   8    9.97    0.83 
   5   4  -8   10.55    0.80 
  -5   4   8   10.28    1.04 
  -5   4   8   11.31    1.22 
  -5   4   8   10.42    1.04 
   5   4  -8   10.23    0.92 
  -4   4   8    6.89    0.99 
   4   4  -8    6.86    0.69 
  -4   4   8    6.76    0.81 
   4   4  -8    5.62    0.52 
  -4   4   8    6.56    0.57 
   4   4  -8    6.02    0.51 
   3  -4  -8    8.63    1.40 
  -3  -4   8    7.52    1.95 
   3   4  -8    6.87    0.73 
   3   4  -8    6.70    0.59 
  -3   4   8    7.79    0.86 
   3   4  -8    7.34    0.58 
  -3   4   8    9.14    1.11 
   2  -4  -8    2.12    0.85 
  -2  -4   8    2.50    1.22 
  -2   4   8    1.89    0.30 
  -2   4   8    1.53    0.41 
   2   4  -8    1.70    0.45 
  -2   4   8    1.21    0.42 
   2   4  -8    2.07    0.27 
  -2   4   8    3.17    0.84 
   2   4  -8    1.56    0.27 
   1   4  -8    2.49    0.32 
   1   4  -8    2.51    0.49 
   1   4  -8    2.71    0.30 
  -1   4   8    4.56    0.91 
  -1   4   8    2.52    0.58 
  -1   4   8    2.94    0.34 
  -1   4   8    1.72    0.46 
   0   4  -8   14.46    1.11 
   0   4   8   14.30    1.51 
   0   4  -8   16.05    1.24 
   0   4   8   16.03    1.29 
   0   4   8   14.60    1.10 
   0   4   8   15.40    1.39 
   1  -4   8    1.93    1.60 
   1   4   8    1.33    0.25 
  -1   4  -8    1.89    0.45 
  -1   4  -8    1.31    0.26 
   1   4   8    1.45    0.37 
   1   4   8    0.43    0.38 
   2  -4   8    2.86    1.66 
  -2   4  -8    4.53    0.60 
   2   4   8    4.10    0.38 
  -2   4  -8    5.09    0.42 
   2   4   8    4.31    0.71 
   2   4   8    3.87    0.58 
  -3  -4  -8    8.94    1.59 
   3  -4   8    6.90    2.03 
  -3   4  -8    9.65    0.81 
   3   4   8   11.98    0.79 
  -3   4  -8   12.72    1.00 
   3   4   8   10.79    0.93 
  -4  -4  -8    5.16    1.02 
   4  -4   8    2.85    1.21 
  -4   4  -8    5.03    1.10 
   4   4   8    6.58    0.57 
  -4   4  -8    6.26    0.47 
  -4   4  -8    5.89    0.60 
   4   4   8    5.91    0.42 
  -6   5   8    5.96    0.66 
  -6   5   8    6.03    0.61 
  -6   5   8    5.22    0.52 
  -5   5   8    9.64    0.89 
  -5   5   8   10.18    0.81 
  -5   5   8   10.04    0.96 
   5   5  -8    9.64    0.69 
   4   5  -8    0.90    0.22 
  -4   5   8    0.96    0.41 
  -4   5   8    1.11    0.25 
   4   5  -8    1.06    0.13 
  -3   5   8    2.39    0.64 
   3   5  -8    1.95    0.29 
  -3   5   8    2.09    0.35 
   3   5  -8    2.06    0.20 
   2   5  -8    4.22    0.33 
   2   5  -8    4.03    0.42 
  -2   5   8    3.86    0.72 
   1   5  -8   12.01    0.92 
  -1   5   8   11.91    1.06 
   1   5  -8   11.79    0.85 
   0   5  -8    3.48    0.39 
   0   5  -8    3.36    0.28 
   0   5   8    3.01    0.56 
   1  -5   8    0.05    1.06 
   1   5   8    0.39    0.25 
  -1   5  -8    0.74    0.18 
  -1   5  -8    0.48    0.09 
 -11   0   9    0.31    0.28 
 -11   0   9    0.25    0.61 
  11   0  -9    0.30    0.37 
  11   0  -9    0.42    0.32 
 -10   0   9    5.78    0.74 
  10   0  -9    5.74    0.95 
  10   0  -9    3.12    2.48 
   9   0  -9    1.38    2.79 
   9   0  -9    6.09    1.05 
   8   0  -9    8.83    0.79 
   8   0  -9   13.19    4.21 
   8   0  -9    8.21    1.22 
   8   0  -9    8.16    0.74 
  -7   0   9   26.54    2.98 
   7   0  -9   22.78    4.70 
   6   0  -9    3.51    0.96 
   6   0  -9    1.57    0.67 
  -6   0   9    1.95    1.23 
  -6   0   9    1.32    1.97 
  -5   0   9    3.90    2.14 
   5   0  -9    7.65    2.38 
   5   0  -9    5.99    1.09 
  -5   0   9    3.09    1.24 
  -5   0   9    9.85    2.32 
   5   0  -9    6.65    1.13 
   4   0  -9   48.40    3.60 
   4   0  -9   43.85    4.43 
  -4   0   9   42.93    4.51 
   4   0  -9   40.94    3.39 
  -4   0   9   38.66    3.31 
   3   0  -9    0.75    0.54 
   3   0  -9    0.33    1.71 
  -3   0   9    1.01    0.59 
  -3   0   9    1.14    1.69 
   3   0  -9    1.37    0.78 
   2   0  -9    3.10    0.93 
  -2   0   9    2.93    0.80 
   2   0  -9    3.99    0.96 
   2   0  -9    3.07    1.88 
  -2   0   9    2.26    1.84 
  -1   0   9    5.52    2.06 
   1   0  -9    3.12    1.14 
  -1   0   9    2.80    0.81 
   1   0  -9    3.23    0.79 
   1   0  -9    1.01    1.77 
   0   0   9    0.50    1.70 
   0   0  -9   -0.31    0.51 
   0   0   9    1.26    0.68 
   0   0   9    1.39    2.38 
   0   0  -9   -1.46    1.58 
  -1   0  -9    0.67    0.59 
   1   0   9   -0.41    0.71 
  -1   0  -9    1.72    1.84 
   1   0   9    1.13    1.82 
   2   0   9   10.68    1.43 
  -3   0  -9   -0.11    0.43 
   3   0   9    0.43    0.71 
   3   0   9   -0.66    1.11 
   3   0   9   -0.08    0.87 
  -3   0  -9   -0.07    0.33 
  -4   0  -9   14.95    1.29 
  -4   0  -9   17.63    1.32 
   4   0   9   19.34    2.35 
   4   0   9   13.88    1.59 
   4   0   9   14.46    1.78 
  -4   0  -9   12.34    1.45 
   5   0   9   -0.86    0.90 
  -5   0  -9   -0.12    0.39 
   5   0   9   -0.12    0.46 
   6   0   9    3.16    0.63 
   6   0   9    2.98    1.07 
  -6   0  -9    2.69    0.61 
  11  -1  -9    0.54    0.44 
 -11  -1   9    0.39    0.61 
 -11  -1   9    0.50    0.27 
 -11   1   9    0.53    0.29 
 -11   1   9    0.26    0.39 
  11   1  -9    0.05    0.28 
 -11   1   9    0.78    0.73 
 -10  -1   9    5.01    0.76 
  10  -1  -9    7.85    1.05 
 -10   1   9    7.61    0.80 
 -10   1   9    5.21    1.63 
  10   1  -9    8.11    0.85 
 -10   1   9    8.91    1.17 
   9  -1  -9    5.81    0.89 
   9  -1  -9    7.30    0.90 
   9  -1  -9    6.51    3.08 
   9  -1  -9    7.28    1.21 
  -9   1   9    5.54    2.23 
  -9   1   9    6.13    1.50 
  -9   1   9    5.37    1.02 
  -9   1   9    7.16    0.85 
   9   1  -9    8.03    0.87 
  -9   1   9    6.61    1.37 
   9   1  -9    5.45    0.89 
  -8  -1   9    4.30    1.83 
   8  -1  -9    4.52    1.34 
   8  -1  -9    4.36    1.35 
   8  -1  -9    7.76    3.52 
   8  -1  -9    4.91    1.39 
   8   1  -9    4.59    0.86 
  -8   1   9    5.25    1.69 
  -8   1   9    7.16    2.40 
  -8   1   9    5.09    1.02 
  -8   1   9    8.54    1.46 
   8   1  -9    5.11    0.88 
   7  -1  -9   16.62    1.90 
   7  -1  -9   15.81    1.96 
   7  -1  -9   13.89    4.13 
   7  -1  -9   18.46    2.00 
  -7   1   9   19.94    2.29 
  -7   1   9   16.92    1.67 
   6  -1  -9    5.49    1.33 
   6  -1  -9    5.82    1.21 
   6  -1  -9    4.06    1.26 
  -6   1   9    0.98    1.76 
  -6   1   9    4.92    0.92 
  -6   1   9    7.17    1.65 
   5  -1  -9   18.39    1.92 
   5  -1  -9   12.91    1.63 
  -5   1   9   15.55    1.56 
  -5   1   9   17.90    2.15 
   5   1  -9   13.90    1.71 
  -5   1   9   13.97    2.55 
   4  -1  -9   10.63    1.48 
   4  -1  -9    8.81    1.27 
  -4  -1   9    9.78    2.56 
  -4   1   9    5.39    1.70 
   4   1  -9    9.35    1.26 
  -4   1   9    8.88    1.14 
   4   1  -9    7.54    1.18 
   3  -1  -9    7.91    1.14 
  -3  -1   9    6.83    2.27 
   3  -1  -9    7.12    1.16 
  -3   1   9    6.09    1.58 
   3   1  -9    8.31    1.10 
  -3   1   9    7.97    1.10 
   3   1  -9    7.67    1.63 
   3   1  -9    9.06    1.27 
  -2  -1   9    6.76    2.32 
   2  -1  -9    4.82    1.02 
   2  -1  -9    4.43    0.95 
   2   1  -9    5.78    1.52 
  -2   1   9    4.40    0.84 
  -2   1   9    1.77    1.52 
   2   1  -9    4.80    0.91 
   2   1  -9    5.01    1.13 
  -1  -1   9   14.89    2.77 
  -1  -1   9   11.33    3.60 
   1  -1  -9   14.75    1.55 
  -1   1   9   14.66    1.41 
   1   1  -9   14.27    2.02 
  -1   1   9    8.01    2.54 
   1   1  -9   11.65    1.39 
   0  -1   9    4.71    2.11 
   0  -1   9    7.59    3.09 
   0   1   9    4.43    0.92 
   0   1   9    6.89    2.65 
   0   1   9    3.85    0.97 
   0   1  -9    4.11    0.99 
   0   1  -9    5.31    1.56 
   1  -1   9    7.84    3.30 
   1  -1   9   12.27    2.99 
  -1   1  -9   11.72    1.50 
   1   1   9    9.77    1.31 
   1   1   9   12.34    1.68 
   2  -1   9    3.31    2.33 
  -2  -1  -9    2.80    1.65 
  -2   1  -9    6.43    1.31 
  -2   1  -9    3.34    0.95 
   2   1   9    2.68    0.90 
   3  -1   9   20.44    2.17 
   3  -1   9   24.57    2.76 
  -3  -1  -9   19.98    2.35 
   3  -1   9   26.76    3.55 
  -3   1  -9   21.99    1.83 
   3   1   9   19.70    1.83 
   3   1   9   22.41    1.84 
  -3   1  -9   22.76    2.60 
   3   1   9   21.45    2.03 
   4  -1   9    7.61    1.33 
   4  -1   9    6.66    0.76 
   4  -1   9    7.78    2.00 
  -4  -1  -9    7.77    1.63 
   4   1   9    8.23    1.17 
  -4   1  -9    8.43    1.72 
  -4   1  -9    7.26    0.91 
   4   1   9    7.13    0.95 
  -4   1  -9    7.17    1.00 
   4   1   9    6.73    1.63 
  -5  -1  -9    1.66    0.47 
  -5  -1  -9    1.91    0.53 
   5  -1   9    1.14    0.68 
   5  -1   9    0.59    0.93 
   5   1   9    1.34    0.42 
  -5   1  -9    0.86    0.40 
   5   1   9    1.00    0.88 
  -6  -1  -9    5.94    1.02 
   6  -1   9    6.33    1.10 
  -6  -1  -9    5.25    0.76 
   6  -1   9    4.35    0.85 
  -6   1  -9    6.59    0.65 
  -6   1  -9    3.25    0.64 
   6   1   9    5.65    0.62 
  10  -2  -9    2.97    1.01 
 -10  -2   9    2.53    1.24 
  10  -2  -9    2.87    0.57 
  10  -2  -9    2.73    0.58 
 -10   2   9    2.30    0.51 
 -10   2   9    2.87    0.61 
 -10   2   9    2.42    1.26 
 -10   2   9    2.11    0.49 
  10   2  -9    1.93    0.35 
 -10   2   9    1.25    1.33 
   9  -2  -9    0.70    0.72 
   9  -2  -9    0.00    0.85 
  -9  -2   9    0.95    1.34 
   9  -2  -9    0.10    3.03 
   9  -2  -9    0.44    1.51 
   9   2  -9   -0.17    0.36 
  -9   2   9    0.36    0.34 
  -9   2   9    0.77    0.51 
  -9   2   9    0.04    1.29 
  -9   2   9    1.21    1.11 
  -9   2   9    0.25    0.41 
   8  -2  -9   27.42    2.69 
   8  -2  -9   20.92    2.17 
  -8  -2   9   21.58    3.00 
   8  -2  -9   19.85    2.42 
   8  -2  -9   20.20    2.28 
   8  -2  -9   20.58    5.20 
   8   2  -9   19.04    1.73 
  -8   2   9   20.99    3.02 
  -8   2   9   21.42    1.89 
  -8   2   9   22.17    1.89 
  -8   2   9   21.48    2.42 
   7  -2  -9    4.62    1.35 
   7  -2  -9    0.75    0.90 
   7  -2  -9    4.29    1.56 
  -7  -2   9    2.01    1.62 
   7  -2  -9   -0.07    0.94 
  -7   2   9    1.87    0.69 
   7   2  -9    1.88    0.53 
  -7   2   9    2.58    0.82 
  -7   2   9    1.07    1.05 
  -7   2   9    2.00    1.42 
  -7   2   9    2.50    0.66 
   6  -2  -9   50.99    4.27 
   6  -2  -9   49.97    4.04 
   6  -2  -9   51.35    3.97 
  -6   2   9   46.36    3.79 
  -6   2   9   49.99    4.16 
   5  -2  -9   13.27    1.77 
   5  -2  -9   15.83    1.90 
  -5  -2   9   14.73    1.87 
   5  -2  -9   16.82    2.02 
   5  -2  -9   17.06    1.65 
  -5   2   9   18.64    1.60 
  -5   2   9   14.24    2.14 
   4  -2  -9    0.51    0.73 
   4  -2  -9    1.93    0.93 
  -4  -2   9    0.77    0.92 
   4  -2  -9    0.50    0.71 
   4  -2  -9    1.31    0.89 
  -4   2   9    0.70    0.53 
  -4   2   9    0.76    1.00 
   3  -2  -9   38.16    3.67 
  -3  -2   9   48.78    3.79 
   3  -2  -9   43.90    3.64 
   3  -2  -9   53.66    3.56 
  -3   2   9   43.25    3.43 
   2  -2  -9   32.27    2.51 
  -2  -2   9   30.49    2.79 
  -2  -2   9   33.51    5.03 
  -2  -2   9   26.21    3.79 
  -2   2   9   27.98    3.32 
   2   2  -9   31.98    2.58 
  -2   2   9   28.15    2.42 
  -1  -2   9   51.71    5.39 
  -1  -2   9   63.38    6.65 
  -1  -2   9   52.66    4.60 
   1  -2  -9   54.21    4.21 
   1  -2  -9   54.03    4.28 
   1   2  -9   57.52    4.33 
  -1   2   9   59.37    4.94 
  -1   2   9   56.07    4.16 
   0  -2   9   38.30    4.39 
   0  -2  -9   36.20    2.92 
   0  -2   9   31.07    5.06 
   0   2   9   33.90    2.79 
   0   2  -9   42.60    3.18 
   0   2   9   30.70    3.75 
   1  -2   9   13.39    3.04 
   1  -2   9   15.01    3.26 
   1  -2   9   22.61    3.38 
  -1  -2  -9   24.53    2.70 
   1   2   9   19.59    2.93 
   1   2   9   20.02    1.71 
   1   2   9   18.86    1.80 
   1   2   9   23.36    1.96 
  -1   2  -9   23.72    2.30 
   2  -2   9    7.60    2.93 
   2  -2   9    7.17    2.63 
  -2  -2  -9    8.65    1.66 
   2  -2   9    6.53    1.92 
   2   2   9    6.89    0.98 
   2   2   9    7.71    0.85 
  -2   2  -9    7.46    0.85 
   3  -2   9   11.98    2.20 
  -3  -2  -9   13.05    1.90 
   3  -2   9   12.81    2.91 
   3  -2   9    6.20    2.46 
   3   2   9   12.34    1.11 
  -3   2  -9   13.28    1.19 
  -3   2  -9   11.16    1.97 
  -3   2  -9   11.84    1.07 
  -4  -2  -9    1.03    0.98 
   4  -2   9    1.38    2.08 
   4  -2   9    0.25    1.00 
  -4   2  -9    0.42    0.33 
   4   2   9    0.59    0.30 
  -4   2  -9    0.90    0.87 
   5  -2   9    1.41    0.35 
  -5  -2  -9    0.80    0.78 
   5  -2   9    0.09    0.68 
   5  -2   9    1.05    0.61 
  -5   2  -9    1.05    0.30 
  -5   2  -9    0.73    0.72 
   5   2   9    2.58    0.60 
 -10  -3   9    3.43    1.33 
 -10   3   9    6.96    0.68 
 -10   3   9    3.95    1.58 
 -10   3   9    5.54    0.69 
  -9  -3   9    7.31    1.80 
   9  -3  -9    7.56    1.25 
   9  -3  -9    6.80    1.46 
  -9   3   9    3.52    1.25 
  -9   3   9    6.95    0.74 
   9   3  -9    6.87    0.70 
  -9   3   9    6.48    0.77 
  -9   3   9    6.42    1.96 
  -9   3   9    7.64    0.83 
   8  -3  -9    2.58    1.02 
   8  -3  -9    3.85    1.54 
   8  -3  -9    2.32    0.98 
  -8  -3   9    2.71    1.57 
  -8   3   9    1.93    0.55 
  -8   3   9    2.74    1.41 
  -8   3   9    3.33    0.60 
   8   3  -9    2.96    0.57 
  -8   3   9    2.60    1.19 
  -8   3   9    3.16    0.75 
   7  -3  -9    3.57    3.65 
   7  -3  -9    0.64    1.25 
  -7  -3   9   -0.35    1.49 
   7  -3  -9   -0.68    0.89 
   7  -3  -9    0.08    0.71 
  -7   3   9   -1.40    1.07 
  -7   3   9    0.95    1.37 
  -7   3   9    0.39    0.50 
   7   3  -9    0.21    0.31 
  -7   3   9    0.16    0.37 
  -6  -3   9    2.26    1.44 
   6  -3  -9    4.57    1.57 
   6  -3  -9    6.34    1.44 
   6  -3  -9    4.66    1.32 
   6  -3  -9    5.53    1.88 
  -6  -3   9    8.34    2.33 
   6  -3  -9    4.94    1.47 
  -6   3   9    5.27    0.75 
  -6   3   9    5.23    0.92 
   6   3  -9    4.58    0.71 
  -6   3   9    3.03    1.69 
  -6   3   9    7.84    1.94 
  -6   3   9    6.26    0.88 
   5  -3  -9   23.55    2.52 
  -5  -3   9   25.95    3.45 
  -5  -3   9   26.08    2.57 
   5  -3  -9   22.80    2.64 
   5  -3  -9   30.33    2.53 
   5   3  -9   26.52    1.95 
  -5   3   9   27.21    2.24 
  -5   3   9   25.82    2.13 
  -5   3   9   33.43    3.55 
  -5   3   9   26.69    2.04 
   5   3  -9   25.77    2.04 
   5   3  -9   26.82    1.96 
   4  -3  -9   55.16    3.91 
   4  -3  -9   48.66    4.18 
   4  -3  -9   44.34    3.71 
  -4  -3   9   49.24    4.01 
  -4  -3   9   49.42    4.81 
   4   3  -9   45.30    3.40 
  -4   3   9   46.04    3.65 
   4   3  -9   48.33    3.36 
  -4   3   9   51.22    3.59 
  -4   3   9   46.20    3.44 
   4   3  -9   46.73    3.48 
  -3  -3   9   33.32    2.88 
  -3  -3   9   28.27    3.55 
   3  -3  -9   34.91    2.61 
  -3   3   9   26.95    2.18 
  -3   3   9   30.82    2.52 
  -3   3   9   30.44    2.40 
   3   3  -9   31.90    2.19 
   3   3  -9   28.04    2.29 
  -3   3   9   31.46    2.24 
   3   3  -9   30.87    2.22 
  -2  -3   9    1.98    1.50 
  -2  -3   9    5.51    1.43 
   2  -3  -9    4.41    0.95 
  -2   3   9    5.59    0.48 
  -2   3   9    2.34    2.11 
   2   3  -9    4.80    0.56 
  -2   3   9    4.33    0.82 
  -2   3   9    5.35    0.95 
  -2   3   9    5.39    0.82 
   2   3  -9    4.73    0.48 
   2   3  -9    5.74    0.70 
  -1  -3   9    9.50    2.40 
   1  -3  -9   10.20    1.27 
  -1  -3   9    9.49    1.79 
  -1   3   9    9.82    0.82 
  -1   3   9   12.45    1.31 
   1   3  -9   11.28    1.01 
  -1   3   9   10.55    1.06 
  -1   3   9   12.91    1.17 
   1   3  -9    9.62    0.90 
   0  -3  -9   24.65    2.43 
   0  -3   9   16.30    2.28 
   0  -3   9   18.96    2.68 
   0  -3  -9   17.15    1.78 
   0  -3   9   17.31    2.88 
   0  -3   9   18.77    3.30 
   0   3   9   18.67    1.62 
   0   3  -9   18.45    1.53 
   0   3  -9   18.09    1.45 
   0   3   9   19.94    1.64 
   0   3   9   18.28    1.75 
  -1  -3  -9   23.73    2.62 
   1  -3   9   25.28    3.62 
   1  -3   9   23.00    3.41 
   1   3   9   28.13    2.06 
   1   3   9   25.97    1.86 
   1   3   9   25.09    2.03 
  -1   3  -9   24.79    1.88 
   2  -3   9    4.49    1.94 
   2  -3   9    5.52    2.12 
  -2  -3  -9    4.86    1.46 
  -2   3  -9    5.57    1.81 
   2   3   9    5.21    0.52 
   2   3   9    5.40    0.79 
  -2   3  -9    5.08    0.60 
   2   3   9    5.07    0.76 
  -3  -3  -9    7.44    1.53 
   3  -3   9    3.37    2.24 
   3  -3   9    4.88    2.21 
  -3   3  -9    7.28    0.70 
  -3   3  -9    6.13    1.54 
   3   3   9    8.39    0.86 
   3   3   9    8.17    0.63 
  -4  -3  -9   12.37    1.63 
   4  -3   9    9.97    1.94 
   4   3   9   13.43    1.13 
  -4   3  -9   11.61    1.52 
   4   3   9   11.99    0.95 
  -4   3  -9   14.42    0.99 
   8  -4  -9    3.65    1.08 
  -8  -4   9    3.43    1.49 
  -8   4   9    3.74    0.37 
   8   4  -9    4.02    0.32 
  -8   4   9    3.36    0.54 
  -8   4   9    3.77    0.57 
  -8   4   9    3.68    0.50 
   8   4  -9    4.17    0.43 
   8   4  -9    4.30    0.33 
   7  -4  -9    1.19    0.71 
   7  -4  -9    2.90    1.12 
  -7  -4   9    3.49    1.41 
   7   4  -9    2.86    0.27 
  -7   4   9    1.20    0.45 
   7   4  -9    2.93    0.42 
   7   4  -9    2.93    0.26 
  -7   4   9    2.78    0.50 
  -7   4   9    3.22    0.34 
  -7   4   9    1.12    0.38 
  -6  -4   9   -0.26    1.29 
   6  -4  -9    0.67    1.08 
   6   4  -9    0.26    0.26 
  -6   4   9    0.66    0.45 
  -6   4   9    0.23    0.34 
   6   4  -9    0.04    0.12 
  -6   4   9    0.51    0.20 
   6   4  -9    0.27    0.13 
   5  -4  -9   19.06    2.20 
   5   4  -9   19.99    1.37 
  -5   4   9   17.76    1.69 
   5   4  -9   18.66    1.35 
  -5   4   9   17.35    1.57 
   5   4  -9   19.98    1.48 
  -4   4   9    2.35    0.63 
   4   4  -9    1.50    0.43 
  -4   4   9    2.16    0.47 
   4   4  -9    1.65    0.25 
   4   4  -9    1.37    0.27 
   3   4  -9    7.38    0.60 
   3   4  -9    7.20    0.61 
  -3   4   9    7.26    0.86 
   3   4  -9    8.59    0.76 
  -3   4   9    8.23    1.05 
  -2   4   9    1.38    0.21 
  -2   4   9    1.13    0.40 
  -2   4   9    0.73    0.52 
   2   4  -9    0.74    0.16 
  -2   4   9    1.75    0.41 
   2   4  -9    1.54    0.41 
  -1  -4   9    0.55    1.22 
  -1   4   9    0.89    0.36 
  -1   4   9    1.75    0.58 
  -1   4   9    0.60    0.16 
  -1   4   9    0.32    0.39 
   1   4  -9    0.93    0.31 
   1   4  -9    0.56    0.15 
   0  -4   9    5.09    1.99 
   0   4   9    6.61    0.52 
   0   4  -9    6.06    0.65 
   0   4   9    5.36    0.70 
   0   4   9    6.83    0.84 
   0   4  -9    5.91    0.51 
   1  -4   9    1.89    1.38 
  -1   4  -9    3.74    0.55 
  -1   4  -9    4.21    0.38 
   1   4   9    4.67    0.71 
   1   4   9    3.89    0.56 
   1   4   9    4.08    0.36 
  -2  -4  -9   -0.11    0.75 
   2  -4   9    0.50    1.16 
  -2   4  -9    0.13    0.13 
   2   4   9    0.24    0.22 
   2   4   9   -0.01    0.10 
   2   4   9   -0.06    0.27 
  -2   4  -9    0.13    0.25 
   3  -4   9    2.95    1.40 
  -3  -4  -9    4.19    1.05 
  -3   4  -9    5.19    0.44 
  -3   4  -9    6.09    0.57 
   3   4   9    5.43    0.38 
  -3   4  -9    6.58    1.27 
   3   4   9    4.69    0.52 
  -5   5   9    1.42    0.34 
  -5   5   9    0.83    0.32 
   5   5  -9    1.10    0.10 
  -4   5   9    1.62    0.51 
   4   5  -9    1.67    0.23 
   4   5  -9    1.73    0.15 
  -4   5   9    1.40    0.27 
   3   5  -9    2.50    0.20 
   3   5  -9    1.94    0.28 
  -3   5   9    2.09    0.42 
  -3   5   9    2.55    0.55 
  -2   5   9    2.98    0.53 
   2   5  -9    3.28    0.25 
   2   5  -9    3.19    0.34 
  -2   5   9    2.67    0.57 
   1   5  -9    0.11    0.06 
  -1   5   9    0.04    0.22 
   1   5  -9   -0.14    0.14 
   0   5   9    0.32    0.22 
   0   5  -9    0.69    0.11 
   0   5  -9    0.38    0.18 
 -11   0  10    2.09    0.56 
  11   0 -10    1.76    0.55 
  11   0 -10    2.51    0.56 
 -10   0  10    4.65    0.93 
  10   0 -10    4.01    0.81 
   9   0 -10    2.43    2.66 
   9   0 -10    2.50    0.65 
  -9   0  10    4.89    1.08 
  -8   0  10   12.19    2.42 
   8   0 -10   13.16    4.22 
  -8   0  10   15.21    1.87 
   8   0 -10   11.95    1.46 
   7   0 -10    0.37    0.39 
   7   0 -10    1.12    3.53 
   7   0 -10    0.04    0.54 
   7   0 -10    0.13    0.34 
   7   0 -10    0.16    0.75 
   7   0 -10    0.07    0.61 
  -7   0  10    0.06    1.28 
  -7   0  10   -0.08    0.88 
   6   0 -10    4.31    1.15 
   6   0 -10    4.70    1.14 
  -6   0  10    6.99    1.67 
   5   0 -10    3.02    1.03 
  -5   0  10    0.80    0.69 
  -5   0  10    1.06    1.19 
   5   0 -10    1.71    0.74 
  -4   0  10    2.37    0.78 
   4   0 -10    4.81    1.10 
   4   0 -10    3.44    0.86 
   4   0 -10    6.15    2.38 
  -4   0  10    2.54    1.99 
  -3   0  10   39.55    4.29 
  -3   0  10   36.51    3.05 
  -3   0  10   31.79    4.14 
   3   0 -10   35.73    4.06 
   3   0 -10   41.58    3.34 
   3   0 -10   38.50    3.10 
   2   0 -10    0.59    1.74 
   2   0 -10    0.25    0.60 
   2   0 -10    0.23    0.83 
  -2   0  10    0.28    0.59 
  -2   0  10   -1.10    1.77 
  -1   0  10   20.92    3.57 
   1   0 -10   23.62    3.58 
   1   0 -10   28.53    2.33 
  -1   0  10   25.22    2.28 
   0   0 -10    3.71    1.18 
   0   0  10    3.85    1.11 
   0   0  10    4.90    2.31 
   1   0  10    7.10    1.88 
   1   0  10    4.97    2.02 
   1   0  10    8.16    2.73 
   1   0  10    6.01    1.26 
   1   0  10    5.38    0.57 
   1   0  10    5.45    1.21 
  -1   0 -10    5.01    1.02 
  -2   0 -10   29.62    2.20 
   2   0  10   26.56    2.49 
   2   0  10   30.69    2.58 
  -2   0 -10   27.46    2.28 
   2   0  10   25.03    3.03 
  -3   0 -10    6.47    0.67 
   3   0  10    6.04    1.10 
  -3   0 -10    5.41    0.63 
  -3   0 -10    6.08    0.90 
   3   0  10    4.44    1.37 
   3   0  10    6.68    1.30 
  -4   0 -10    1.29    0.46 
   4   0  10    1.51    0.55 
   4   0  10    0.59    0.86 
   5   0  10    0.37    0.64 
  -5   0 -10    0.82    0.37 
   5   0  10    0.84    0.32 
  11  -1 -10    1.16    0.41 
 -11  -1  10    2.69    0.64 
 -11   1  10    1.76    0.43 
  11   1 -10    1.79    0.32 
 -11   1  10    0.23    0.31 
  10  -1 -10   13.95    1.38 
 -10  -1  10   15.55    1.64 
 -10   1  10   14.38    1.33 
  10   1 -10   12.68    1.19 
 -10   1  10   11.99    1.82 
 -10   1  10   12.35    1.30 
   9  -1 -10    0.46    0.61 
   9  -1 -10    0.77    0.37 
   9  -1 -10    2.37    2.65 
   9  -1 -10    1.73    0.52 
   9   1 -10    0.70    0.41 
  -9   1  10    1.46    1.27 
  -9   1  10   -0.52    0.96 
  -9   1  10    1.02    0.69 
  -9   1  10    1.01    1.13 
   8  -1 -10    3.01    0.81 
   8  -1 -10    0.26    0.66 
   8  -1 -10    1.37    0.63 
   8  -1 -10    3.45    1.26 
   8  -1 -10    2.43    0.92 
   8  -1 -10    5.44    3.30 
  -8   1  10    1.06    0.72 
  -8   1  10    2.97    0.86 
   8   1 -10    2.74    0.57 
  -8   1  10    1.85    1.28 
  -8   1  10    2.46    1.38 
   8   1 -10    2.74    0.68 
   7  -1 -10    7.99    1.40 
   7  -1 -10   14.52    4.45 
   7  -1 -10    7.71    1.46 
   7  -1 -10    5.45    1.35 
  -7  -1  10    8.68    2.27 
  -7   1  10    6.61    2.43 
  -7   1  10    7.43    1.11 
   7   1 -10    7.21    0.96 
  -7   1  10    6.04    1.59 
   7   1 -10    5.53    0.95 
  -7   1  10    8.85    1.50 
   6  -1 -10    4.98    1.27 
   6  -1 -10    5.47    1.26 
   6  -1 -10    4.97    1.28 
  -6   1  10    4.06    1.03 
  -6   1  10    6.52    1.55 
   5  -1 -10   10.20    1.41 
   5  -1 -10    8.83    1.42 
   5  -1 -10    9.44    1.46 
  -5   1  10    9.38    1.89 
   5   1 -10   10.38    1.33 
   5   1 -10   10.41    1.44 
  -5   1  10   10.18    1.24 
   4  -1 -10    4.83    1.11 
  -4  -1  10    4.65    2.12 
   4  -1 -10    4.42    1.04 
   4  -1 -10    3.48    0.98 
   4   1 -10    4.37    0.96 
   4   1 -10    3.46    1.24 
  -4   1  10    3.77    0.98 
  -4   1  10    5.62    1.53 
   3  -1 -10   10.75    1.45 
  -3  -1  10    8.64    2.77 
   3  -1 -10   11.10    1.49 
   3  -1 -10   13.57    1.59 
   3   1 -10   13.26    1.68 
   3   1 -10   10.36    1.42 
  -3   1  10   13.55    1.37 
  -2  -1  10   29.73    3.62 
   2  -1 -10   25.06    2.27 
   2  -1 -10   23.24    2.25 
  -2  -1  10   18.16    4.09 
   2  -1 -10   27.65    2.46 
   2   1 -10   23.63    2.70 
   2   1 -10   26.15    2.24 
  -2   1  10   23.11    2.18 
  -1  -1  10   15.59    4.05 
  -1  -1  10   14.45    3.39 
   1   1 -10   21.34    2.04 
  -1   1  10   15.58    3.07 
  -1   1  10   23.74    1.92 
   0  -1  10    4.80    2.15 
   0   1 -10    5.41    1.16 
   0   1  10    5.64    1.14 
   1  -1  10    5.08    2.13 
  -1  -1 -10    5.68    1.41 
   1  -1  10    4.25    1.53 
   1   1  10    4.95    0.86 
   1   1  10    5.55    1.08 
   1   1  10    4.80    0.93 
   1   1  10    1.93    1.55 
  -1   1 -10    5.20    1.47 
  -1   1 -10    4.25    0.74 
  -2  -1 -10    4.12    1.34 
   2  -1  10    7.16    0.96 
   2  -1  10    5.29    2.17 
   2  -1  10    8.13    1.35 
   2  -1  10    5.83    1.89 
  -2   1 -10    4.85    1.95 
   2   1  10    5.76    0.86 
   2   1  10    2.64    1.54 
   2   1  10    6.67    0.88 
  -2   1 -10    5.46    0.84 
   2   1  10    3.72    1.08 
   3  -1  10   21.02    2.04 
   3  -1  10   19.46    1.59 
   3  -1  10   20.81    2.67 
   3   1  10   22.69    1.93 
  -3   1 -10   20.80    1.72 
  -3   1 -10   22.08    2.28 
   3   1  10   19.65    1.73 
   4  -1  10   22.20    2.39 
  -4  -1 -10   17.99    1.69 
   4  -1  10   22.96    1.99 
  -4  -1 -10   23.26    1.73 
   4   1  10   24.04    2.25 
  -4   1 -10   21.68    1.72 
   4   1  10   22.14    1.72 
  -5  -1 -10    8.27    0.88 
   5  -1  10   10.13    1.34 
   5  -1  10    8.62    1.00 
  -5   1 -10    7.17    0.77 
  -5   1 -10    8.25    0.83 
   5   1  10    9.87    0.81 
   5   1  10    7.29    1.11 
  10  -2 -10    0.45    0.48 
  10  -2 -10    0.33    0.28 
 -10   2  10    0.71    0.33 
 -10   2  10    0.80    0.35 
 -10   2  10    0.70    1.04 
  10   2 -10    0.22    0.18 
 -10   2  10    0.39    0.31 
   9  -2 -10    1.00    0.78 
  -9  -2  10    1.53    1.30 
  -9   2  10    3.32    0.73 
  -9   2  10    0.34    0.96 
  -9   2  10    3.19    0.65 
   9   2 -10    3.03    0.50 
  -9   2  10    1.99    1.08 
   8  -2 -10   42.27    3.38 
  -8  -2  10   35.39    4.01 
   8  -2 -10   39.95    3.62 
   8  -2 -10   34.54    5.86 
   8   2 -10   46.07    3.03 
  -8   2  10   43.89    4.12 
  -8   2  10   39.10    3.12 
  -8   2  10   44.80    3.73 
   7  -2 -10    3.90    1.08 
   7  -2 -10    2.38    1.16 
   7  -2 -10    2.13    1.02 
  -7  -2  10    2.99    1.58 
   7  -2 -10    1.07    0.73 
   7   2 -10    1.76    0.43 
  -7   2  10    1.92    0.67 
  -7   2  10    1.40    1.26 
  -7   2  10    2.88    0.67 
  -7   2  10    2.83    1.28 
   6  -2 -10   30.70    2.75 
   6  -2 -10   21.25    2.33 
   6  -2 -10   22.99    2.30 
  -6  -2  10   24.81    3.20 
   6  -2 -10   20.41    2.36 
   6   2 -10   24.25    1.86 
  -6   2  10   24.24    2.00 
  -6   2  10   21.96    2.07 
  -6   2  10   20.59    2.50 
  -6   2  10   24.44    3.10 
  -5  -2  10   38.28    4.08 
   5  -2 -10   41.32    3.34 
   5  -2 -10   37.07    3.23 
   5  -2 -10   43.26    3.53 
   5   2 -10   40.37    2.89 
  -5   2  10   37.88    2.99 
  -5   2  10   41.11    3.10 
  -5   2  10   38.61    3.83 
  -5   2  10   33.42    3.50 
   4  -2 -10    1.08    0.70 
   4  -2 -10    1.12    0.81 
   4  -2 -10    0.35    0.79 
  -4   2  10    2.52    0.70 
  -4   2  10    2.42    1.12 
   3  -2 -10    4.17    1.13 
   3  -2 -10    4.81    1.20 
   3   2 -10    4.65    1.04 
  -3   2  10    5.31    0.88 
   2  -2 -10   26.14    2.47 
  -2  -2  10   36.31    4.08 
   2  -2 -10   30.05    2.67 
  -2   2  10   26.53    2.42 
   2   2 -10   36.08    2.67 
   1  -2 -10    3.56    0.90 
  -1  -2  10    2.05    1.47 
  -1  -2  10    3.23    1.96 
   1  -2 -10    5.16    1.42 
  -1   2  10    2.45    0.56 
  -1   2  10   -0.46    1.33 
   1   2 -10    3.57    1.14 
  -1   2  10    2.71    0.69 
  -1   2  10    1.74    0.67 
  -1   2  10    1.61    1.24 
   1   2 -10    3.51    0.62 
   0  -2  10    9.63    3.09 
   0  -2  10    7.60    2.20 
   0  -2 -10    9.56    1.67 
   0  -2  10    7.69    2.24 
   0   2  10    7.85    2.19 
   0   2 -10    8.35    1.47 
   0   2  10    9.09    1.01 
   0   2  10    6.29    1.01 
   0   2  10    6.82    0.90 
   0   2 -10    8.28    0.87 
   1  -2  10   23.28    3.27 
   1  -2  10   26.10    2.96 
   1  -2  10   26.97    3.88 
   1   2  10   25.54    1.97 
   1   2  10   27.40    2.04 
   1   2  10   21.03    2.07 
  -1   2 -10   27.61    1.96 
   1   2  10   23.00    3.05 
   2  -2  10   23.85    3.32 
   2  -2  10   42.31    4.10 
  -2  -2 -10   31.05    2.95 
   2  -2  10   33.55    3.27 
  -2   2 -10   31.80    2.25 
   2   2  10   27.78    2.23 
  -2   2 -10   32.72    3.08 
   2   2  10   21.00    3.28 
   3  -2  10    8.67    1.85 
  -3  -2 -10    6.45    1.44 
  -3   2 -10    6.66    1.61 
   3   2  10    6.80    0.71 
  -3   2 -10    6.57    0.72 
  -4  -2 -10   13.61    1.67 
   4  -2  10   16.01    1.84 
   4  -2  10   15.15    1.54 
   4  -2  10   15.04    1.13 
  -4   2 -10   15.05    1.19 
   4   2  10   15.87    1.15 
  -4   2 -10   14.48    1.75 
   9  -3 -10    2.71    1.00 
   9  -3 -10    1.30    0.71 
  -9  -3  10    2.87    1.14 
   9   3 -10    2.25    0.43 
  -9   3  10    2.10    0.99 
  -9   3  10    2.53    0.52 
   8  -3 -10    1.95    1.08 
   8  -3 -10    0.56    0.77 
  -8  -3  10    0.89    1.21 
  -8   3  10    1.28    1.03 
  -8   3  10    1.60    0.48 
  -8   3  10   -0.15    0.86 
  -8   3  10    1.42    0.34 
   8   3 -10    1.12    0.33 
  -7  -3  10   12.43    2.37 
   7  -3 -10   14.92    4.72 
   7  -3 -10   12.82    1.89 
   7  -3 -10    7.47    1.50 
   7  -3 -10   11.76    1.58 
  -7   3  10   10.37    2.13 
  -7   3  10   12.38    1.05 
  -7   3  10   10.98    1.88 
   7   3 -10   11.88    1.06 
  -7   3  10   13.50    1.24 
   6  -3 -10   27.61    2.42 
   6  -3 -10   25.14    2.45 
  -6  -3  10   26.68    3.29 
   6  -3 -10   28.72    2.80 
   6   3 -10   25.13    1.97 
  -6   3  10   25.08    1.94 
  -6   3  10   26.05    2.10 
  -6   3  10   24.41    2.12 
  -6   3  10   23.88    2.91 
   5  -3 -10   11.19    1.53 
   5  -3 -10   16.12    2.01 
  -5  -3  10    9.82    2.35 
  -5   3  10   11.28    1.15 
  -5   3  10   11.12    2.14 
   5   3 -10   10.87    1.02 
   5   3 -10    9.78    0.89 
  -5   3  10   11.39    1.24 
  -5   3  10   10.73    0.99 
   4  -3 -10    7.61    1.33 
   4  -3 -10    5.83    1.38 
  -4  -3  10    6.87    1.85 
   4  -3 -10    8.43    1.65 
  -4  -3  10    7.23    2.18 
  -4   3  10    7.24    0.76 
  -4   3  10    7.99    1.91 
   4   3 -10    8.03    0.85 
  -4   3  10    7.59    0.97 
  -4   3  10    8.01    1.08 
   4   3 -10    9.28    0.75 
   3  -3 -10    1.32    0.99 
   3  -3 -10    1.40    0.78 
  -3  -3  10    2.24    1.22 
   3  -3 -10    2.99    0.90 
  -3  -3  10    1.12    1.25 
  -3   3  10    1.07    0.37 
   3   3 -10    1.45    0.39 
  -3   3  10    0.67    0.38 
   3   3 -10    1.22    0.29 
  -3   3  10    1.03    0.48 
  -2  -3  10    1.52    1.45 
   2  -3 -10    2.71    0.87 
   2  -3 -10    4.04    1.36 
  -2  -3  10    2.28    1.27 
   2  -3 -10    2.22    0.82 
  -2   3  10    1.38    0.42 
  -2   3  10    1.02    0.43 
   2   3 -10    1.83    0.41 
   2   3 -10    1.34    0.40 
  -1  -3  10   -0.50    1.21 
  -1  -3  10    1.71    1.15 
   1  -3 -10    3.32    1.38 
   1   3 -10    0.56    0.27 
  -1   3  10    0.85    0.46 
  -1   3  10    0.19    0.32 
   0  -3  10   19.66    3.22 
   0  -3 -10   22.69    2.22 
   0  -3  10   15.10    2.45 
   0   3  10   18.16    1.54 
   0   3 -10   17.24    1.37 
   0   3  10   15.68    1.50 
  -1  -3 -10    1.05    0.85 
   1  -3  10    0.58    1.79 
   1  -3  10    0.37    1.06 
   1  -3  10   -0.84    1.27 
   1   3  10   -0.12    1.15 
   1   3  10    0.23    0.33 
   1   3  10   -0.18    0.38 
  -1   3 -10    0.83    0.95 
  -1   3 -10    0.81    0.25 
  -2  -3 -10   -0.67    0.79 
   2  -3  10    0.18    1.20 
   2   3  10    0.00    0.30 
  -2   3 -10    0.12    0.21 
   2   3  10    0.05    0.15 
  -2   3 -10   -0.21    0.77 
   2   3  10   -0.02    0.28 
  -3  -3 -10    6.10    1.19 
   3  -3  10    4.17    1.49 
  -3   3 -10    7.09    1.17 
  -3   3 -10    5.69    0.51 
   3   3  10    6.42    0.51 
   3   3  10    6.02    0.68 
  -7  -4  10    4.15    1.42 
   7  -4 -10    5.45    1.18 
   7   4 -10    5.20    0.50 
  -7   4  10    4.57    0.66 
  -7   4  10    4.31    0.59 
   7   4 -10    4.39    0.37 
   7   4 -10    4.42    0.37 
   6  -4 -10    1.31    0.86 
   6  -4 -10    0.19    0.60 
  -6  -4  10    1.88    1.19 
  -6   4  10    0.86    0.33 
   6   4 -10    0.73    0.14 
  -6   4  10    0.49    0.42 
   6   4 -10    0.75    0.14 
   6   4 -10    0.84    0.25 
   5  -4 -10   15.02    1.84 
  -5  -4  10   13.00    2.18 
   5   4 -10   13.13    1.01 
  -5   4  10   14.48    1.34 
  -5   4  10   12.83    1.20 
   5   4 -10   14.67    1.13 
   5   4 -10   14.59    1.02 
  -4  -4  10   -0.33    1.05 
   4  -4 -10    0.03    0.83 
   4   4 -10    0.34    0.12 
  -4   4  10    0.84    0.48 
   4   4 -10    0.75    0.26 
  -4   4  10    0.44    0.31 
   3  -4 -10    0.61    0.95 
  -3  -4  10    0.46    1.12 
  -3   4  10   -0.18    0.15 
  -3   4  10   -0.13    0.31 
   3   4 -10    0.08    0.23 
   3   4 -10    0.11    0.12 
  -3   4  10    0.17    0.42 
   2  -4 -10    0.32    0.90 
  -2  -4  10    0.27    1.11 
  -2   4  10    0.26    0.14 
  -2   4  10    0.25    0.43 
  -2   4  10    0.01    0.29 
  -2   4  10    0.18    0.31 
   2   4 -10   -0.17    0.23 
   2   4 -10    0.26    0.12 
   1  -4 -10    2.86    1.08 
  -1  -4  10    2.00    1.24 
   1   4 -10    2.52    0.42 
  -1   4  10    1.91    0.26 
  -1   4  10    1.46    0.38 
   1   4 -10    1.84    0.26 
  -1   4  10    2.16    0.51 
   0  -4  10    5.32    1.77 
   0  -4 -10    4.33    1.08 
   0   4  10    5.55    0.69 
   0   4 -10    4.99    0.43 
   0   4 -10    5.13    0.56 
   0   4  10    4.53    0.41 
   0   4  10    4.88    0.58 
  -1  -4 -10    3.34    1.02 
   1  -4  10    1.45    1.09 
   1   4  10    3.81    0.57 
  -1   4 -10    3.17    0.47 
   1   4  10    3.33    0.46 
  -1   4 -10    3.39    0.32 
   1   4  10    3.48    0.29 
 -10   0  11    1.37    0.64 
  10   0 -11    0.77    0.36 
  -9   0  11    0.77    0.76 
   9   0 -11    2.49    0.79 
   8   0 -11    0.33    0.53 
  -8   0  11    0.46    0.80 
  -7   0  11    0.30    0.81 
   7   0 -11   -0.05    0.79 
   7   0 -11   -0.13    0.55 
   7   0 -11    0.05    0.24 
   7   0 -11    1.07    0.59 
  -7   0  11   -0.11    0.27 
  -6   0  11    7.67    0.84 
   6   0 -11    4.60    1.21 
   6   0 -11    5.47    1.17 
  -6   0  11    7.88    1.45 
  -6   0  11    6.17    1.15 
   6   0 -11    5.55    0.71 
   6   0 -11    5.58    0.70 
   6   0 -11    6.13    1.08 
   5   0 -11    1.65    0.88 
  -5   0  11    3.41    1.13 
  -5   0  11    3.43    0.75 
   5   0 -11    2.24    0.80 
  -5   0  11    2.42    0.83 
   5   0 -11    1.99    0.64 
   5   0 -11    1.85    0.69 
   5   0 -11    2.08    0.70 
  -4   0  11    0.08    0.65 
   4   0 -11    0.31    0.57 
   4   0 -11    0.81    0.73 
   3   0 -11   30.08    2.74 
   3   0 -11   35.06    3.02 
  -3   0  11   30.20    2.67 
  -2   0  11    2.41    2.05 
   2   0 -11    3.83    0.90 
  -2   0  11    2.37    0.83 
  -1   0  11   24.97    2.27 
  -1   0  11   24.00    3.35 
  -1   0  11   25.69    2.47 
   1   0 -11   25.87    2.31 
  -1   0  11   27.91    2.58 
  -1   0  11   30.62    2.14 
   1   0 -11   34.70    2.42 
   1   0 -11   26.82    2.48 
  -1   0  11   31.92    4.26 
   0   0 -11   16.31    1.30 
   0   0  11   14.30    1.60 
   0   0  11   12.04    1.65 
   0   0 -11   13.98    1.40 
   0   0  11   13.16    1.31 
   0   0  11   12.45    2.63 
   0   0 -11   13.05    1.24 
   0   0 -11   15.36    1.67 
   0   0  11    7.81    3.26 
   0   0  11   12.48    2.07 
   1   0  11   10.49    2.77 
   1   0  11    8.11    3.11 
   1   0  11   15.69    1.69 
  -1   0 -11   17.32    1.33 
  -1   0 -11   14.72    1.46 
   1   0  11   15.22    1.74 
  -1   0 -11   16.66    1.32 
   1   0  11   11.87    2.15 
  -2   0 -11    0.08    0.24 
  -2   0 -11    0.11    0.17 
   2   0  11    0.82    0.62 
   2   0  11    0.11    0.97 
  -2   0 -11    0.02    0.40 
   2   0  11   -0.30    0.84 
   3   0  11   -0.35    0.81 
  -3   0 -11    0.16    0.38 
   3   0  11    0.60    0.50 
   4   0  11   -0.02    0.54 
  -4   0 -11    0.00    0.28 
   4   0  11    0.31    0.33 
 -10  -1  11    3.09    0.98 
  10  -1 -11    3.08    0.72 
 -10   1  11    3.01    0.71 
 -10   1  11    3.32    1.00 
  10   1 -11    2.45    0.59 
  -9  -1  11   -0.05    0.76 
   9  -1 -11    0.45    0.55 
  -9   1  11    0.70    1.02 
  -9   1  11    0.15    1.01 
  -9   1  11    0.46    0.51 
   9   1 -11    0.26    0.41 
  -9   1  11    0.50    0.50 
   8  -1 -11    5.19    1.07 
   8  -1 -11    7.63    0.86 
   8  -1 -11    5.05    1.17 
   8  -1 -11    7.65    0.88 
   8  -1 -11   10.64    3.86 
  -8   1  11    8.66    1.24 
  -8   1  11    6.12    1.59 
  -8   1  11    6.85    1.86 
  -8   1  11    6.57    1.10 
  -8   1  11    6.46    2.01 
   8   1 -11    7.26    0.96 
   8   1 -11    7.43    0.84 
   7  -1 -11    9.67    1.41 
   7  -1 -11    7.96    3.43 
   7  -1 -11   10.31    1.43 
   7  -1 -11    9.82    1.52 
  -7   1  11    9.43    2.02 
  -7   1  11   13.06    2.37 
  -7   1  11   10.20    1.46 
  -7   1  11   11.75    1.36 
   7   1 -11   11.01    1.11 
   7   1 -11    9.45    1.15 
   6  -1 -11    3.60    1.16 
   6  -1 -11    5.88    1.29 
   6  -1 -11    4.46    1.10 
  -6   1  11    4.85    1.05 
  -6   1  11    8.13    1.88 
  -6   1  11    5.13    1.53 
  -6   1  11    4.21    1.29 
   6   1 -11    3.48    0.79 
   5  -1 -11    1.27    0.82 
   5  -1 -11    1.53    1.00 
   5  -1 -11    2.04    0.97 
  -5  -1  11    1.92    1.49 
   5  -1 -11    2.20    0.82 
   5   1 -11    2.08    0.68 
   5   1 -11    2.64    0.79 
  -5   1  11    2.12    0.85 
   5   1 -11    1.51    1.02 
  -5   1  11    2.71    1.35 
  -5   1  11    0.19    0.84 
   5   1 -11    0.77    0.62 
  -5   1  11    2.06    1.09 
  -5   1  11    2.24    0.75 
   4  -1 -11    0.89    0.78 
   4  -1 -11   -0.48    1.01 
   4  -1 -11   -0.07    0.61 
  -4  -1  11   -0.75    1.43 
   4  -1 -11   -0.43    0.73 
   4   1 -11   -0.14    0.88 
   4   1 -11    0.25    0.50 
   4   1 -11   -0.48    0.55 
  -4   1  11   -0.14    0.70 
  -4   1  11    0.03    0.58 
  -4   1  11    0.22    0.55 
  -4   1  11   -1.38    1.26 
  -4   1  11   -0.33    0.69 
  -3  -1  11   22.82    3.81 
   3  -1 -11   25.76    3.26 
   3  -1 -11   25.37    2.26 
   3  -1 -11   24.69    2.25 
   3  -1 -11   30.14    2.52 
  -3   1  11   23.15    2.17 
   3   1 -11   24.83    2.22 
  -3   1  11   20.40    4.22 
  -3   1  11   20.02    2.54 
   3   1 -11   20.34    2.07 
   2  -1 -11   21.33    2.12 
  -2  -1  11   14.96    3.34 
   2  -1 -11   16.78    1.73 
   2  -1 -11   17.29    1.87 
  -2   1  11   13.59    1.47 
  -2   1  11   15.23    2.72 
   2   1 -11   17.31    1.82 
  -2   1  11   14.68    1.62 
  -2   1  11   14.56    1.50 
   2   1 -11   14.44    1.43 
  -2   1  11   14.08    1.62 
  -1  -1  11   18.56    3.38 
   1  -1 -11   16.83    2.10 
  -1  -1  11   16.66    2.50 
   1   1 -11   22.29    2.00 
  -1   1  11   12.36    2.84 
  -1   1  11   18.00    1.62 
  -1   1  11   19.03    1.72 
  -1   1  11   18.36    1.83 
   1   1 -11   18.89    1.58 
  -1   1  11   18.67    1.63 
   0  -1  11   68.72    5.77 
   0  -1  11   52.64    4.88 
   0  -1 -11   59.12    4.72 
   0  -1  11   59.28    4.55 
   0   1  11   48.50    5.18 
   0   1  11   63.97    4.24 
   0   1 -11   54.60    4.19 
   0   1  11   56.03    4.23 
   0   1  11   60.97    4.28 
   0   1 -11   61.77    4.54 
   0   1  11   49.41    4.36 
   1  -1  11    4.00    0.69 
   1  -1  11    6.03    1.76 
   1  -1  11    7.54    2.78 
  -1  -1 -11    4.97    1.37 
   1   1  11    1.59    1.47 
   1   1  11    5.14    0.80 
  -1   1 -11    5.64    0.80 
  -1   1 -11    4.89    1.46 
   1   1  11    4.37    0.85 
   1   1  11    5.96    1.11 
   2  -1  11    7.75    1.92 
   2  -1  11    8.04    1.35 
   2  -1  11   10.88    2.78 
  -2   1 -11    7.37    0.88 
  -2   1 -11    5.73    1.56 
   2   1  11    7.45    0.92 
   3  -1  11    5.02    1.57 
  -3  -1 -11    6.07    0.60 
  -3  -1 -11    4.36    0.60 
   3  -1  11    4.42    1.01 
  -3   1 -11    5.50    0.68 
   3   1  11    4.65    0.74 
   4  -1  11    8.80    0.95 
   4  -1  11    8.79    1.20 
  -4  -1 -11    9.10    0.83 
  -4   1 -11    8.41    0.74 
  -4   1 -11    6.37    0.75 
   4   1  11    8.05    0.75 
  10  -2 -11    0.65    0.50 
 -10   2  11    0.24    0.80 
 -10   2  11    1.06    0.29 
   9  -2 -11   -0.08    0.52 
  -9  -2  11    0.31    0.85 
   9  -2 -11    0.69    0.39 
   9  -2 -11    0.23    0.35 
   9   2 -11    0.27    0.22 
  -9   2  11    0.01    0.35 
  -9   2  11   -0.70    0.87 
  -9   2  11    0.73    1.27 
   8  -2 -11    2.68    0.82 
   8  -2 -11    1.30    4.88 
  -8  -2  11    2.88    1.36 
   8  -2 -11    2.71    1.13 
   8   2 -11    2.84    0.50 
  -8   2  11    3.60    1.33 
  -8   2  11    0.74    1.00 
  -8   2  11    4.41    0.80 
  -7  -2  11   -0.88    1.06 
   7  -2 -11   -0.26    0.68 
   7  -2 -11   -0.53    0.56 
   7  -2 -11   -0.45    0.89 
  -7   2  11   -0.53    0.52 
  -7   2  11    0.36    1.11 
  -7   2  11    0.95    1.12 
  -7   2  11   -0.79    0.48 
   7   2 -11    0.27    0.30 
   6  -2 -11   11.08    1.51 
   6  -2 -11    9.76    1.54 
  -6  -2  11   10.04    2.25 
   6  -2 -11   12.40    1.80 
   6  -2 -11   11.65    1.51 
   6   2 -11   11.11    1.00 
  -6   2  11   10.44    1.97 
  -6   2  11    9.52    2.16 
  -6   2  11   10.17    1.23 
  -6   2  11   11.51    1.23 
   5  -2 -11    1.36    0.71 
  -5  -2  11    0.34    1.28 
   5  -2 -11    1.63    1.08 
   5  -2 -11    1.09    0.86 
   5  -2 -11    1.18    0.83 
  -5   2  11    0.73    0.52 
   5   2 -11    1.01    0.40 
  -5   2  11    0.20    1.01 
  -5   2  11    1.02    0.61 
  -5   2  11    1.16    1.13 
   4  -2 -11    9.87    1.44 
  -4  -2  11    9.33    2.28 
   4  -2 -11    8.53    1.33 
   4  -2 -11    8.44    1.45 
   4  -2 -11    8.69    1.60 
  -4   2  11   10.48    1.13 
  -4   2  11    8.04    2.06 
   4   2 -11    9.81    0.93 
  -4   2  11    8.13    1.10 
   3  -2 -11    9.11    1.48 
  -3  -2  11   10.34    2.26 
   3  -2 -11    9.50    1.67 
  -3   2  11    7.72    1.05 
  -3   2  11    8.94    1.02 
   3   2 -11    9.56    0.98 
  -3   2  11   12.47    1.21 
  -3   2  11   13.36    2.34 
   3   2 -11   11.53    1.41 
  -2  -2  11    2.56    1.44 
   2  -2 -11    3.45    1.10 
   2  -2 -11    3.24    1.28 
  -2  -2  11    2.05    1.85 
  -2   2  11    2.20    0.68 
  -2   2  11    1.64    1.23 
   2   2 -11    2.89    0.89 
  -2   2  11    2.31    0.63 
   2   2 -11    2.64    0.62 
  -2   2  11    2.65    0.73 
   1  -2 -11    7.92    1.52 
  -1  -2  11    7.31    2.12 
  -1  -2  11    6.75    1.98 
  -1  -2  11    8.69    2.81 
  -1   2  11    8.80    0.99 
  -1   2  11    6.89    1.02 
   1   2 -11    9.48    0.89 
  -1   2  11    9.71    0.95 
   1   2 -11    8.94    1.61 
  -1   2  11    6.41    2.16 
   0  -2  11    0.70    1.97 
   0  -2  11    0.48    1.20 
   0  -2 -11    1.49    0.94 
   0  -2  11    0.82    1.33 
   0   2  11    0.13    0.31 
   0   2  11    0.03    1.14 
   0   2  11    1.37    0.39 
   0   2  11    0.38    0.57 
   0   2 -11    0.90    0.37 
   1  -2  11    1.79    1.76 
  -1  -2 -11    2.91    1.19 
   1  -2  11    3.20    1.26 
   1  -2  11    1.67    1.56 
   1   2  11    2.67    1.38 
  -1   2 -11    4.76    1.30 
   1   2  11    3.60    0.57 
  -1   2 -11    3.44    0.57 
   1   2  11    3.45    0.65 
   2  -2  11    0.16    0.33 
   2  -2  11    0.73    1.08 
  -2  -2 -11    0.97    0.83 
  -2   2 -11    1.01    0.87 
  -2   2 -11    0.62    0.29 
   2   2  11    0.88    0.30 
   3  -2  11   17.69    1.58 
  -3  -2 -11   15.60    1.69 
   3  -2  11   16.29    1.90 
  -3   2 -11   16.89    1.72 
  -3   2 -11   15.43    1.26 
   3   2  11   17.06    1.30 
   8  -3 -11   -0.06    0.59 
  -8  -3  11    0.46    0.89 
   8  -3 -11    0.51    0.75 
   8   3 -11    0.43    0.23 
  -8   3  11    0.83    0.35 
  -8   3  11    0.43    0.81 
   7  -3 -11    4.24    1.09 
   7  -3 -11    4.69    1.29 
  -7  -3  11    4.55    1.63 
  -7   3  11    5.23    0.74 
  -7   3  11    4.30    1.63 
   7   3 -11    4.26    0.59 
   6  -3 -11   14.92    1.66 
  -6  -3  11   17.59    2.47 
   6  -3 -11   17.24    2.03 
   6   3 -11   14.37    1.25 
  -6   3  11   12.44    2.18 
   5  -3 -11   17.33    1.97 
  -5  -3  11   12.73    2.29 
   5  -3 -11   12.31    1.56 
   5   3 -11   11.94    1.10 
  -5   3  11   10.68    1.18 
  -5   3  11    9.92    2.11 
  -5   3  11   14.52    1.24 
   5   3 -11   12.55    1.08 
  -4  -3  11    9.09    2.08 
   4  -3 -11   11.23    1.69 
   4  -3 -11   10.48    1.40 
   4   3 -11   11.04    0.95 
  -4   3  11    9.71    1.96 
   4   3 -11    9.35    0.82 
  -4   3  11    9.89    1.07 
   3  -3 -11    0.73    0.68 
  -3  -3  11   -0.52    1.10 
   3  -3 -11    0.65    0.97 
   3   3 -11    0.30    0.22 
  -3   3  11    0.30    0.32 
  -3   3  11    0.26    0.98 
  -3   3  11    0.32    0.39 
  -2  -3  11    7.49    2.04 
  -2  -3  11    8.04    1.85 
   2  -3 -11   11.83    1.65 
  -2   3  11    7.31    0.88 
   2   3 -11    7.24    0.67 
  -2   3  11    3.42    1.30 
  -2   3  11    6.99    0.90 
  -1  -3  11   10.71    2.02 
   1  -3 -11   12.47    1.71 
  -1  -3  11   10.83    2.21 
  -1   3  11   11.63    1.11 
  -1   3  11   12.35    1.11 
   1   3 -11   11.53    0.92 
  -1   3  11    8.13    1.96 
   0  -3  11    5.34    1.67 
   0  -3  11    5.93    1.92 
   0  -3 -11    6.57    1.26 
   0   3 -11    5.84    0.56 
   0   3  11    3.63    1.26 
   0   3  11    6.57    0.79 
   0   3  11    5.57    0.76 
   1  -3  11    3.34    1.55 
  -1  -3 -11    3.55    1.13 
   1  -3  11    4.46    1.54 
  -1   3 -11    3.88    0.41 
   1   3  11    2.93    0.40 
   1   3  11    4.24    0.60 
  -1   3 -11    3.45    1.24 
   1   3  11    2.54    0.56 
  -2  -3 -11    0.94    0.71 
   2  -3  11    0.30    1.22 
  -2   3 -11    1.02    0.61 
   2   3  11    0.62    0.27 
   2   3  11    0.68    0.15 
   6  -4 -11   13.87    1.51 
  -6  -4  11   13.19    1.84 
   6   4 -11   11.65    0.99 
   6   4 -11   14.18    0.92 
  -6   4  11   12.60    1.10 
   6   4 -11   12.84    0.92 
  -6   4  11   11.82    1.05 
  -5  -4  11   25.74    2.65 
   5  -4 -11   25.63    2.33 
  -5   4  11   24.00    1.85 
  -5   4  11   23.42    1.92 
   5   4 -11   25.06    1.81 
   5   4 -11   25.67    1.73 
  -5   4  11   23.19    1.74 
   4  -4 -11    3.80    1.15 
  -4  -4  11    3.29    1.50 
   4   4 -11    2.96    0.29 
   4   4 -11    2.56    0.41 
  -4   4  11    3.22    0.32 
  -4   4  11    3.49    0.55 
  -4   4  11    3.08    0.65 
  -3  -4  11    1.48    1.10 
   3  -4 -11    5.39    1.16 
  -3   4  11    3.21    0.62 
  -3   4  11    2.87    0.50 
   3   4 -11    2.31    0.41 
  -3   4  11    3.20    0.30 
   3   4 -11    3.00    0.29 
  -3   4  11    3.00    0.60 
  -2  -4  11    2.55    1.16 
   2  -4 -11    4.48    1.05 
   2   4 -11    4.16    0.35 
   2   4 -11    4.35    0.46 
  -2   4  11    3.37    0.56 
  -2   4  11    3.56    0.51 
  -2   4  11    3.74    0.34 
  -1  -4  11    4.98    1.61 
   1  -4 -11    8.87    1.22 
  -1   4  11    8.36    0.80 
   1   4 -11    8.71    0.71 
  -1   4  11    7.22    0.72 
   1   4 -11    7.89    0.61 
  -1   4  11    8.49    0.60 
   0  -4 -11    2.03    0.87 
   0  -4  11    0.42    0.86 
   0   4  11    0.98    0.24 
   0   4  11    0.93    0.27 
   0   4 -11    1.50    0.34 
   0   4 -11    1.92    0.21 
   0   4  11    1.75    0.16 
 -10   0  12    5.01    0.82 
  10   0 -12    4.46    0.85 
  10   0 -12    5.04    0.60 
  -9   0  12    0.51    0.54 
   9   0 -12    0.10    0.34 
  -8   0  12    0.56    0.67 
   8   0 -12    0.56    0.46 
   7   0 -12    5.08    1.06 
   7   0 -12    7.29    1.00 
  -7   0  12    6.63    1.17 
  -7   0  12    5.78    1.32 
   6   0 -12    6.79    1.02 
   6   0 -12    4.55    1.07 
  -6   0  12    4.87    1.05 
   6   0 -12    7.14    1.32 
  -6   0  12    5.50    1.07 
  -5   0  12    2.81    0.78 
   5   0 -12    5.19    1.31 
   5   0 -12    4.54    0.51 
   5   0 -12    3.72    1.00 
  -5   0  12    4.61    1.39 
   5   0 -12    4.03    0.52 
  -5   0  12    3.95    0.43 
   5   0 -12    5.17    0.97 
  -5   0  12    4.60    1.06 
   4   0 -12    0.95    0.35 
  -4   0  12    0.09    0.39 
  -4   0  12    0.65    0.86 
   4   0 -12    1.03    0.40 
  -4   0  12    0.63    0.20 
   4   0 -12    0.87    0.60 
  -4   0  12   -0.29    0.63 
   4   0 -12    1.60    0.58 
   4   0 -12    0.13    0.95 
  -3   0  12    3.03    0.91 
  -3   0  12    2.63    0.77 
   3   0 -12    2.75    0.56 
  -3   0  12    5.18    1.33 
   3   0 -12    3.76    0.73 
   3   0 -12    4.29    0.61 
   3   0 -12    4.39    0.93 
   2   0 -12    7.15    1.01 
  -2   0  12    8.27    1.30 
  -2   0  12    6.58    0.94 
  -2   0  12    7.88    1.16 
   2   0 -12    5.04    0.69 
   2   0 -12    8.25    1.26 
  -1   0  12    0.01    0.32 
  -1   0  12   -0.26    0.70 
  -1   0  12    0.57    0.63 
   1   0 -12    0.01    0.24 
   1   0 -12   -0.63    0.40 
   1   0 -12    0.04    0.29 
   1   0 -12   -0.33    0.52 
  -1   0  12    0.62    1.78 
   0   0 -12   27.12    2.02 
   0   0  12   26.42    2.28 
   0   0 -12   24.83    1.79 
   0   0 -12   24.69    1.82 
   0   0  12   20.08    3.71 
   0   0 -12   28.18    2.37 
   0   0  12   23.22    2.18 
   0   0  12   18.96    3.53 
   0   0  12   23.30    1.98 
   1   0  12    9.37    1.78 
  -1   0 -12    8.62    0.99 
   1   0  12    9.56    1.17 
   2   0  12    0.30    0.42 
  -2   0 -12   -0.35    0.33 
   2   0  12   -0.19    0.81 
   3   0  12    5.56    1.08 
  -3   0 -12    7.29    0.71 
   3   0  12    6.27    0.69 
 -10  -1  12    0.12    0.39 
  10  -1 -12    0.04    0.26 
 -10   1  12    0.12    0.35 
  10   1 -12   -0.07    0.20 
  -9  -1  12   28.04    2.33 
   9  -1 -12   27.00    2.14 
  -9   1  12   26.96    2.12 
   9   1 -12   27.31    2.04 
  -8  -1  12    9.96    1.37 
   8  -1 -12    7.45    1.00 
   8  -1 -12    7.25    0.58 
  -8  -1  12    5.22    0.73 
   8  -1 -12    7.20    0.63 
   8   1 -12    7.03    0.79 
  -8   1  12    6.73    0.95 
  -8   1  12    5.87    1.77 
  -8   1  12    5.50    1.07 
   7  -1 -12   19.57    1.79 
   7  -1 -12   13.80    4.18 
   7  -1 -12   22.45    1.69 
   7  -1 -12   17.54    1.90 
  -7   1  12   18.98    1.87 
  -7   1  12   16.60    2.57 
   7   1 -12   19.49    1.60 
   7   1 -12   20.24    1.60 
  -7   1  12   20.55    1.88 
  -7   1  12   18.29    1.71 
   6  -1 -12    1.68    0.74 
   6  -1 -12    3.24    1.02 
   6  -1 -12    0.99    0.64 
   6  -1 -12    1.29    0.84 
   6   1 -12    2.29    0.68 
  -6   1  12    2.41    0.66 
  -6   1  12    2.26    0.72 
  -6   1  12    0.88    1.15 
  -6   1  12    2.26    0.76 
   6   1 -12    2.52    0.62 
   5  -1 -12   -0.23    0.76 
   5  -1 -12    0.14    0.52 
   5  -1 -12    0.48    0.76 
  -5   1  12   -0.13    1.11 
  -5   1  12    0.46    0.60 
  -5   1  12    0.14    0.61 
  -5   1  12   -0.32    0.49 
   5   1 -12    0.50    0.43 
   5   1 -12    0.26    0.54 
   5   1 -12    0.38    0.39 
   4  -1 -12    8.11    1.37 
   4  -1 -12    4.57    1.12 
   4  -1 -12    7.24    1.14 
  -4   1  12    4.97    1.04 
  -4   1  12    6.58    1.02 
   4   1 -12    6.29    0.86 
   4   1 -12    5.88    1.16 
  -4   1  12    5.70    1.67 
  -4   1  12    5.99    1.16 
  -4   1  12    6.53    0.92 
  -3  -1  12    3.93    2.16 
   3  -1 -12    3.51    1.07 
  -3  -1  12    3.99    1.51 
   3  -1 -12    3.93    1.31 
   3   1 -12    4.71    1.12 
  -3   1  12    4.39    1.59 
  -3   1  12    3.47    0.78 
  -3   1  12    2.07    0.73 
   3   1 -12    4.16    0.74 
  -3   1  12    3.34    0.85 
  -3   1  12    4.02    0.80 
  -2  -1  12    4.67    1.05 
  -2  -1  12    2.26    1.21 
   2  -1 -12    3.93    1.06 
  -2  -1  12    3.30    2.27 
  -2   1  12    0.13    1.23 
   2   1 -12    2.40    0.69 
   2   1 -12    3.84    0.87 
  -2   1  12    2.02    0.73 
  -2   1  12    3.02    0.84 
  -2   1  12    3.58    0.75 
  -1  -1  12   15.91    2.31 
  -1  -1  12   18.83    1.98 
  -1  -1  12   15.26    3.38 
  -1  -1  12   19.58    1.60 
  -1   1  12   16.75    1.58 
   1   1 -12   20.31    1.93 
   1   1 -12   19.39    1.56 
  -1   1  12   15.29    1.75 
  -1   1  12   13.40    2.73 
  -1   1  12   19.53    1.66 
  -1   1  12   19.16    1.62 
   0  -1  12    2.37    1.93 
   0  -1  12    8.83    1.23 
   0  -1  12    8.64    0.84 
   0  -1  12    9.61    1.80 
   0   1 -12   11.12    1.57 
   0   1  12    8.64    1.18 
   0   1  12    7.79    0.94 
   0   1 -12    9.18    0.93 
   0   1  12    8.17    2.30 
   0   1  12    8.54    0.97 
   1  -1  12    6.20    1.69 
  -1  -1 -12    6.88    0.74 
  -1  -1 -12    5.80    0.79 
   1  -1  12    5.24    1.13 
   1  -1  12    4.05    2.88 
   1   1  12    6.36    0.83 
  -1   1 -12    5.35    2.14 
  -1   1 -12    7.21    0.78 
  -2  -1 -12    2.84    0.42 
   2  -1  12    2.60    0.99 
  -2  -1 -12    2.42    0.66 
   2  -1  12    4.32    0.88 
  -2  -1 -12    3.82    0.43 
   2   1  12    3.76    0.66 
  -2   1 -12    4.50    0.65 
  -2   1 -12    4.14    0.52 
   3  -1  12    5.19    1.08 
  -3  -1 -12    4.58    0.63 
   3  -1  12    4.56    0.71 
   3   1  12    3.85    0.51 
  -3   1 -12    4.81    0.63 
   9  -2 -12    3.04    0.70 
  -9   2  12    2.78    0.55 
  -9   2  12    3.38    1.30 
   9   2 -12    3.13    0.35 
  -8  -2  12    3.53    1.69 
   8  -2 -12    3.00    0.62 
   8  -2 -12    3.29    0.87 
   8  -2 -12    4.08    0.63 
   8   2 -12    2.23    0.43 
  -8   2  12    1.75    0.98 
  -8   2  12    2.96    0.66 
  -7  -2  12    5.95    1.64 
   7  -2 -12    5.03    1.85 
   7  -2 -12    7.97    1.15 
   7   2 -12    6.98    0.72 
  -7   2  12    7.11    0.90 
  -7   2  12    5.86    1.78 
   6  -2 -12    9.53    1.52 
   6  -2 -12    9.17    1.31 
  -6  -2  12   10.78    2.02 
   6  -2 -12    6.65    1.23 
   6   2 -12   10.56    0.93 
  -6   2  12   10.54    1.08 
  -6   2  12   11.10    2.10 
   5  -2 -12    3.63    1.11 
  -5  -2  12    4.19    1.70 
   5  -2 -12    4.07    1.30 
   5  -2 -12    3.52    1.01 
  -5   2  12    3.80    0.80 
   5   2 -12    4.20    0.67 
  -5   2  12    4.52    1.43 
  -5   2  12    4.18    0.83 
  -4  -2  12   -0.07    1.11 
   4  -2 -12    0.50    0.54 
   4  -2 -12    0.67    0.92 
   4  -2 -12    0.47    0.77 
  -4   2  12    0.21    0.33 
  -4   2  12    0.91    0.54 
   4   2 -12    0.32    0.36 
  -4   2  12   -0.34    0.98 
  -4   2  12    0.45    0.41 
   3  -2 -12    1.47    0.96 
   3  -2 -12    1.05    0.76 
  -3  -2  12    0.56    1.11 
  -3   2  12    0.76    0.35 
  -3   2  12    1.19    1.18 
   3   2 -12    1.06    0.65 
  -3   2  12    0.69    0.41 
  -3   2  12    1.34    0.60 
   3   2 -12    2.21    0.55 
  -2  -2  12    3.61    1.70 
  -2  -2  12    3.28    2.06 
   2  -2 -12    5.15    1.25 
  -2  -2  12    5.76    1.72 
  -2   2  12    5.53    0.73 
  -2   2  12    4.84    0.98 
   2   2 -12    4.62    0.66 
   2   2 -12    6.14    1.38 
  -2   2  12    1.03    1.11 
  -2   2  12    4.93    0.77 
   1  -2 -12   12.00    1.57 
  -1  -2  12    8.34    2.20 
  -1  -2  12    8.23    1.94 
   1   2 -12   13.75    1.72 
   1   2 -12   13.01    1.04 
  -1   2  12    9.58    2.19 
  -1   2  12   11.51    1.12 
  -1   2  12   12.15    1.05 
   0  -2 -12    6.97    1.29 
   0  -2  12    6.60    1.66 
   0   2  12    6.37    0.76 
   0   2  12    7.17    0.72 
   0   2  12    3.61    1.36 
   0   2 -12    6.53    0.69 
   1  -2  12    0.60    0.30 
   1  -2  12    0.10    0.89 
  -1  -2 -12    0.56    0.66 
  -1   2 -12    0.53    0.70 
   1   2  12    0.63    0.26 
  -1   2 -12    0.56    0.24 
   1   2  12    0.98    0.27 
  -2  -2 -12    2.38    0.43 
  -2  -2 -12    2.44    0.51 
   2  -2  12    2.04    0.52 
   2  -2  12    0.38    0.68 
  -2   2 -12    1.48    0.63 
  -2   2 -12    1.53    0.36 
  -8  -3  12    1.37    0.70 
   7  -3 -12    1.26    0.75 
  -7  -3  12    0.95    0.83 
   7  -3 -12    0.07    0.91 
  -7   3  12    0.06    0.70 
   6  -3 -12   14.73    1.52 
  -6  -3  12   13.82    1.98 
   6  -3 -12   13.86    1.68 
  -6   3  12   13.74    1.91 
   5  -3 -12    3.98    1.20 
   5  -3 -12    4.37    1.09 
  -5  -3  12    3.81    1.50 
  -5   3  12    4.48    1.60 
   4  -3 -12    3.33    1.27 
  -4  -3  12    3.31    1.53 
   4  -3 -12    2.19    0.73 
  -4   3  12    3.21    0.66 
  -4   3  12    2.91    1.13 
   3  -3 -12    1.72    0.86 
  -3  -3  12    1.01    0.83 
  -3  -3  12    0.12    0.94 
  -3   3  12    0.83    0.32 
  -3   3  12    2.52    0.60 
   3   3 -12    1.58    0.35 
  -3   3  12    0.69    0.97 
   2  -3 -12    3.36    1.09 
  -2  -3  12    0.72    0.98 
  -2  -3  12    1.94    1.03 
  -2   3  12    2.77    0.60 
  -2   3  12    3.10    0.58 
   2   3 -12    2.73    0.41 
  -2   3  12    0.82    0.96 
  -1  -3  12    0.44    0.98 
   1  -3 -12    0.27    0.59 
  -1  -3  12    0.29    0.84 
  -1   3  12    0.18    0.29 
  -1   3  12   -0.39    0.85 
  -1   3  12    0.09    0.28 
   0  -3  12    1.78    0.85 
   0  -3  12    0.82    0.94 
   0  -3 -12    0.96    0.73 
   0   3  12    1.68    0.44 
   0   3 -12    2.62    0.81 
   0   3  12    1.13    0.32 
   0   3  12    1.39    0.24 
  -1  -3 -12    0.82    0.62 
   1  -3  12    1.08    0.39 
  -1   3 -12    0.89    0.60 
  -9   0  13    2.42    0.55 
   9   0 -13    2.29    0.46 
   8   0 -13    2.88    0.59 
  -8   0  13    2.61    0.68 
  -7   0  13   10.93    1.42 
   7   0 -13   12.02    1.16 
  -6   0  13   -0.43    0.66 
   6   0 -13    0.48    0.43 
   6   0 -13    0.13    0.52 
  -5   0  13    0.49    0.37 
  -5   0  13   -0.48    0.80 
   5   0 -13    1.65    0.53 
   5   0 -13    1.47    0.66 
  -5   0  13    0.89    0.71 
  -4   0  13    7.88    1.29 
  -4   0  13    6.63    1.09 
   4   0 -13    7.13    1.16 
  -4   0  13    7.12    0.92 
   4   0 -13    7.32    1.04 
  -3   0  13    5.54    0.85 
   3   0 -13    4.85    1.06 
  -3   0  13    5.72    1.21 
   3   0 -13    4.79    0.90 
  -3   0  13    5.63    1.03 
  -2   0  13    0.98    0.38 
  -2   0  13    0.75    0.61 
   2   0 -13    0.82    0.45 
  -2   0  13    0.08    0.76 
   2   0 -13    0.16    0.49 
  -1   0  13   23.61    1.89 
   1   0 -13   25.26    1.95 
  -1   0  13   22.10    2.03 
   0   0 -13   24.13    2.07 
   0   0  13   31.20    2.28 
   0   0  13   26.93    2.17 
  -1   0 -13    5.07    0.66 
   1   0  13    4.60    0.81 
   1   0  13    4.55    0.68 
  -2   0 -13    0.26    0.23 
   9  -1 -13    6.04    0.68 
  -9  -1  13    6.21    0.89 
  -9   1  13    6.03    0.67 
   9   1 -13    5.81    0.58 
   8  -1 -13    0.27    0.41 
  -8  -1  13    0.17    0.49 
   8   1 -13    0.31    0.28 
  -8   1  13    0.27    0.36 
   7  -1 -13   11.48    0.88 
   7  -1 -13   11.49    1.21 
  -7  -1  13   11.16    1.43 
  -7  -1  13   11.00    0.94 
  -7   1  13   13.27    2.09 
  -7   1  13   13.35    1.16 
  -7   1  13   14.30    1.22 
   7   1 -13   11.95    1.05 
   6  -1 -13    4.12    0.58 
   6  -1 -13    3.98    0.83 
   6  -1 -13    4.90    1.02 
  -6  -1  13    3.69    1.13 
   6  -1 -13    4.07    0.58 
  -6  -1  13    5.14    0.61 
  -6   1  13    4.95    0.89 
  -6   1  13    3.75    0.87 
   6   1 -13    3.93    0.61 
  -6   1  13    3.54    1.29 
   6   1 -13    4.28    0.64 
  -5  -1  13    3.90    0.92 
   5  -1 -13    6.46    0.69 
  -5  -1  13    4.30    0.62 
   5  -1 -13    5.15    0.88 
   5  -1 -13    3.37    0.94 
   5  -1 -13    3.28    0.63 
  -5   1  13    4.05    0.79 
   5   1 -13    2.10    0.70 
  -5   1  13    3.96    0.88 
  -5   1  13    5.58    1.91 
  -5   1  13    4.15    0.87 
   5   1 -13    3.82    0.67 
   5   1 -13    3.41    0.66 
   4  -1 -13    6.75    0.82 
  -4  -1  13    8.82    1.34 
   4  -1 -13    9.32    0.92 
  -4  -1  13    6.14    1.53 
  -4  -1  13    6.90    0.82 
   4  -1 -13    6.21    1.14 
   4  -1 -13    9.18    1.41 
  -4   1  13    8.07    1.75 
  -4   1  13    6.97    0.99 
   4   1 -13    8.65    0.88 
   4   1 -13    9.87    1.28 
  -4   1  13    5.94    1.22 
   4   1 -13    6.58    0.85 
  -4   1  13    7.27    0.91 
  -4   1  13    6.89    0.97 
   3  -1 -13    0.50    0.52 
   3  -1 -13    1.10    0.45 
  -3  -1  13    0.69    0.71 
  -3  -1  13    0.89    0.34 
  -3  -1  13   -0.03    0.87 
   3  -1 -13    1.16    0.53 
  -3   1  13    0.86    0.43 
   3   1 -13    0.67    0.52 
  -3   1  13    1.02    0.39 
  -3   1  13   -0.08    1.19 
  -3   1  13    1.39    0.50 
   3   1 -13    0.67    0.40 
   3   1 -13    0.50    0.36 
  -2  -1  13    2.29    0.38 
   2  -1 -13    2.22    0.56 
   2  -1 -13    2.69    0.51 
  -2  -1  13    1.32    0.91 
  -2  -1  13    1.40    0.41 
  -2   1  13    1.60    0.47 
   2   1 -13    1.81    0.57 
   2   1 -13    1.48    0.45 
  -2   1  13    1.38    1.22 
   2   1 -13    2.44    0.77 
  -2   1  13    1.90    0.45 
   1  -1 -13    7.77    0.82 
  -1  -1  13   10.85    1.66 
  -1  -1  13    9.43    1.16 
   1  -1 -13    6.40    0.79 
  -1  -1  13    8.63    0.92 
   1  -1 -13   11.43    1.36 
  -1   1  13    9.01    0.93 
   1   1 -13    9.81    0.88 
  -1   1  13    7.76    0.92 
   1   1 -13    9.01    0.85 
  -1   1  13    7.20    2.10 
   0  -1 -13    4.42    0.49 
   0  -1 -13    4.24    0.68 
   0  -1  13    3.73    1.43 
   0  -1  13    3.82    0.95 
   0  -1 -13    4.12    0.49 
   0   1 -13    4.00    0.57 
   0   1  13    2.97    0.64 
   0   1 -13    3.50    0.57 
   0   1  13    4.55    0.61 
   1  -1  13    0.56    0.72 
   1  -1  13   -0.03    0.42 
  -1  -1 -13    0.08    0.24 
  -1   1 -13    0.56    0.26 
   1   1  13    0.05    0.25 
  -1   1 -13    0.46    0.21 
   8  -2 -13    5.16    0.40 
  -8  -2  13    4.40    0.48 
  -8   2  13    3.80    0.53 
   8   2 -13    4.05    0.44 
  -8   2  13    4.05    1.34 
   7  -2 -13    5.88    0.70 
   7  -2 -13    4.78    0.92 
   7  -2 -13    5.35    0.67 
  -7  -2  13    7.12    0.71 
   7   2 -13    6.25    0.62 
  -7   2  13    6.81    0.68 
  -7   2  13    7.61    1.72 
   6  -2 -13    0.11    0.55 
   6   2 -13   -0.02    0.26 
  -6   2  13    0.10    0.31 
  -6   2  13    0.06    0.88 
   5  -2 -13    8.87    1.15 
  -5  -2  13    8.84    1.79 
   5  -2 -13    7.89    1.24 
  -5   2  13    6.49    1.84 
   5   2 -13    8.51    0.82 
  -5   2  13    9.48    0.89 
  -4  -2  13    5.01    1.45 
   4  -2 -13    4.21    1.03 
  -4   2  13    3.11    0.62 
   4   2 -13    3.91    0.54 
  -4   2  13    3.60    1.27 
  -4   2  13    3.57    0.62 
  -3  -2  13    3.68    1.44 
   3  -2 -13    4.67    1.09 
  -3   2  13    3.57    1.27 
  -3   2  13    4.94    0.66 
   3   2 -13    4.78    0.61 
  -3   2  13    5.62    0.71 
  -2  -2  13    0.77    0.94 
   2  -2 -13    1.35    0.67 
  -2  -2  13    2.43    0.58 
  -2   2  13    2.32    0.50 
  -2   2  13    2.33    0.55 
  -2   2  13    0.42    0.94 
   2   2 -13    1.89    0.44 
  -1  -2  13    3.41    1.33 
   1  -2 -13    3.13    0.87 
  -1  -2  13    4.13    0.52 
  -1   2  13    1.35    0.98 
  -1   2  13    3.10    0.57 
  -1   2  13    3.03    0.48 
   1   2 -13    3.30    0.47 
   0  -2  13    0.75    0.49 
   0  -2  13    0.68    0.73 
   0  -2 -13    0.71    0.36 
   0   2 -13    0.30    0.20 
   0   2  13    0.31    0.20 
   0   2  13    0.00    0.23 
   0   2 -13    0.62    0.63 
  -6  -3  13    0.74    0.72 
   6  -3 -13    0.45    0.55 
  -6   3  13    1.02    0.74 
  -5  -3  13   -0.25    0.64 
  -5  -3  13    0.38    0.64 
   5  -3 -13    0.20    0.52 
  -5   3  13    0.56    0.79 
  -4  -3  13    1.95    0.80 
  -4  -3  13    1.59    0.85 
   4  -3 -13    0.68    0.56 
  -4   3  13    0.94    0.86 
  -3  -3  13    0.94    0.83 
   3  -3 -13    0.84    0.55 
  -3  -3  13    0.87    0.71 
  -3   3  13    1.02    0.30 
  -3   3  13    1.51    0.90 
  -3   3  13    1.76    0.43 
  -2  -3  13    8.39    1.37 
  -2  -3  13    5.61    1.33 
  -2   3  13    7.84    1.46 
  -2   3  13    9.36    0.78 
   8   0 -14    8.50    0.75 
  -8   0  14    8.03    0.90 
  -7   0  14    2.54    0.77 
   7   0 -14    2.22    0.53 
  -6   0  14    0.40    0.50 
   6   0 -14    0.18    0.32 
  -5   0  14    4.38    0.69 
   5   0 -14    4.23    0.73 
  -5   0  14    3.92    0.93 
  -4   0  14    0.12    0.53 
  -4   0  14    0.44    0.32 
   4   0 -14    0.11    0.34 
  -3   0  14    0.48    0.30 
  -3   0  14    0.30    0.43 
   3   0 -14    0.47    0.37 
  -2   0  14   33.30    2.61 
  -2   0  14   31.89    2.66 
   2   0 -14   40.51    2.63 
   1   0 -14    8.83    0.81 
  -1   0  14    8.76    0.94 
  -1   0  14    8.70    0.82 
   0   0  14    0.20    0.31 
   0   0 -14    0.05    0.22 
  -8  -1  14   10.14    1.17 
   8  -1 -14   13.56    1.08 
   8   1 -14   13.29    1.00 
  -8   1  14   11.56    1.10 
   7  -1 -14    2.67    0.61 
  -7  -1  14    2.65    0.80 
   7   1 -14    2.01    0.47 
  -7   1  14    2.42    0.43 
  -6  -1  14    2.84    0.54 
  -6  -1  14    3.16    0.65 
   6  -1 -14    2.76    0.67 
  -6   1  14    1.09    0.94 
  -6   1  14    2.44    0.58 
   6   1 -14    2.26    0.50 
   5  -1 -14    5.58    0.80 
  -5  -1  14    8.30    1.10 
  -5  -1  14    5.10    0.69 
   5   1 -14    4.84    0.61 
  -5   1  14    2.55    1.12 
  -5   1  14    5.31    0.64 
  -5   1  14    6.14    0.73 
   4  -1 -14    2.63    0.64 
  -4  -1  14    2.45    0.68 
   4  -1 -14    3.06    0.31 
  -4  -1  14    3.47    0.61 
  -4   1  14    1.88    0.44 
  -4   1  14    2.25    1.02 
   4   1 -14    2.61    0.52 
   4   1 -14    2.51    0.49 
  -4   1  14    2.20    0.57 
   3  -1 -14    4.14    0.35 
  -3  -1  14    2.67    0.61 
  -3  -1  14    4.35    1.02 
  -3  -1  14    2.99    1.16 
   3  -1 -14    2.90    0.69 
   3   1 -14    2.62    0.53 
  -3   1  14    3.49    0.61 
  -3   1  14    4.15    0.65 
   3   1 -14    2.98    0.55 
  -3   1  14    1.73    1.02 
  -2  -1  14    1.48    0.50 
   2  -1 -14    1.89    0.44 
  -2  -1  14    1.90    0.49 
  -2  -1  14    3.00    1.07 
   2   1 -14    1.75    0.44 
  -2   1  14    2.01    0.50 
  -2   1  14    1.13    0.35 
  -2   1  14    1.19    1.03 
   2   1 -14    1.62    0.48 
  -1  -1  14    4.01    0.49 
  -1  -1  14    3.61    1.13 
   1  -1 -14    4.92    0.60 
  -1  -1  14    4.71    0.80 
   1   1 -14    4.04    0.50 
  -1   1  14    2.76    0.53 
  -1   1  14    3.75    0.52 
  -6  -2  14    6.83    0.53 
  -6  -2  14    4.55    0.67 
  -6  -2  14    6.58    1.14 
   6  -2 -14    7.45    0.58 
   6  -2 -14    7.85    0.60 
   6   2 -14    6.45    0.57 
  -6   2  14    3.67    1.43 
  -6   2  14    6.68    0.61 
  -5  -2  14    3.00    1.10 
   5  -2 -14    5.20    0.51 
   5  -2 -14    4.34    0.50 
  -5  -2  14    4.03    0.45 
  -5   2  14    2.60    0.95 
   5   2 -14    4.31    0.46 
  -5   2  14    3.63    0.49 
  -4  -2  14    3.44    0.54 
  -4  -2  14    4.43    0.43 
   4  -2 -14    3.23    0.49 
   4  -2 -14    4.04    0.50 
  -4  -2  14    1.49    0.73 
  -4   2  14    4.16    0.48 
  -4   2  14    4.03    0.53 
  -4   2  14    2.86    0.95 
   4   2 -14    4.44    0.44 
  -3  -2  14   10.86    1.30 
  -3  -2  14    7.46    0.73 
  -3  -2  14    7.67    1.29 
   3  -2 -14    7.06    0.69 
   3  -2 -14    6.54    0.68 
  -3   2  14    4.65    1.42 
   3   2 -14    6.79    0.62 
  -3   2  14    7.53    0.70 
  -3   2  14    7.24    0.61 
   2  -2 -14    5.49    0.54 
  -2  -2  14    5.08    0.62 
   2  -2 -14    5.70    0.54 
  -2  -2  14    5.09    0.87 
  -2  -2  14    5.44    1.15 
   2   2 -14    5.74    0.51 
  -2   2  14    6.21    0.61 
  -2   2  14    2.79    0.99 
   6   0 -15    0.25    0.39 
  -5   0  15    0.96    0.28 
   5   0 -15    0.92    0.26 
  -5   0  15    1.01    0.37 
  -4   0  15    1.85    0.47 
   4   0 -15    1.87    0.41 
  -4   0  15    2.19    0.44 
  -3   0  15    0.50    0.23 
   3   0 -15    0.46    0.23 
   5  -1 -15   13.66    1.14 
  -5  -1  15   11.04    1.21 
   4  -1 -15    8.84    0.96 
  -4  -1  15   10.21    1.06 
  -4  -1  15   10.37    0.92 
   4   1 -15   12.82    0.99 
  -4   1  15   11.42    0.95 
   0   0   0    0.00    0.00 
;
_shelx_hkl_checksum              17139
loop_
_space_group_symop_operation_xyz
'x, y, z'
'-x, y+1/2, -z'
loop_
_atom_site_label
_atom_site_type_symbol
_atom_site_fract_x
_atom_site_fract_y
_atom_site_fract_z
_atom_site_U_iso_or_equiv
_atom_site_adp_type
_atom_site_occupancy
_atom_site_site_symmetry_order
_atom_site_calc_flag
_atom_site_refinement_flags_posn
_atom_site_refinement_flags_adp
_atom_site_refinement_flags_occupancy
_atom_site_disorder_assembly
_atom_site_disorder_group
C1 C 0.6156(3) 0.4049(5) 0.2954(2) 0.0154(6) Uani 1 1 d . . . . .
H1 H 0.6081 0.2314 0.3203 0.018 Uiso 1 1 calc R U . . .
C2 C 0.4750(3) 0.5393(5) 0.2755(2) 0.0159(6) Uani 1 1 d . . . . .
C3 C 0.3405(3) 0.4891(5) 0.1948(2) 0.0190(6) Uani 1 1 d . . . . .
H3 H 0.3266 0.3534 0.1439 0.023 Uiso 1 1 calc R U . . .
C4 C 0.2255(3) 0.6421(6) 0.1897(2) 0.0224(6) Uani 1 1 d . . . . .
H4 H 0.1323 0.6089 0.1352 0.027 Uiso 1 1 calc R U . . .
C5 C 0.2456(3) 0.8427(6) 0.2634(3) 0.0237(6) Uani 1 1 d . . . . .
H5 H 0.1661 0.9448 0.2586 0.028 Uiso 1 1 calc R U . . .
C6 C 0.3808(3) 0.8942(5) 0.3437(3) 0.0211(6) Uani 1 1 d . . . . .
H6 H 0.3947 1.0314 0.3937 0.025 Uiso 1 1 calc R U . . .
C7 C 0.4955(3) 0.7421(5) 0.3497(2) 0.0157(6) Uani 1 1 d . . . . .
C8 C 0.6466(3) 0.7433(5) 0.4243(2) 0.0169(6) Uani 1 1 d . . . . .
C9 C 0.7480(3) 0.8427(5) 0.5207(2) 0.0187(6) Uani 1 1 d . . . . .
H9 H 0.7342 0.9820 0.5615 0.022 Uiso 1 1 calc R U . . .
C10 C 0.8470(3) 0.5302(5) 0.4696(2) 0.0193(6) Uani 1 1 d . . . . .
H10 H 0.9144 0.4078 0.4679 0.023 Uiso 1 1 calc R U . . .
C11 C 0.6606(3) 0.3997(5) 0.1905(2) 0.0154(6) Uani 1 1 d . . . . .
H11 H 0.6027 0.2675 0.1382 0.018 Uiso 1 1 calc R U . . .
C12 C 0.8191(3) 0.3341(5) 0.2216(2) 0.0159(5) Uani 1 1 d . . . . .
H12 H 0.8790 0.4686 0.2710 0.019 Uiso 1 1 calc R U . . .
C13 C 0.8525(3) 0.3201(5) 0.1131(2) 0.0195(6) Uani 1 1 d . . . . .
H13A H 0.7964 0.1846 0.0639 0.023 Uiso 1 1 calc R U . . .
H13B H 0.9561 0.2850 0.1325 0.023 Uiso 1 1 calc R U . . .
C14 C 0.8135(3) 0.5664(6) 0.0498(3) 0.0230(6) Uani 1 1 d . . . . .
H14A H 0.8730 0.7002 0.0980 0.028 Uiso 1 1 calc R U . . .
H14B H 0.8341 0.5581 -0.0211 0.028 Uiso 1 1 calc R U . . .
C15 C 0.6306(3) 0.6429(5) 0.1232(2) 0.0198(6) Uani 1 1 d . . . . .
H15A H 0.5277 0.6869 0.1013 0.024 Uiso 1 1 calc R U . . .
H15B H 0.6887 0.7773 0.1720 0.024 Uiso 1 1 calc R U . . .
N1 N 0.8737(3) 0.7062(5) 0.5484(2) 0.0201(5) Uani 1 1 d . . . . .
N2 N 0.7128(3) 0.5478(4) 0.39313(19) 0.0161(5) Uani 1 1 d . . . . .
O1 O 0.6651(2) 0.6211(4) 0.02270(17) 0.0231(5) Uani 1 1 d . . . . .
O2 O 0.8513(2) 0.1082(4) 0.28363(17) 0.0202(4) Uani 1 1 d . . . . .
H2 H 0.9344 0.1160 0.3338 0.030 Uiso 1 1 calc R U . . .
loop_
_atom_site_aniso_label
_atom_site_aniso_U_11
_atom_site_aniso_U_22
_atom_site_aniso_U_33
_atom_site_aniso_U_23
_atom_site_aniso_U_13
_atom_site_aniso_U_12
C1 0.0130(12) 0.0166(13) 0.0150(13) -0.0006(10) 0.0032(11) -0.0005(10)
C2 0.0172(13) 0.0153(13) 0.0175(13) 0.0022(10) 0.0091(11) -0.0003(11)
C3 0.0152(13) 0.0215(15) 0.0178(13) 0.0006(11) 0.0030(11) -0.0015(10)
C4 0.0154(13) 0.0290(17) 0.0221(14) 0.0049(12) 0.0061(11) -0.0018(11)
C5 0.0221(15) 0.0289(16) 0.0238(14) 0.0094(12) 0.0128(12) 0.0081(12)
C6 0.0261(15) 0.0200(15) 0.0218(14) 0.0011(11) 0.0142(12) 0.0027(11)
C7 0.0181(13) 0.0159(13) 0.0157(13) 0.0027(9) 0.0091(12) -0.0023(10)
C8 0.0216(15) 0.0144(14) 0.0179(13) 0.0026(10) 0.0111(12) 0.0016(10)
C9 0.0220(14) 0.0182(14) 0.0179(12) -0.0042(11) 0.0098(11) -0.0036(11)
C10 0.0176(13) 0.0228(15) 0.0177(13) 0.0003(10) 0.0068(11) 0.0002(10)
C11 0.0172(14) 0.0137(14) 0.0148(13) -0.0028(10) 0.0055(11) 0.0001(9)
C12 0.0158(13) 0.0145(13) 0.0157(12) -0.0002(10) 0.0038(10) -0.0004(10)
C13 0.0192(14) 0.0187(14) 0.0203(13) 0.0015(11) 0.0070(11) 0.0040(11)
C14 0.0215(14) 0.0261(16) 0.0240(13) 0.0067(12) 0.0113(12) 0.0056(12)
C15 0.0193(14) 0.0204(15) 0.0203(14) 0.0025(11) 0.0079(11) 0.0036(11)
N1 0.0152(12) 0.0271(13) 0.0166(12) -0.0024(9) 0.0041(10) -0.0034(9)
N2 0.0173(12) 0.0158(11) 0.0153(10) -0.0020(9) 0.0061(9) 0.0002(9)
O1 0.0214(10) 0.0307(11) 0.0186(10) 0.0059(8) 0.0090(8) 0.0066(8)
O2 0.0200(10) 0.0182(10) 0.0197(9) 0.0030(8) 0.0041(8) 0.0024(8)
loop_
_atom_type_symbol
_atom_type_description
_atom_type_scat_dispersion_real
_atom_type_scat_dispersion_imag
_atom_type_scat_source
C C 0.0181 0.0091 'International Tables Vol C Tables 4.2.6.8 and 6.1.1.4'
H H 0.0000 0.0000 'International Tables Vol C Tables 4.2.6.8 and 6.1.1.4'
N N 0.0311 0.0180 'International Tables Vol C Tables 4.2.6.8 and 6.1.1.4'
O O 0.0492 0.0322 'International Tables Vol C Tables 4.2.6.8 and 6.1.1.4'
loop_
_geom_angle_atom_site_label_1
_geom_angle_atom_site_label_2
_geom_angle_atom_site_label_3
_geom_angle
_geom_angle_site_symmetry_1
_geom_angle_site_symmetry_3
_geom_angle_publ_flag
N2 C1 C2 100.0(2) . . ?
N2 C1 C11 114.5(2) . . ?
C2 C1 C11 114.1(2) . . ?
N2 C1 H1 109.3 . . ?
C2 C1 H1 109.3 . . ?
C11 C1 H1 109.3 . . ?
C3 C2 C7 120.5(3) . . ?
C3 C2 C1 128.2(3) . . ?
C7 C2 C1 111.3(2) . . ?
C2 C3 C4 118.5(3) . . ?
C2 C3 H3 120.7 . . ?
C4 C3 H3 120.7 . . ?
C5 C4 C3 121.0(3) . . ?
C5 C4 H4 119.5 . . ?
C3 C4 H4 119.5 . . ?
C6 C5 C4 120.4(3) . . ?
C6 C5 H5 119.8 . . ?
C4 C5 H5 119.8 . . ?
C5 C6 C7 118.9(3) . . ?
C5 C6 H6 120.5 . . ?
C7 C6 H6 120.5 . . ?
C6 C7 C2 120.6(3) . . ?
C6 C7 C8 132.1(3) . . ?
C2 C7 C8 107.3(2) . . ?
C9 C8 N2 106.1(3) . . ?
C9 C8 C7 145.7(3) . . ?
N2 C8 C7 107.7(2) . . ?
C8 C9 N1 108.7(3) . . ?
C8 C9 H9 125.6 . . ?
N1 C9 H9 125.6 . . ?
N1 C10 N2 111.2(3) . . ?
N1 C10 H10 124.4 . . ?
N2 C10 H10 124.4 . . ?
C12 C11 C15 108.4(2) . . ?
C12 C11 C1 112.5(2) . . ?
C15 C11 C1 113.5(2) . . ?
C12 C11 H11 107.4 . . ?
C15 C11 H11 107.4 . . ?
C1 C11 H11 107.4 . . ?
O2 C12 C13 111.8(2) . . ?
O2 C12 C11 110.2(2) . . ?
C13 C12 C11 109.1(2) . . ?
O2 C12 H12 108.6 . . ?
C13 C12 H12 108.6 . . ?
C11 C12 H12 108.6 . . ?
C12 C13 C14 109.1(2) . . ?
C12 C13 H13A 109.9 . . ?
C14 C13 H13A 109.9 . . ?
C12 C13 H13B 109.9 . . ?
C14 C13 H13B 109.9 . . ?
H13A C13 H13B 108.3 . . ?
O1 C14 C13 110.5(2) . . ?
O1 C14 H14A 109.5 . . ?
C13 C14 H14A 109.5 . . ?
O1 C14 H14B 109.5 . . ?
C13 C14 H14B 109.5 . . ?
H14A C14 H14B 108.1 . . ?
O1 C15 C11 110.9(2) . . ?
O1 C15 H15A 109.5 . . ?
C11 C15 H15A 109.5 . . ?
O1 C15 H15B 109.5 . . ?
C11 C15 H15B 109.5 . . ?
H15A C15 H15B 108.1 . . ?
C10 N1 C9 106.1(2) . . ?
C10 N2 C8 107.9(2) . . ?
C10 N2 C1 138.0(2) . . ?
C8 N2 C1 113.7(2) . . ?
C14 O1 C15 111.7(2) . . ?
C12 O2 H2 109.5 . . ?
loop_
_geom_bond_atom_site_label_1
_geom_bond_atom_site_label_2
_geom_bond_distance
_geom_bond_site_symmetry_2
_geom_bond_publ_flag
C1 N2 1.477(3) . ?
C1 C2 1.517(4) . ?
C1 C11 1.546(4) . ?
C1 H1 1.0000 . ?
C2 C3 1.383(4) . ?
C2 C7 1.406(4) . ?
C3 C4 1.397(4) . ?
C3 H3 0.9500 . ?
C4 C5 1.394(4) . ?
C4 H4 0.9500 . ?
C5 C6 1.387(4) . ?
C5 H5 0.9500 . ?
C6 C7 1.388(4) . ?
C6 H6 0.9500 . ?
C7 C8 1.457(4) . ?
C8 C9 1.374(4) . ?
C8 N2 1.378(3) . ?
C9 N1 1.385(4) . ?
C9 H9 0.9500 . ?
C10 N1 1.330(4) . ?
C10 N2 1.337(4) . ?
C10 H10 0.9500 . ?
C11 C12 1.526(3) . ?
C11 C15 1.533(4) . ?
C11 H11 1.0000 . ?
C12 O2 1.421(3) . ?
C12 C13 1.525(4) . ?
C12 H12 1.0000 . ?
C13 C14 1.527(4) . ?
C13 H13A 0.9900 . ?
C13 H13B 0.9900 . ?
C14 O1 1.424(3) . ?
C14 H14A 0.9900 . ?
C14 H14B 0.9900 . ?
C15 O1 1.435(3) . ?
C15 H15A 0.9900 . ?
C15 H15B 0.9900 . ?
O2 H2 0.8400 . ?
